MODEL 1
REMARK VINA RESULT:      -8.6      0.000      0.000
REMARK  10 active torsions:
REMARK  status: ('A' for Active; 'I' for Inactive)
REMARK    1  A    between atoms: C_2  and  N_3 
REMARK    2  A    between atoms: N_3  and  N_4 
REMARK       I    between atoms: N_4  and  C_5 
REMARK    3  A    between atoms: C_5  and  C_6 
REMARK    4  A    between atoms: C_9  and  N_10 
REMARK    5  A    between atoms: C_14  and  C_15 
REMARK       I    between atoms: C_15  and  N_16 
REMARK    6  A    between atoms: N_16  and  C_17 
REMARK    7  A    between atoms: C_17  and  C_18 
REMARK    8  A    between atoms: C_18  and  C_19 
REMARK    9  A    between atoms: C_21  and  O_22 
REMARK   10  A    between atoms: C_24  and  O_25 
ROOT
HETATM    1  C   UNL     1      45.768  -9.982   8.336  1.00  0.00     0.063 C 
HETATM    2  C   UNL     1      44.749 -11.034   7.964  1.00  0.00     0.007 C 
HETATM    3  C   UNL     1      44.868 -11.683   6.787  1.00  0.00     0.094 C 
ENDROOT
BRANCH   2   4
HETATM    4  N   UNL     1      43.771 -11.287   8.918  1.00  0.00    -0.207 NA
HETATM    5  H   UNL     1      42.916 -11.704   8.499  1.00  0.00     0.152 HD
BRANCH   4   6
HETATM    6  N   UNL     1      43.408 -10.269   9.828  1.00  0.00    -0.283 N 
HETATM    7  C   UNL     1      43.674 -10.520  11.168  1.00  0.00     0.266 C 
HETATM    8  O   UNL     1      44.389 -11.439  11.560  1.00  0.00    -0.266 OA
HETATM    9  H   UNL     1      42.596  -9.721   9.571  1.00  0.00     0.184 HD
BRANCH   7  10
HETATM   10  C   UNL     1      42.970  -9.649  12.150  1.00  0.00     0.033 A 
HETATM   11  C   UNL     1      43.446  -8.384  12.509  1.00  0.00     0.019 A 
HETATM   12  C   UNL     1      42.720  -7.593  13.407  1.00  0.00     0.024 A 
HETATM   13  C   UNL     1      41.544  -8.068  13.995  1.00  0.00     0.005 A 
HETATM   14  C   UNL     1      41.056  -9.315  13.603  1.00  0.00     0.024 A 
HETATM   15  C   UNL     1      41.773 -10.114  12.707  1.00  0.00     0.019 A 
BRANCH  13  16
HETATM   16  N   UNL     1      40.757  -7.219  14.781  1.00  0.00    -0.303 NA
HETATM   17  H   UNL     1      41.282  -6.685  15.467  1.00  0.00     0.124 HD
HETATM   18  H   UNL     1      39.948  -7.677  15.192  1.00  0.00     0.124 HD
ENDBRANCH  13  16
ENDBRANCH   7  10
ENDBRANCH   4   6
ENDBRANCH   2   4
BRANCH   3  19
HETATM   19  C   UNL     1      43.902 -12.727   6.368  1.00  0.00     0.242 C 
HETATM   20  N   UNL     1      43.444 -12.562   5.082  1.00  0.00    -0.357 N 
HETATM   21  H   UNL     1      43.730 -11.755   4.547  1.00  0.00     0.162 HD
HETATM   22  O   UNL     1      43.527 -13.608   7.129  1.00  0.00    -0.269 OA
BRANCH  20  23
HETATM   23  C   UNL     1      42.338 -13.363   4.572  1.00  0.00     0.127 C 
BRANCH  23  24
HETATM   24  C   UNL     1      42.679 -14.013   3.217  1.00  0.00     0.058 C 
BRANCH  24  25
HETATM   25  C   UNL     1      43.073 -15.472   3.271  1.00  0.00    -0.054 A 
HETATM   26  C   UNL     1      43.348 -16.099   4.494  1.00  0.00     0.046 A 
HETATM   27  C   UNL     1      43.649 -17.464   4.567  1.00  0.00     0.102 A 
HETATM   28  C   UNL     1      43.671 -18.232   3.389  1.00  0.00     0.101 A 
HETATM   29  C   UNL     1      43.377 -17.618   2.166  1.00  0.00     0.040 A 
HETATM   30  C   UNL     1      43.076 -16.252   2.110  1.00  0.00     0.010 A 
BRANCH  27  31
HETATM   31  O   UNL     1      43.938 -18.127   5.735  1.00  0.00    -0.353 OA
HETATM   32  C   UNL     1      43.468 -17.539   6.944  1.00  0.00     0.210 C 
ENDBRANCH  27  31
BRANCH  28  33
HETATM   33  O   UNL     1      43.971 -19.563   3.541  1.00  0.00    -0.353 OA
HETATM   34  C   UNL     1      43.576 -20.451   2.508  1.00  0.00     0.210 C 
ENDBRANCH  28  33
ENDBRANCH  24  25
ENDBRANCH  23  24
ENDBRANCH  20  23
ENDBRANCH   3  19
TORSDOF 10
ENDMDL
MODEL 2
REMARK VINA RESULT:      -8.6      1.185      2.100
REMARK  10 active torsions:
REMARK  status: ('A' for Active; 'I' for Inactive)
REMARK    1  A    between atoms: C_2  and  N_3 
REMARK    2  A    between atoms: N_3  and  N_4 
REMARK       I    between atoms: N_4  and  C_5 
REMARK    3  A    between atoms: C_5  and  C_6 
REMARK    4  A    between atoms: C_9  and  N_10 
REMARK    5  A    between atoms: C_14  and  C_15 
REMARK       I    between atoms: C_15  and  N_16 
REMARK    6  A    between atoms: N_16  and  C_17 
REMARK    7  A    between atoms: C_17  and  C_18 
REMARK    8  A    between atoms: C_18  and  C_19 
REMARK    9  A    between atoms: C_21  and  O_22 
REMARK   10  A    between atoms: C_24  and  O_25 
ROOT
HETATM    1  C   UNL     1      45.779 -10.379   8.345  1.00  0.00     0.063 C 
HETATM    2  C   UNL     1      44.606 -11.260   7.984  1.00  0.00     0.007 C 
HETATM    3  C   UNL     1      44.590 -11.882   6.786  1.00  0.00     0.094 C 
ENDROOT
BRANCH   2   4
HETATM    4  N   UNL     1      43.634 -11.399   8.967  1.00  0.00    -0.207 NA
HETATM    5  H   UNL     1      42.733 -11.743   8.578  1.00  0.00     0.152 HD
BRANCH   4   6
HETATM    6  N   UNL     1      43.391 -10.331   9.860  1.00  0.00    -0.283 N 
HETATM    7  C   UNL     1      43.634 -10.587  11.204  1.00  0.00     0.266 C 
HETATM    8  O   UNL     1      44.244 -11.573  11.609  1.00  0.00    -0.266 OA
HETATM    9  H   UNL     1      42.644  -9.700   9.596  1.00  0.00     0.184 HD
BRANCH   7  10
HETATM   10  C   UNL     1      43.036  -9.626  12.172  1.00  0.00     0.033 A 
HETATM   11  C   UNL     1      43.540  -8.334  12.356  1.00  0.00     0.019 A 
HETATM   12  C   UNL     1      42.912  -7.461  13.252  1.00  0.00     0.024 A 
HETATM   13  C   UNL     1      41.812  -7.876  14.009  1.00  0.00     0.005 A 
HETATM   14  C   UNL     1      41.293  -9.153  13.791  1.00  0.00     0.024 A 
HETATM   15  C   UNL     1      41.912 -10.034  12.900  1.00  0.00     0.019 A 
BRANCH  13  16
HETATM   16  N   UNL     1      41.111  -6.954  14.794  1.00  0.00    -0.303 NA
HETATM   17  H   UNL     1      41.022  -6.035  14.373  1.00  0.00     0.124 HD
HETATM   18  H   UNL     1      41.439  -6.904  15.754  1.00  0.00     0.124 HD
ENDBRANCH  13  16
ENDBRANCH   7  10
ENDBRANCH   4   6
ENDBRANCH   2   4
BRANCH   3  19
HETATM   19  C   UNL     1      43.469 -12.761   6.376  1.00  0.00     0.242 C 
HETATM   20  N   UNL     1      43.192 -13.754   7.287  1.00  0.00    -0.357 N 
HETATM   21  H   UNL     1      43.772 -13.858   8.108  1.00  0.00     0.162 HD
HETATM   22  O   UNL     1      42.896 -12.626   5.304  1.00  0.00    -0.269 OA
BRANCH  20  23
HETATM   23  C   UNL     1      42.270 -14.834   6.960  1.00  0.00     0.127 C 
BRANCH  23  24
HETATM   24  C   UNL     1      42.885 -16.217   7.247  1.00  0.00     0.058 C 
BRANCH  24  25
HETATM   25  C   UNL     1      43.191 -17.063   6.030  1.00  0.00    -0.054 A 
HETATM   26  C   UNL     1      43.158 -16.510   4.742  1.00  0.00     0.046 A 
HETATM   27  C   UNL     1      43.503 -17.262   3.613  1.00  0.00     0.102 A 
HETATM   28  C   UNL     1      43.898 -18.603   3.768  1.00  0.00     0.101 A 
HETATM   29  C   UNL     1      43.953 -19.156   5.052  1.00  0.00     0.040 A 
HETATM   30  C   UNL     1      43.607 -18.391   6.172  1.00  0.00     0.010 A 
BRANCH  27  31
HETATM   31  O   UNL     1      43.477 -16.776   2.328  1.00  0.00    -0.353 OA
HETATM   32  C   UNL     1      43.215 -15.386   2.170  1.00  0.00     0.210 C 
ENDBRANCH  27  31
BRANCH  28  33
HETATM   33  O   UNL     1      44.223 -19.274   2.615  1.00  0.00    -0.353 OA
HETATM   34  C   UNL     1      43.282 -20.204   2.105  1.00  0.00     0.210 C 
ENDBRANCH  28  33
ENDBRANCH  24  25
ENDBRANCH  23  24
ENDBRANCH  20  23
ENDBRANCH   3  19
TORSDOF 10
ENDMDL
MODEL 3
REMARK VINA RESULT:      -8.5      1.344      1.682
REMARK  10 active torsions:
REMARK  status: ('A' for Active; 'I' for Inactive)
REMARK    1  A    between atoms: C_2  and  N_3 
REMARK    2  A    between atoms: N_3  and  N_4 
REMARK       I    between atoms: N_4  and  C_5 
REMARK    3  A    between atoms: C_5  and  C_6 
REMARK    4  A    between atoms: C_9  and  N_10 
REMARK    5  A    between atoms: C_14  and  C_15 
REMARK       I    between atoms: C_15  and  N_16 
REMARK    6  A    between atoms: N_16  and  C_17 
REMARK    7  A    between atoms: C_17  and  C_18 
REMARK    8  A    between atoms: C_18  and  C_19 
REMARK    9  A    between atoms: C_21  and  O_22 
REMARK   10  A    between atoms: C_24  and  O_25 
ROOT
HETATM    1  C   UNL     1      45.832 -10.678   7.631  1.00  0.00     0.063 C 
HETATM    2  C   UNL     1      44.475 -11.340   7.595  1.00  0.00     0.007 C 
HETATM    3  C   UNL     1      43.927 -11.659   6.404  1.00  0.00     0.094 C 
ENDROOT
BRANCH   2   4
HETATM    4  N   UNL     1      43.909 -11.619   8.833  1.00  0.00    -0.207 NA
HETATM    5  H   UNL     1      43.170 -12.347   8.769  1.00  0.00     0.152 HD
BRANCH   4   6
HETATM    6  N   UNL     1      43.462 -10.555   9.648  1.00  0.00    -0.283 N 
HETATM    7  C   UNL     1      43.954 -10.527  10.946  1.00  0.00     0.266 C 
HETATM    8  O   UNL     1      44.897 -11.213  11.332  1.00  0.00    -0.266 OA
HETATM    9  H   UNL     1      42.523 -10.224   9.459  1.00  0.00     0.184 HD
BRANCH   7  10
HETATM   10  C   UNL     1      43.218  -9.659  11.907  1.00  0.00     0.033 A 
HETATM   11  C   UNL     1      43.576  -8.328  12.145  1.00  0.00     0.019 A 
HETATM   12  C   UNL     1      42.822  -7.548  13.030  1.00  0.00     0.024 A 
HETATM   13  C   UNL     1      41.738  -8.094  13.723  1.00  0.00     0.005 A 
HETATM   14  C   UNL     1      41.363  -9.410  13.451  1.00  0.00     0.024 A 
HETATM   15  C   UNL     1      42.110 -10.199  12.570  1.00  0.00     0.019 A 
BRANCH  13  16
HETATM   16  N   UNL     1      40.911  -7.271  14.496  1.00  0.00    -0.303 NA
HETATM   17  H   UNL     1      41.304  -7.018  15.396  1.00  0.00     0.124 HD
HETATM   18  H   UNL     1      39.957  -7.614  14.579  1.00  0.00     0.124 HD
ENDBRANCH  13  16
ENDBRANCH   7  10
ENDBRANCH   4   6
ENDBRANCH   2   4
BRANCH   3  19
HETATM   19  C   UNL     1      42.600 -12.314   6.304  1.00  0.00     0.242 C 
HETATM   20  N   UNL     1      42.608 -13.628   6.705  1.00  0.00    -0.357 N 
HETATM   21  H   UNL     1      43.478 -14.066   6.974  1.00  0.00     0.162 HD
HETATM   22  O   UNL     1      41.621 -11.732   5.857  1.00  0.00    -0.269 OA
BRANCH  20  23
HETATM   23  C   UNL     1      41.452 -14.488   6.480  1.00  0.00     0.127 C 
BRANCH  23  24
HETATM   24  C   UNL     1      41.777 -15.968   6.760  1.00  0.00     0.058 C 
BRANCH  24  25
HETATM   25  C   UNL     1      42.442 -16.719   5.628  1.00  0.00    -0.054 A 
HETATM   26  C   UNL     1      43.270 -17.821   5.884  1.00  0.00     0.046 A 
HETATM   27  C   UNL     1      43.838 -18.568   4.844  1.00  0.00     0.102 A 
HETATM   28  C   UNL     1      43.572 -18.212   3.510  1.00  0.00     0.101 A 
HETATM   29  C   UNL     1      42.730 -17.125   3.247  1.00  0.00     0.040 A 
HETATM   30  C   UNL     1      42.167 -16.390   4.297  1.00  0.00     0.010 A 
BRANCH  27  31
HETATM   31  O   UNL     1      44.665 -19.648   5.037  1.00  0.00    -0.353 OA
HETATM   32  C   UNL     1      44.053 -20.861   5.464  1.00  0.00     0.210 C 
ENDBRANCH  27  31
BRANCH  28  33
HETATM   33  O   UNL     1      44.163 -18.993   2.548  1.00  0.00    -0.353 OA
HETATM   34  C   UNL     1      43.366 -19.987   1.925  1.00  0.00     0.210 C 
ENDBRANCH  28  33
ENDBRANCH  24  25
ENDBRANCH  23  24
ENDBRANCH  20  23
ENDBRANCH   3  19
TORSDOF 10
ENDMDL
MODEL 4
REMARK VINA RESULT:      -8.2      2.760     10.649
REMARK  10 active torsions:
REMARK  status: ('A' for Active; 'I' for Inactive)
REMARK    1  A    between atoms: C_2  and  N_3 
REMARK    2  A    between atoms: N_3  and  N_4 
REMARK       I    between atoms: N_4  and  C_5 
REMARK    3  A    between atoms: C_5  and  C_6 
REMARK    4  A    between atoms: C_9  and  N_10 
REMARK    5  A    between atoms: C_14  and  C_15 
REMARK       I    between atoms: C_15  and  N_16 
REMARK    6  A    between atoms: N_16  and  C_17 
REMARK    7  A    between atoms: C_17  and  C_18 
REMARK    8  A    between atoms: C_18  and  C_19 
REMARK    9  A    between atoms: C_21  and  O_22 
REMARK   10  A    between atoms: C_24  and  O_25 
ROOT
HETATM    1  C   UNL     1      42.785 -12.983   2.997  1.00  0.00     0.063 C 
HETATM    2  C   UNL     1      43.269 -12.796   4.416  1.00  0.00     0.007 C 
HETATM    3  C   UNL     1      43.851 -11.631   4.768  1.00  0.00     0.094 C 
ENDROOT
BRANCH   2   4
HETATM    4  N   UNL     1      43.021 -13.857   5.280  1.00  0.00    -0.207 NA
HETATM    5  H   UNL     1      43.738 -13.924   6.029  1.00  0.00     0.152 HD
BRANCH   4   6
HETATM    6  N   UNL     1      42.763 -15.140   4.748  1.00  0.00    -0.283 N 
HETATM    7  C   UNL     1      43.646 -16.147   5.119  1.00  0.00     0.266 C 
HETATM    8  O   UNL     1      44.463 -16.035   6.029  1.00  0.00    -0.266 OA
HETATM    9  H   UNL     1      42.340 -15.156   3.828  1.00  0.00     0.184 HD
BRANCH   7  10
HETATM   10  C   UNL     1      43.615 -17.383   4.288  1.00  0.00     0.033 A 
HETATM   11  C   UNL     1      43.079 -17.407   2.996  1.00  0.00     0.019 A 
HETATM   12  C   UNL     1      43.114 -18.589   2.247  1.00  0.00     0.024 A 
HETATM   13  C   UNL     1      43.633 -19.768   2.789  1.00  0.00     0.005 A 
HETATM   14  C   UNL     1      44.200 -19.726   4.064  1.00  0.00     0.024 A 
HETATM   15  C   UNL     1      44.170 -18.551   4.821  1.00  0.00     0.019 A 
BRANCH  13  16
HETATM   16  N   UNL     1      43.788 -20.903   1.986  1.00  0.00    -0.303 NA
HETATM   17  H   UNL     1      43.939 -21.761   2.507  1.00  0.00     0.124 HD
HETATM   18  H   UNL     1      44.469 -20.785   1.241  1.00  0.00     0.124 HD
ENDBRANCH  13  16
ENDBRANCH   7  10
ENDBRANCH   4   6
ENDBRANCH   2   4
BRANCH   3  19
HETATM   19  C   UNL     1      44.342 -11.387   6.146  1.00  0.00     0.242 C 
HETATM   20  N   UNL     1      45.625 -10.895   6.189  1.00  0.00    -0.357 N 
HETATM   21  H   UNL     1      46.151 -10.789   5.332  1.00  0.00     0.162 HD
HETATM   22  O   UNL     1      43.670 -11.654   7.132  1.00  0.00    -0.269 OA
BRANCH  20  23
HETATM   23  C   UNL     1      46.348 -10.795   7.451  1.00  0.00     0.127 C 
BRANCH  23  24
HETATM   24  C   UNL     1      46.325  -9.359   8.010  1.00  0.00     0.058 C 
BRANCH  24  25
HETATM   25  C   UNL     1      45.247  -9.070   9.032  1.00  0.00    -0.054 A 
HETATM   26  C   UNL     1      44.153  -8.254   8.713  1.00  0.00     0.046 A 
HETATM   27  C   UNL     1      43.114  -8.032   9.626  1.00  0.00     0.102 A 
HETATM   28  C   UNL     1      43.162  -8.644  10.891  1.00  0.00     0.101 A 
HETATM   29  C   UNL     1      44.240  -9.477  11.208  1.00  0.00     0.040 A 
HETATM   30  C   UNL     1      45.270  -9.691  10.285  1.00  0.00     0.010 A 
BRANCH  27  31
HETATM   31  O   UNL     1      42.026  -7.233   9.372  1.00  0.00    -0.353 OA
HETATM   32  C   UNL     1      42.280  -5.854   9.128  1.00  0.00     0.210 C 
ENDBRANCH  27  31
BRANCH  28  33
HETATM   33  O   UNL     1      42.106  -8.381  11.728  1.00  0.00    -0.353 OA
HETATM   34  C   UNL     1      42.234  -8.758  13.090  1.00  0.00     0.210 C 
ENDBRANCH  28  33
ENDBRANCH  24  25
ENDBRANCH  23  24
ENDBRANCH  20  23
ENDBRANCH   3  19
TORSDOF 10
ENDMDL
MODEL 5
REMARK VINA RESULT:      -7.9      3.713      5.676
REMARK  10 active torsions:
REMARK  status: ('A' for Active; 'I' for Inactive)
REMARK    1  A    between atoms: C_2  and  N_3 
REMARK    2  A    between atoms: N_3  and  N_4 
REMARK       I    between atoms: N_4  and  C_5 
REMARK    3  A    between atoms: C_5  and  C_6 
REMARK    4  A    between atoms: C_9  and  N_10 
REMARK    5  A    between atoms: C_14  and  C_15 
REMARK       I    between atoms: C_15  and  N_16 
REMARK    6  A    between atoms: N_16  and  C_17 
REMARK    7  A    between atoms: C_17  and  C_18 
REMARK    8  A    between atoms: C_18  and  C_19 
REMARK    9  A    between atoms: C_21  and  O_22 
REMARK   10  A    between atoms: C_24  and  O_25 
ROOT
HETATM    1  C   UNL     1      40.464  -9.350   0.736  1.00  0.00     0.063 C 
HETATM    2  C   UNL     1      40.759 -10.689   1.370  1.00  0.00     0.007 C 
HETATM    3  C   UNL     1      39.753 -11.569   1.554  1.00  0.00     0.094 C 
ENDROOT
BRANCH   2   4
HETATM    4  N   UNL     1      42.094 -10.929   1.675  1.00  0.00    -0.207 NA
HETATM    5  H   UNL     1      42.384 -11.894   1.418  1.00  0.00     0.152 HD
BRANCH   4   6
HETATM    6  N   UNL     1      42.581 -10.609   2.962  1.00  0.00    -0.283 N 
HETATM    7  C   UNL     1      43.220 -11.634   3.648  1.00  0.00     0.266 C 
HETATM    8  O   UNL     1      43.575 -12.686   3.124  1.00  0.00    -0.266 OA
HETATM    9  H   UNL     1      42.044  -9.920   3.474  1.00  0.00     0.184 HD
BRANCH   7  10
HETATM   10  C   UNL     1      43.394 -11.431   5.113  1.00  0.00     0.033 A 
HETATM   11  C   UNL     1      42.738 -10.414   5.815  1.00  0.00     0.019 A 
HETATM   12  C   UNL     1      42.909 -10.296   7.199  1.00  0.00     0.024 A 
HETATM   13  C   UNL     1      43.770 -11.153   7.892  1.00  0.00     0.005 A 
HETATM   14  C   UNL     1      44.391 -12.188   7.192  1.00  0.00     0.024 A 
HETATM   15  C   UNL     1      44.228 -12.314   5.809  1.00  0.00     0.019 A 
BRANCH  13  16
HETATM   16  N   UNL     1      43.826 -11.115   9.289  1.00  0.00    -0.303 NA
HETATM   17  H   UNL     1      44.661 -10.671   9.658  1.00  0.00     0.124 HD
HETATM   18  H   UNL     1      43.645 -12.013   9.729  1.00  0.00     0.124 HD
ENDBRANCH  13  16
ENDBRANCH   7  10
ENDBRANCH   4   6
ENDBRANCH   2   4
BRANCH   3  19
HETATM   19  C   UNL     1      39.980 -12.900   2.168  1.00  0.00     0.242 C 
HETATM   20  N   UNL     1      40.895 -13.666   1.486  1.00  0.00    -0.357 N 
HETATM   21  H   UNL     1      41.295 -13.322   0.624  1.00  0.00     0.162 HD
HETATM   22  O   UNL     1      39.362 -13.274   3.155  1.00  0.00    -0.269 OA
BRANCH  20  23
HETATM   23  C   UNL     1      41.089 -15.072   1.817  1.00  0.00     0.127 C 
BRANCH  23  24
HETATM   24  C   UNL     1      42.549 -15.515   1.597  1.00  0.00     0.058 C 
BRANCH  24  25
HETATM   25  C   UNL     1      43.058 -16.583   2.539  1.00  0.00    -0.054 A 
HETATM   26  C   UNL     1      43.177 -16.333   3.914  1.00  0.00     0.046 A 
HETATM   27  C   UNL     1      43.583 -17.332   4.808  1.00  0.00     0.102 A 
HETATM   28  C   UNL     1      43.875 -18.619   4.322  1.00  0.00     0.101 A 
HETATM   29  C   UNL     1      43.738 -18.882   2.954  1.00  0.00     0.040 A 
HETATM   30  C   UNL     1      43.329 -17.873   2.073  1.00  0.00     0.010 A 
BRANCH  27  31
HETATM   31  O   UNL     1      43.728 -17.140   6.160  1.00  0.00    -0.353 OA
HETATM   32  C   UNL     1      44.747 -16.239   6.579  1.00  0.00     0.210 C 
ENDBRANCH  27  31
BRANCH  28  33
HETATM   33  O   UNL     1      44.263 -19.544   5.259  1.00  0.00    -0.353 OA
HETATM   34  C   UNL     1      43.915 -20.900   5.031  1.00  0.00     0.210 C 
ENDBRANCH  28  33
ENDBRANCH  24  25
ENDBRANCH  23  24
ENDBRANCH  20  23
ENDBRANCH   3  19
TORSDOF 10
ENDMDL
MODEL 6
REMARK VINA RESULT:      -7.7      6.506     11.005
REMARK  10 active torsions:
REMARK  status: ('A' for Active; 'I' for Inactive)
REMARK    1  A    between atoms: C_2  and  N_3 
REMARK    2  A    between atoms: N_3  and  N_4 
REMARK       I    between atoms: N_4  and  C_5 
REMARK    3  A    between atoms: C_5  and  C_6 
REMARK    4  A    between atoms: C_9  and  N_10 
REMARK    5  A    between atoms: C_14  and  C_15 
REMARK       I    between atoms: C_15  and  N_16 
REMARK    6  A    between atoms: N_16  and  C_17 
REMARK    7  A    between atoms: C_17  and  C_18 
REMARK    8  A    between atoms: C_18  and  C_19 
REMARK    9  A    between atoms: C_21  and  O_22 
REMARK   10  A    between atoms: C_24  and  O_25 
ROOT
HETATM    1  C   UNL     1      40.202 -13.172   4.889  1.00  0.00     0.063 C 
HETATM    2  C   UNL     1      40.574 -13.909   3.624  1.00  0.00     0.007 C 
HETATM    3  C   UNL     1      39.608 -14.229   2.737  1.00  0.00     0.094 C 
ENDROOT
BRANCH   2   4
HETATM    4  N   UNL     1      41.930 -14.161   3.452  1.00  0.00    -0.207 NA
HETATM    5  H   UNL     1      42.247 -13.941   2.486  1.00  0.00     0.152 HD
BRANCH   4   6
HETATM    6  N   UNL     1      42.463 -15.404   3.859  1.00  0.00    -0.283 N 
HETATM    7  C   UNL     1      43.270 -16.058   2.937  1.00  0.00     0.266 C 
HETATM    8  O   UNL     1      43.715 -15.525   1.923  1.00  0.00    -0.266 OA
HETATM    9  H   UNL     1      41.882 -15.944   4.490  1.00  0.00     0.184 HD
BRANCH   7  10
HETATM   10  C   UNL     1      43.520 -17.503   3.194  1.00  0.00     0.033 A 
HETATM   11  C   UNL     1      44.028 -17.973   4.410  1.00  0.00     0.019 A 
HETATM   12  C   UNL     1      44.205 -19.348   4.609  1.00  0.00     0.024 A 
HETATM   13  C   UNL     1      43.929 -20.263   3.589  1.00  0.00     0.005 A 
HETATM   14  C   UNL     1      43.387 -19.789   2.393  1.00  0.00     0.024 A 
HETATM   15  C   UNL     1      43.207 -18.419   2.183  1.00  0.00     0.019 A 
BRANCH  13  16
HETATM   16  N   UNL     1      43.977 -21.637   3.845  1.00  0.00    -0.303 NA
HETATM   17  H   UNL     1      44.759 -21.923   4.425  1.00  0.00     0.124 HD
HETATM   18  H   UNL     1      43.893 -22.211   3.010  1.00  0.00     0.124 HD
ENDBRANCH  13  16
ENDBRANCH   7  10
ENDBRANCH   4   6
ENDBRANCH   2   4
BRANCH   3  19
HETATM   19  C   UNL     1      39.912 -14.948   1.476  1.00  0.00     0.242 C 
HETATM   20  N   UNL     1      39.593 -14.231   0.347  1.00  0.00    -0.357 N 
HETATM   21  H   UNL     1      39.142 -13.331   0.435  1.00  0.00     0.162 HD
HETATM   22  O   UNL     1      40.355 -16.089   1.470  1.00  0.00    -0.269 OA
BRANCH  20  23
HETATM   23  C   UNL     1      39.623 -14.854  -0.970  1.00  0.00     0.127 C 
BRANCH  23  24
HETATM   24  C   UNL     1      38.669 -14.153  -1.956  1.00  0.00     0.058 C 
BRANCH  24  25
HETATM   25  C   UNL     1      39.133 -12.809  -2.474  1.00  0.00    -0.054 A 
HETATM   26  C   UNL     1      38.264 -11.709  -2.499  1.00  0.00     0.046 A 
HETATM   27  C   UNL     1      38.696 -10.443  -2.912  1.00  0.00     0.102 A 
HETATM   28  C   UNL     1      40.035 -10.264  -3.307  1.00  0.00     0.101 A 
HETATM   29  C   UNL     1      40.912 -11.352  -3.264  1.00  0.00     0.040 A 
HETATM   30  C   UNL     1      40.465 -12.612  -2.847  1.00  0.00     0.010 A 
BRANCH  27  31
HETATM   31  O   UNL     1      37.887  -9.334  -2.968  1.00  0.00    -0.353 OA
HETATM   32  C   UNL     1      36.710  -9.435  -3.761  1.00  0.00     0.210 C 
ENDBRANCH  27  31
BRANCH  28  33
HETATM   33  O   UNL     1      40.383  -8.994  -3.695  1.00  0.00    -0.353 OA
HETATM   34  C   UNL     1      41.515  -8.403  -3.077  1.00  0.00     0.210 C 
ENDBRANCH  28  33
ENDBRANCH  24  25
ENDBRANCH  23  24
ENDBRANCH  20  23
ENDBRANCH   3  19
TORSDOF 10
ENDMDL
MODEL 7
REMARK VINA RESULT:      -7.7      2.822     11.644
REMARK  10 active torsions:
REMARK  status: ('A' for Active; 'I' for Inactive)
REMARK    1  A    between atoms: C_2  and  N_3 
REMARK    2  A    between atoms: N_3  and  N_4 
REMARK       I    between atoms: N_4  and  C_5 
REMARK    3  A    between atoms: C_5  and  C_6 
REMARK    4  A    between atoms: C_9  and  N_10 
REMARK    5  A    between atoms: C_14  and  C_15 
REMARK       I    between atoms: C_15  and  N_16 
REMARK    6  A    between atoms: N_16  and  C_17 
REMARK    7  A    between atoms: C_17  and  C_18 
REMARK    8  A    between atoms: C_18  and  C_19 
REMARK    9  A    between atoms: C_21  and  O_22 
REMARK   10  A    between atoms: C_24  and  O_25 
ROOT
HETATM    1  C   UNL     1      45.354 -11.305   6.095  1.00  0.00     0.063 C 
HETATM    2  C   UNL     1      44.813 -11.412   7.502  1.00  0.00     0.007 C 
HETATM    3  C   UNL     1      45.196 -10.510   8.429  1.00  0.00     0.094 C 
ENDROOT
BRANCH   2   4
HETATM    4  N   UNL     1      43.897 -12.436   7.716  1.00  0.00    -0.207 NA
HETATM    5  H   UNL     1      44.104 -12.968   8.585  1.00  0.00     0.152 HD
BRANCH   4   6
HETATM    6  N   UNL     1      43.599 -13.333   6.666  1.00  0.00    -0.283 N 
HETATM    7  C   UNL     1      43.379 -14.655   7.032  1.00  0.00     0.266 C 
HETATM    8  O   UNL     1      43.206 -15.020   8.192  1.00  0.00    -0.266 OA
HETATM    9  H   UNL     1      44.033 -13.124   5.775  1.00  0.00     0.184 HD
BRANCH   7  10
HETATM   10  C   UNL     1      43.441 -15.657   5.933  1.00  0.00     0.033 A 
HETATM   11  C   UNL     1      42.821 -15.454   4.695  1.00  0.00     0.019 A 
HETATM   12  C   UNL     1      42.947 -16.415   3.684  1.00  0.00     0.024 A 
HETATM   13  C   UNL     1      43.645 -17.606   3.908  1.00  0.00     0.005 A 
HETATM   14  C   UNL     1      44.292 -17.783   5.131  1.00  0.00     0.024 A 
HETATM   15  C   UNL     1      44.172 -16.831   6.148  1.00  0.00     0.019 A 
BRANCH  13  16
HETATM   16  N   UNL     1      43.881 -18.492   2.851  1.00  0.00    -0.303 NA
HETATM   17  H   UNL     1      44.864 -18.645   2.651  1.00  0.00     0.124 HD
HETATM   18  H   UNL     1      43.350 -18.275   2.011  1.00  0.00     0.124 HD
ENDBRANCH  13  16
ENDBRANCH   7  10
ENDBRANCH   4   6
ENDBRANCH   2   4
BRANCH   3  19
HETATM   19  C   UNL     1      44.697 -10.561   9.824  1.00  0.00     0.242 C 
HETATM   20  N   UNL     1      43.414 -10.085   9.962  1.00  0.00    -0.357 N 
HETATM   21  H   UNL     1      42.934  -9.697   9.163  1.00  0.00     0.162 HD
HETATM   22  O   UNL     1      45.396 -10.947  10.751  1.00  0.00    -0.269 OA
BRANCH  20  23
HETATM   23  C   UNL     1      42.836  -9.863  11.282  1.00  0.00     0.127 C 
BRANCH  23  24
HETATM   24  C   UNL     1      43.445  -8.626  11.971  1.00  0.00     0.058 C 
BRANCH  24  25
HETATM   25  C   UNL     1      42.694  -8.114  13.180  1.00  0.00    -0.054 A 
HETATM   26  C   UNL     1      42.509  -6.738  13.383  1.00  0.00     0.046 A 
HETATM   27  C   UNL     1      41.759  -6.251  14.461  1.00  0.00     0.102 A 
HETATM   28  C   UNL     1      41.171  -7.157  15.361  1.00  0.00     0.101 A 
HETATM   29  C   UNL     1      41.334  -8.531  15.153  1.00  0.00     0.040 A 
HETATM   30  C   UNL     1      42.084  -9.004  14.070  1.00  0.00     0.010 A 
BRANCH  27  31
HETATM   31  O   UNL     1      41.556  -4.916  14.714  1.00  0.00    -0.353 OA
HETATM   32  C   UNL     1      41.363  -4.067  13.588  1.00  0.00     0.210 C 
ENDBRANCH  27  31
BRANCH  28  33
HETATM   33  O   UNL     1      40.450  -6.603  16.389  1.00  0.00    -0.353 OA
HETATM   34  C   UNL     1      40.513  -7.239  17.656  1.00  0.00     0.210 C 
ENDBRANCH  28  33
ENDBRANCH  24  25
ENDBRANCH  23  24
ENDBRANCH  20  23
ENDBRANCH   3  19
TORSDOF 10
ENDMDL
MODEL 8
REMARK VINA RESULT:      -7.5      5.131      9.601
REMARK  10 active torsions:
REMARK  status: ('A' for Active; 'I' for Inactive)
REMARK    1  A    between atoms: C_2  and  N_3 
REMARK    2  A    between atoms: N_3  and  N_4 
REMARK       I    between atoms: N_4  and  C_5 
REMARK    3  A    between atoms: C_5  and  C_6 
REMARK    4  A    between atoms: C_9  and  N_10 
REMARK    5  A    between atoms: C_14  and  C_15 
REMARK       I    between atoms: C_15  and  N_16 
REMARK    6  A    between atoms: N_16  and  C_17 
REMARK    7  A    between atoms: C_17  and  C_18 
REMARK    8  A    between atoms: C_18  and  C_19 
REMARK    9  A    between atoms: C_21  and  O_22 
REMARK   10  A    between atoms: C_24  and  O_25 
ROOT
HETATM    1  C   UNL     1      44.238 -13.230   6.902  1.00  0.00     0.063 C 
HETATM    2  C   UNL     1      43.200 -12.992   5.831  1.00  0.00     0.007 C 
HETATM    3  C   UNL     1      43.117 -11.777   5.250  1.00  0.00     0.094 C 
ENDROOT
BRANCH   2   4
HETATM    4  N   UNL     1      42.425 -14.094   5.490  1.00  0.00    -0.207 NA
HETATM    5  H   UNL     1      41.594 -14.192   6.107  1.00  0.00     0.152 HD
BRANCH   4   6
HETATM    6  N   UNL     1      43.043 -15.352   5.318  1.00  0.00    -0.283 N 
HETATM    7  C   UNL     1      43.172 -15.799   4.009  1.00  0.00     0.266 C 
HETATM    8  O   UNL     1      42.996 -15.085   3.025  1.00  0.00    -0.266 OA
HETATM    9  H   UNL     1      42.893 -16.020   6.065  1.00  0.00     0.184 HD
BRANCH   7  10
HETATM   10  C   UNL     1      43.465 -17.250   3.839  1.00  0.00     0.033 A 
HETATM   11  C   UNL     1      44.014 -18.031   4.861  1.00  0.00     0.019 A 
HETATM   12  C   UNL     1      44.231 -19.399   4.656  1.00  0.00     0.024 A 
HETATM   13  C   UNL     1      43.952 -19.993   3.422  1.00  0.00     0.005 A 
HETATM   14  C   UNL     1      43.368 -19.216   2.421  1.00  0.00     0.024 A 
HETATM   15  C   UNL     1      43.149 -17.849   2.614  1.00  0.00     0.019 A 
BRANCH  13  16
HETATM   16  N   UNL     1      44.042 -21.382   3.275  1.00  0.00    -0.303 NA
HETATM   17  H   UNL     1      44.055 -21.695   2.309  1.00  0.00     0.124 HD
HETATM   18  H   UNL     1      43.365 -21.895   3.833  1.00  0.00     0.124 HD
ENDBRANCH  13  16
ENDBRANCH   7  10
ENDBRANCH   4   6
ENDBRANCH   2   4
BRANCH   3  19
HETATM   19  C   UNL     1      42.121 -11.483   4.190  1.00  0.00     0.242 C 
HETATM   20  N   UNL     1      42.236 -12.301   3.091  1.00  0.00    -0.357 N 
HETATM   21  H   UNL     1      42.985 -12.978   3.045  1.00  0.00     0.162 HD
HETATM   22  O   UNL     1      41.320 -10.564   4.289  1.00  0.00    -0.269 OA
BRANCH  20  23
HETATM   23  C   UNL     1      41.487 -12.026   1.871  1.00  0.00     0.127 C 
BRANCH  23  24
HETATM   24  C   UNL     1      40.153 -12.797   1.833  1.00  0.00     0.058 C 
BRANCH  24  25
HETATM   25  C   UNL     1      39.590 -13.064   0.455  1.00  0.00    -0.054 A 
HETATM   26  C   UNL     1      38.876 -12.074  -0.234  1.00  0.00     0.046 A 
HETATM   27  C   UNL     1      38.406 -12.282  -1.537  1.00  0.00     0.102 A 
HETATM   28  C   UNL     1      38.657 -13.510  -2.176  1.00  0.00     0.101 A 
HETATM   29  C   UNL     1      39.387 -14.495  -1.501  1.00  0.00     0.040 A 
HETATM   30  C   UNL     1      39.852 -14.271  -0.200  1.00  0.00     0.010 A 
BRANCH  27  31
HETATM   31  O   UNL     1      37.692 -11.353  -2.255  1.00  0.00    -0.353 OA
HETATM   32  C   UNL     1      38.440 -10.365  -2.955  1.00  0.00     0.210 C 
ENDBRANCH  27  31
BRANCH  28  33
HETATM   33  O   UNL     1      38.167 -13.638  -3.452  1.00  0.00    -0.353 OA
HETATM   34  C   UNL     1      38.021 -14.949  -3.974  1.00  0.00     0.210 C 
ENDBRANCH  28  33
ENDBRANCH  24  25
ENDBRANCH  23  24
ENDBRANCH  20  23
ENDBRANCH   3  19
TORSDOF 10
ENDMDL
MODEL 9
REMARK VINA RESULT:      -7.5      3.819      5.982
REMARK  10 active torsions:
REMARK  status: ('A' for Active; 'I' for Inactive)
REMARK    1  A    between atoms: C_2  and  N_3 
REMARK    2  A    between atoms: N_3  and  N_4 
REMARK       I    between atoms: N_4  and  C_5 
REMARK    3  A    between atoms: C_5  and  C_6 
REMARK    4  A    between atoms: C_9  and  N_10 
REMARK    5  A    between atoms: C_14  and  C_15 
REMARK       I    between atoms: C_15  and  N_16 
REMARK    6  A    between atoms: N_16  and  C_17 
REMARK    7  A    between atoms: C_17  and  C_18 
REMARK    8  A    between atoms: C_18  and  C_19 
REMARK    9  A    between atoms: C_21  and  O_22 
REMARK   10  A    between atoms: C_24  and  O_25 
ROOT
HETATM    1  C   UNL     1      40.804  -9.120   0.547  1.00  0.00     0.063 C 
HETATM    2  C   UNL     1      40.916 -10.488   1.177  1.00  0.00     0.007 C 
HETATM    3  C   UNL     1      39.812 -11.257   1.287  1.00  0.00     0.094 C 
ENDROOT
BRANCH   2   4
HETATM    4  N   UNL     1      42.196 -10.872   1.557  1.00  0.00    -0.207 NA
HETATM    5  H   UNL     1      42.400 -11.859   1.300  1.00  0.00     0.152 HD
BRANCH   4   6
HETATM    6  N   UNL     1      42.633 -10.622   2.877  1.00  0.00    -0.283 N 
HETATM    7  C   UNL     1      43.284 -11.669   3.517  1.00  0.00     0.266 C 
HETATM    8  O   UNL     1      43.688 -12.675   2.939  1.00  0.00    -0.266 OA
HETATM    9  H   UNL     1      42.060  -9.983   3.415  1.00  0.00     0.184 HD
BRANCH   7  10
HETATM   10  C   UNL     1      43.407 -11.556   4.997  1.00  0.00     0.033 A 
HETATM   11  C   UNL     1      44.266 -12.369   5.745  1.00  0.00     0.019 A 
HETATM   12  C   UNL     1      44.369 -12.190   7.129  1.00  0.00     0.024 A 
HETATM   13  C   UNL     1      43.586 -11.240   7.791  1.00  0.00     0.005 A 
HETATM   14  C   UNL     1      42.760 -10.408   7.034  1.00  0.00     0.024 A 
HETATM   15  C   UNL     1      42.648 -10.578   5.651  1.00  0.00     0.019 A 
BRANCH  13  16
HETATM   16  N   UNL     1      43.798 -10.976   9.149  1.00  0.00    -0.303 NA
HETATM   17  H   UNL     1      44.616 -10.406   9.336  1.00  0.00     0.124 HD
HETATM   18  H   UNL     1      43.769 -11.807   9.734  1.00  0.00     0.124 HD
ENDBRANCH  13  16
ENDBRANCH   7  10
ENDBRANCH   4   6
ENDBRANCH   2   4
BRANCH   3  19
HETATM   19  C   UNL     1      39.859 -12.610   1.893  1.00  0.00     0.242 C 
HETATM   20  N   UNL     1      40.879 -13.392   1.404  1.00  0.00    -0.357 N 
HETATM   21  H   UNL     1      41.469 -13.042   0.662  1.00  0.00     0.162 HD
HETATM   22  O   UNL     1      39.028 -12.986   2.709  1.00  0.00    -0.269 OA
BRANCH  20  23
HETATM   23  C   UNL     1      40.954 -14.812   1.724  1.00  0.00     0.127 C 
BRANCH  23  24
HETATM   24  C   UNL     1      42.374 -15.371   1.516  1.00  0.00     0.058 C 
BRANCH  24  25
HETATM   25  C   UNL     1      42.852 -16.354   2.562  1.00  0.00    -0.054 A 
HETATM   26  C   UNL     1      43.014 -17.712   2.253  1.00  0.00     0.046 A 
HETATM   27  C   UNL     1      43.519 -18.621   3.190  1.00  0.00     0.102 A 
HETATM   28  C   UNL     1      43.879 -18.167   4.472  1.00  0.00     0.101 A 
HETATM   29  C   UNL     1      43.741 -16.809   4.780  1.00  0.00     0.040 A 
HETATM   30  C   UNL     1      43.236 -15.911   3.831  1.00  0.00     0.010 A 
BRANCH  27  31
HETATM   31  O   UNL     1      43.686 -19.963   2.947  1.00  0.00    -0.353 OA
HETATM   32  C   UNL     1      43.570 -20.392   1.595  1.00  0.00     0.210 C 
ENDBRANCH  27  31
BRANCH  28  33
HETATM   33  O   UNL     1      44.369 -19.117   5.333  1.00  0.00    -0.353 OA
HETATM   34  C   UNL     1      43.534 -19.529   6.404  1.00  0.00     0.210 C 
ENDBRANCH  28  33
ENDBRANCH  24  25
ENDBRANCH  23  24
ENDBRANCH  20  23
ENDBRANCH   3  19
TORSDOF 10
ENDMDL
MODEL 10
REMARK VINA RESULT:      -7.5      3.920      6.495
REMARK  10 active torsions:
REMARK  status: ('A' for Active; 'I' for Inactive)
REMARK    1  A    between atoms: C_2  and  N_3 
REMARK    2  A    between atoms: N_3  and  N_4 
REMARK       I    between atoms: N_4  and  C_5 
REMARK    3  A    between atoms: C_5  and  C_6 
REMARK    4  A    between atoms: C_9  and  N_10 
REMARK    5  A    between atoms: C_14  and  C_15 
REMARK       I    between atoms: C_15  and  N_16 
REMARK    6  A    between atoms: N_16  and  C_17 
REMARK    7  A    between atoms: C_17  and  C_18 
REMARK    8  A    between atoms: C_18  and  C_19 
REMARK    9  A    between atoms: C_21  and  O_22 
REMARK   10  A    between atoms: C_24  and  O_25 
ROOT
HETATM    1  C   UNL     1      40.298  -8.963   1.215  1.00  0.00     0.063 C 
HETATM    2  C   UNL     1      40.577 -10.421   0.935  1.00  0.00     0.007 C 
HETATM    3  C   UNL     1      39.605 -11.190   0.403  1.00  0.00     0.094 C 
ENDROOT
BRANCH   2   4
HETATM    4  N   UNL     1      41.870 -10.849   1.212  1.00  0.00    -0.207 NA
HETATM    5  H   UNL     1      42.016 -11.844   0.949  1.00  0.00     0.152 HD
BRANCH   4   6
HETATM    6  N   UNL     1      42.425 -10.606   2.488  1.00  0.00    -0.283 N 
HETATM    7  C   UNL     1      42.931 -11.712   3.159  1.00  0.00     0.266 C 
HETATM    8  O   UNL     1      43.126 -12.801   2.625  1.00  0.00    -0.266 OA
HETATM    9  H   UNL     1      42.000  -9.851   3.014  1.00  0.00     0.184 HD
BRANCH   7  10
HETATM   10  C   UNL     1      43.163 -11.542   4.620  1.00  0.00     0.033 A 
HETATM   11  C   UNL     1      42.264 -10.865   5.451  1.00  0.00     0.019 A 
HETATM   12  C   UNL     1      42.515 -10.771   6.824  1.00  0.00     0.024 A 
HETATM   13  C   UNL     1      43.683 -11.303   7.379  1.00  0.00     0.005 A 
HETATM   14  C   UNL     1      44.556 -12.010   6.551  1.00  0.00     0.024 A 
HETATM   15  C   UNL     1      44.315 -12.109   5.177  1.00  0.00     0.019 A 
BRANCH  13  16
HETATM   16  N   UNL     1      43.856 -11.325   8.767  1.00  0.00    -0.303 NA
HETATM   17  H   UNL     1      43.261 -10.673   9.268  1.00  0.00     0.124 HD
HETATM   18  H   UNL     1      44.827 -11.257   9.058  1.00  0.00     0.124 HD
ENDBRANCH  13  16
ENDBRANCH   7  10
ENDBRANCH   4   6
ENDBRANCH   2   4
BRANCH   3  19
HETATM   19  C   UNL     1      39.820 -12.627   0.103  1.00  0.00     0.242 C 
HETATM   20  N   UNL     1      40.204 -13.362   1.199  1.00  0.00    -0.357 N 
HETATM   21  H   UNL     1      40.365 -12.899   2.083  1.00  0.00     0.162 HD
HETATM   22  O   UNL     1      39.708 -13.077  -1.029  1.00  0.00    -0.269 OA
BRANCH  20  23
HETATM   23  C   UNL     1      40.662 -14.738   1.054  1.00  0.00     0.127 C 
BRANCH  23  24
HETATM   24  C   UNL     1      40.201 -15.621   2.231  1.00  0.00     0.058 C 
BRANCH  24  25
HETATM   25  C   UNL     1      41.223 -15.844   3.323  1.00  0.00    -0.054 A 
HETATM   26  C   UNL     1      42.233 -16.805   3.177  1.00  0.00     0.046 A 
HETATM   27  C   UNL     1      43.227 -16.977   4.149  1.00  0.00     0.102 A 
HETATM   28  C   UNL     1      43.219 -16.166   5.299  1.00  0.00     0.101 A 
HETATM   29  C   UNL     1      42.226 -15.191   5.441  1.00  0.00     0.040 A 
HETATM   30  C   UNL     1      41.240 -15.029   4.459  1.00  0.00     0.010 A 
BRANCH  27  31
HETATM   31  O   UNL     1      44.232 -17.910   4.064  1.00  0.00    -0.353 OA
HETATM   32  C   UNL     1      44.015 -19.014   3.194  1.00  0.00     0.210 C 
ENDBRANCH  27  31
BRANCH  28  33
HETATM   33  O   UNL     1      44.226 -16.393   6.203  1.00  0.00    -0.353 OA
HETATM   34  C   UNL     1      43.859 -16.824   7.504  1.00  0.00     0.210 C 
ENDBRANCH  28  33
ENDBRANCH  24  25
ENDBRANCH  23  24
ENDBRANCH  20  23
ENDBRANCH   3  19
TORSDOF 10
ENDMDL
