MODEL 1
REMARK VINA RESULT:      -8.6      0.000      0.000
REMARK  5 active torsions:
REMARK  status: ('A' for Active; 'I' for Inactive)
REMARK    1  A    between atoms: C_8  and  C_9 
REMARK    2  A    between atoms: C_9  and  N_10 
REMARK       I    between atoms: N_10  and  C_11 
REMARK    3  A    between atoms: C_11  and  C_12 
REMARK    4  A    between atoms: C_13  and  O_14 
REMARK    5  A    between atoms: O_14  and  C_15 
ROOT
HETATM    1  C   UNL     1      43.183 -15.925   3.821  1.00  0.00     0.066 A 
HETATM    2  C   UNL     1      43.532 -16.303   5.124  1.00  0.00     0.091 A 
HETATM    3  C   UNL     1      43.859 -17.632   5.415  1.00  0.00     0.050 A 
HETATM    4  C   UNL     1      43.795 -18.616   4.417  1.00  0.00    -0.023 A 
HETATM    5  C   UNL     1      43.410 -18.251   3.107  1.00  0.00    -0.025 A 
HETATM    6  C   UNL     1      43.106 -16.908   2.825  1.00  0.00     0.032 A 
HETATM    7  C   UNL     1      44.102 -19.957   4.697  1.00  0.00     0.012 A 
HETATM    8  C   UNL     1      44.028 -20.928   3.697  1.00  0.00     0.001 A 
HETATM    9  C   UNL     1      43.649 -20.569   2.406  1.00  0.00     0.001 A 
HETATM   10  C   UNL     1      43.342 -19.240   2.113  1.00  0.00     0.012 A 
ENDROOT
BRANCH   1  11
HETATM   11  C   UNL     1      42.839 -14.526   3.438  1.00  0.00     0.254 C 
HETATM   12  N   UNL     1      41.837 -13.924   4.160  1.00  0.00    -0.352 N 
HETATM   13  H   UNL     1      41.472 -14.394   4.981  1.00  0.00     0.163 HD
HETATM   14  O   UNL     1      43.440 -13.982   2.520  1.00  0.00    -0.268 OA
BRANCH  12  15
HETATM   15  C   UNL     1      41.431 -12.556   3.941  1.00  0.00     0.165 C 
BRANCH  15  16
HETATM   16  C   UNL     1      41.653 -11.788   5.194  1.00  0.00     0.009 A 
HETATM   17  C   UNL     1      40.708 -11.356   6.108  1.00  0.00     0.034 A 
HETATM   18  C   UNL     1      39.233 -11.495   6.140  1.00  0.00     0.070 C 
HETATM   19  N   UNL     1      41.401 -10.701   7.085  1.00  0.00    -0.282 N 
HETATM   20  H   UNL     1      41.035 -10.251   7.917  1.00  0.00     0.189 HD
HETATM   21  N   UNL     1      42.725 -10.675   6.882  1.00  0.00    -0.179 NA
HETATM   22  C   UNL     1      42.891 -11.332   5.729  1.00  0.00     0.060 A 
HETATM   23  C   UNL     1      44.252 -11.506   5.163  1.00  0.00     0.073 C 
ENDBRANCH  15  16
ENDBRANCH  12  15
ENDBRANCH   1  11
BRANCH   2  24
HETATM   24  O   UNL     1      43.613 -15.392   6.145  1.00  0.00    -0.289 OA
BRANCH  24  25
HETATM   25  C   UNL     1      42.899 -15.873   7.283  1.00  0.00     0.505 C 
HETATM   26  F   UNL     1      43.100 -15.014   8.311  1.00  0.00    -0.184 F 
HETATM   27  F   UNL     1      41.578 -15.812   6.975  1.00  0.00    -0.184 F 
ENDBRANCH  24  25
ENDBRANCH   2  24
TORSDOF 5
ENDMDL
MODEL 2
REMARK VINA RESULT:      -8.3      2.308      3.303
REMARK  5 active torsions:
REMARK  status: ('A' for Active; 'I' for Inactive)
REMARK    1  A    between atoms: C_8  and  C_9 
REMARK    2  A    between atoms: C_9  and  N_10 
REMARK       I    between atoms: N_10  and  C_11 
REMARK    3  A    between atoms: C_11  and  C_12 
REMARK    4  A    between atoms: C_13  and  O_14 
REMARK    5  A    between atoms: O_14  and  C_15 
ROOT
HETATM    1  C   UNL     1      42.883 -15.981   3.970  1.00  0.00     0.066 A 
HETATM    2  C   UNL     1      43.348 -16.357   5.237  1.00  0.00     0.091 A 
HETATM    3  C   UNL     1      43.806 -17.658   5.469  1.00  0.00     0.050 A 
HETATM    4  C   UNL     1      43.761 -18.622   4.451  1.00  0.00    -0.023 A 
HETATM    5  C   UNL     1      43.260 -18.262   3.179  1.00  0.00    -0.025 A 
HETATM    6  C   UNL     1      42.825 -16.945   2.954  1.00  0.00     0.032 A 
HETATM    7  C   UNL     1      44.199 -19.936   4.673  1.00  0.00     0.012 A 
HETATM    8  C   UNL     1      44.143 -20.887   3.653  1.00  0.00     0.001 A 
HETATM    9  C   UNL     1      43.650 -20.535   2.399  1.00  0.00     0.001 A 
HETATM   10  C   UNL     1      43.212 -19.231   2.163  1.00  0.00     0.012 A 
ENDROOT
BRANCH   1  11
HETATM   11  C   UNL     1      42.396 -14.609   3.649  1.00  0.00     0.254 C 
HETATM   12  N   UNL     1      41.081 -14.502   3.266  1.00  0.00    -0.352 N 
HETATM   13  H   UNL     1      40.480 -15.315   3.338  1.00  0.00     0.163 HD
HETATM   14  O   UNL     1      43.163 -13.657   3.732  1.00  0.00    -0.268 OA
BRANCH  12  15
HETATM   15  C   UNL     1      40.455 -13.234   2.976  1.00  0.00     0.165 C 
BRANCH  15  16
HETATM   16  C   UNL     1      40.692 -12.903   1.546  1.00  0.00     0.009 A 
HETATM   17  C   UNL     1      40.472 -13.703   0.437  1.00  0.00     0.034 A 
HETATM   18  C   UNL     1      39.965 -15.089   0.309  1.00  0.00     0.070 C 
HETATM   19  N   UNL     1      40.838 -12.955  -0.645  1.00  0.00    -0.282 N 
HETATM   20  H   UNL     1      40.813 -13.218  -1.624  1.00  0.00     0.189 HD
HETATM   21  N   UNL     1      41.276 -11.729  -0.329  1.00  0.00    -0.179 NA
HETATM   22  C   UNL     1      41.195 -11.686   1.005  1.00  0.00     0.060 A 
HETATM   23  C   UNL     1      41.609 -10.462   1.735  1.00  0.00     0.073 C 
ENDBRANCH  15  16
ENDBRANCH  12  15
ENDBRANCH   1  11
BRANCH   2  24
HETATM   24  O   UNL     1      43.417 -15.465   6.276  1.00  0.00    -0.289 OA
BRANCH  24  25
HETATM   25  C   UNL     1      42.768 -16.006   7.425  1.00  0.00     0.505 C 
HETATM   26  F   UNL     1      43.051 -15.218   8.490  1.00  0.00    -0.184 F 
HETATM   27  F   UNL     1      41.432 -15.904   7.207  1.00  0.00    -0.184 F 
ENDBRANCH  24  25
ENDBRANCH   2  24
TORSDOF 5
ENDMDL
MODEL 3
REMARK VINA RESULT:      -8.1      4.195      5.618
REMARK  5 active torsions:
REMARK  status: ('A' for Active; 'I' for Inactive)
REMARK    1  A    between atoms: C_8  and  C_9 
REMARK    2  A    between atoms: C_9  and  N_10 
REMARK       I    between atoms: N_10  and  C_11 
REMARK    3  A    between atoms: C_11  and  C_12 
REMARK    4  A    between atoms: C_13  and  O_14 
REMARK    5  A    between atoms: O_14  and  C_15 
ROOT
HETATM    1  C   UNL     1      40.922 -15.577   2.220  1.00  0.00     0.066 A 
HETATM    2  C   UNL     1      40.930 -14.997   3.496  1.00  0.00     0.091 A 
HETATM    3  C   UNL     1      41.801 -15.467   4.484  1.00  0.00     0.050 A 
HETATM    4  C   UNL     1      42.647 -16.557   4.229  1.00  0.00    -0.023 A 
HETATM    5  C   UNL     1      42.621 -17.172   2.956  1.00  0.00    -0.025 A 
HETATM    6  C   UNL     1      41.756 -16.674   1.966  1.00  0.00     0.032 A 
HETATM    7  C   UNL     1      43.514 -17.052   5.215  1.00  0.00     0.012 A 
HETATM    8  C   UNL     1      44.345 -18.142   4.951  1.00  0.00     0.001 A 
HETATM    9  C   UNL     1      44.320 -18.747   3.698  1.00  0.00     0.001 A 
HETATM   10  C   UNL     1      43.464 -18.266   2.707  1.00  0.00     0.012 A 
ENDROOT
BRANCH   1  11
HETATM   11  C   UNL     1      40.031 -15.116   1.117  1.00  0.00     0.254 C 
HETATM   12  N   UNL     1      39.864 -13.758   0.994  1.00  0.00    -0.352 N 
HETATM   13  H   UNL     1      40.434 -13.139   1.558  1.00  0.00     0.163 HD
HETATM   14  O   UNL     1      39.494 -15.940   0.385  1.00  0.00    -0.268 OA
BRANCH  12  15
HETATM   15  C   UNL     1      39.075 -13.162  -0.058  1.00  0.00     0.165 C 
BRANCH  15  16
HETATM   16  C   UNL     1      39.932 -13.000  -1.262  1.00  0.00     0.009 A 
HETATM   17  C   UNL     1      40.940 -12.075  -1.473  1.00  0.00     0.034 A 
HETATM   18  C   UNL     1      41.467 -10.982  -0.623  1.00  0.00     0.070 C 
HETATM   19  N   UNL     1      41.431 -12.330  -2.721  1.00  0.00    -0.282 N 
HETATM   20  H   UNL     1      42.177 -11.849  -3.211  1.00  0.00     0.189 HD
HETATM   21  N   UNL     1      40.825 -13.353  -3.340  1.00  0.00    -0.179 NA
HETATM   22  C   UNL     1      39.907 -13.769  -2.460  1.00  0.00     0.060 A 
HETATM   23  C   UNL     1      39.015 -14.906  -2.799  1.00  0.00     0.073 C 
ENDBRANCH  15  16
ENDBRANCH  12  15
ENDBRANCH   1  11
BRANCH   2  24
HETATM   24  O   UNL     1      40.129 -13.931   3.811  1.00  0.00    -0.289 OA
BRANCH  24  25
HETATM   25  C   UNL     1      40.922 -12.866   4.333  1.00  0.00     0.505 C 
HETATM   26  F   UNL     1      41.658 -12.342   3.323  1.00  0.00    -0.184 F 
HETATM   27  F   UNL     1      40.062 -11.895   4.735  1.00  0.00    -0.184 F 
ENDBRANCH  24  25
ENDBRANCH   2  24
TORSDOF 5
ENDMDL
MODEL 4
REMARK VINA RESULT:      -8.0      2.318      3.584
REMARK  5 active torsions:
REMARK  status: ('A' for Active; 'I' for Inactive)
REMARK    1  A    between atoms: C_8  and  C_9 
REMARK    2  A    between atoms: C_9  and  N_10 
REMARK       I    between atoms: N_10  and  C_11 
REMARK    3  A    between atoms: C_11  and  C_12 
REMARK    4  A    between atoms: C_13  and  O_14 
REMARK    5  A    between atoms: O_14  and  C_15 
ROOT
HETATM    1  C   UNL     1      42.997 -16.002   4.337  1.00  0.00     0.066 A 
HETATM    2  C   UNL     1      42.809 -16.099   2.952  1.00  0.00     0.091 A 
HETATM    3  C   UNL     1      42.963 -17.326   2.298  1.00  0.00     0.050 A 
HETATM    4  C   UNL     1      43.357 -18.469   3.011  1.00  0.00    -0.023 A 
HETATM    5  C   UNL     1      43.585 -18.373   4.403  1.00  0.00    -0.025 A 
HETATM    6  C   UNL     1      43.403 -17.138   5.050  1.00  0.00     0.032 A 
HETATM    7  C   UNL     1      43.535 -19.703   2.367  1.00  0.00     0.012 A 
HETATM    8  C   UNL     1      43.933 -20.831   3.087  1.00  0.00     0.001 A 
HETATM    9  C   UNL     1      44.158 -20.738   4.458  1.00  0.00     0.001 A 
HETATM   10  C   UNL     1      43.984 -19.517   5.112  1.00  0.00     0.012 A 
ENDROOT
BRANCH   1  11
HETATM   11  C   UNL     1      42.834 -14.731   5.098  1.00  0.00     0.254 C 
HETATM   12  N   UNL     1      41.762 -13.944   4.751  1.00  0.00    -0.352 N 
HETATM   13  H   UNL     1      41.075 -14.308   4.101  1.00  0.00     0.163 HD
HETATM   14  O   UNL     1      43.639 -14.440   5.975  1.00  0.00    -0.268 OA
BRANCH  12  15
HETATM   15  C   UNL     1      41.445 -12.713   5.435  1.00  0.00     0.165 C 
BRANCH  15  16
HETATM   16  C   UNL     1      41.477 -11.601   4.449  1.00  0.00     0.009 A 
HETATM   17  C   UNL     1      42.549 -11.162   3.691  1.00  0.00     0.034 A 
HETATM   18  C   UNL     1      43.956 -11.620   3.621  1.00  0.00     0.070 C 
HETATM   19  N   UNL     1      42.080 -10.124   2.939  1.00  0.00    -0.282 N 
HETATM   20  H   UNL     1      42.587  -9.559   2.267  1.00  0.00     0.189 HD
HETATM   21  N   UNL     1      40.784  -9.853   3.143  1.00  0.00    -0.179 NA
HETATM   22  C   UNL     1      40.405 -10.745   4.064  1.00  0.00     0.060 A 
HETATM   23  C   UNL     1      39.005 -10.753   4.560  1.00  0.00     0.073 C 
ENDBRANCH  15  16
ENDBRANCH  12  15
ENDBRANCH   1  11
BRANCH   2  24
HETATM   24  O   UNL     1      42.424 -15.022   2.197  1.00  0.00    -0.289 OA
BRANCH  24  25
HETATM   25  C   UNL     1      41.293 -15.368   1.398  1.00  0.00     0.505 C 
HETATM   26  F   UNL     1      40.185 -15.313   2.177  1.00  0.00    -0.184 F 
HETATM   27  F   UNL     1      41.161 -14.395   0.461  1.00  0.00    -0.184 F 
ENDBRANCH  24  25
ENDBRANCH   2  24
TORSDOF 5
ENDMDL
MODEL 5
REMARK VINA RESULT:      -8.0      2.409      3.475
REMARK  5 active torsions:
REMARK  status: ('A' for Active; 'I' for Inactive)
REMARK    1  A    between atoms: C_8  and  C_9 
REMARK    2  A    between atoms: C_9  and  N_10 
REMARK       I    between atoms: N_10  and  C_11 
REMARK    3  A    between atoms: C_11  and  C_12 
REMARK    4  A    between atoms: C_13  and  O_14 
REMARK    5  A    between atoms: O_14  and  C_15 
ROOT
HETATM    1  C   UNL     1      42.590 -14.731   3.527  1.00  0.00     0.066 A 
HETATM    2  C   UNL     1      42.476 -15.187   2.208  1.00  0.00     0.091 A 
HETATM    3  C   UNL     1      42.769 -16.517   1.887  1.00  0.00     0.050 A 
HETATM    4  C   UNL     1      43.230 -17.403   2.872  1.00  0.00    -0.023 A 
HETATM    5  C   UNL     1      43.383 -16.943   4.201  1.00  0.00    -0.025 A 
HETATM    6  C   UNL     1      43.063 -15.610   4.512  1.00  0.00     0.032 A 
HETATM    7  C   UNL     1      43.547 -18.734   2.563  1.00  0.00     0.012 A 
HETATM    8  C   UNL     1      44.011 -19.604   3.552  1.00  0.00     0.001 A 
HETATM    9  C   UNL     1      44.162 -19.152   4.860  1.00  0.00     0.001 A 
HETATM   10  C   UNL     1      43.850 -17.831   5.183  1.00  0.00     0.012 A 
ENDROOT
BRANCH   1  11
HETATM   11  C   UNL     1      42.279 -13.334   3.942  1.00  0.00     0.254 C 
HETATM   12  N   UNL     1      43.348 -12.478   4.054  1.00  0.00    -0.352 N 
HETATM   13  H   UNL     1      44.260 -12.786   3.737  1.00  0.00     0.163 HD
HETATM   14  O   UNL     1      41.118 -13.010   4.165  1.00  0.00    -0.268 OA
BRANCH  12  15
HETATM   15  C   UNL     1      43.197 -11.083   4.394  1.00  0.00     0.165 C 
BRANCH  15  16
HETATM   16  C   UNL     1      43.254 -10.945   5.873  1.00  0.00     0.009 A 
HETATM   17  C   UNL     1      42.213 -10.677   6.746  1.00  0.00     0.034 A 
HETATM   18  C   UNL     1      40.770 -10.437   6.512  1.00  0.00     0.070 C 
HETATM   19  N   UNL     1      42.765 -10.653   7.994  1.00  0.00    -0.282 N 
HETATM   20  H   UNL     1      42.302 -10.485   8.880  1.00  0.00     0.189 HD
HETATM   21  N   UNL     1      44.085 -10.888   8.005  1.00  0.00    -0.179 NA
HETATM   22  C   UNL     1      44.395 -11.065   6.716  1.00  0.00     0.060 A 
HETATM   23  C   UNL     1      45.799 -11.346   6.322  1.00  0.00     0.073 C 
ENDBRANCH  15  16
ENDBRANCH  12  15
ENDBRANCH   1  11
BRANCH   2  24
HETATM   24  O   UNL     1      42.032 -14.374   1.198  1.00  0.00    -0.289 OA
BRANCH  24  25
HETATM   25  C   UNL     1      40.806 -14.878   0.671  1.00  0.00     0.505 C 
HETATM   26  F   UNL     1      39.851 -14.770   1.627  1.00  0.00    -0.184 F 
HETATM   27  F   UNL     1      40.441 -14.050  -0.340  1.00  0.00    -0.184 F 
ENDBRANCH  24  25
ENDBRANCH   2  24
TORSDOF 5
ENDMDL
MODEL 6
REMARK VINA RESULT:      -7.9      2.352      3.289
REMARK  5 active torsions:
REMARK  status: ('A' for Active; 'I' for Inactive)
REMARK    1  A    between atoms: C_8  and  C_9 
REMARK    2  A    between atoms: C_9  and  N_10 
REMARK       I    between atoms: N_10  and  C_11 
REMARK    3  A    between atoms: C_11  and  C_12 
REMARK    4  A    between atoms: C_13  and  O_14 
REMARK    5  A    between atoms: O_14  and  C_15 
ROOT
HETATM    1  C   UNL     1      42.535 -15.947   4.151  1.00  0.00     0.066 A 
HETATM    2  C   UNL     1      42.195 -16.143   2.806  1.00  0.00     0.091 A 
HETATM    3  C   UNL     1      42.432 -17.374   2.186  1.00  0.00     0.050 A 
HETATM    4  C   UNL     1      43.058 -18.416   2.885  1.00  0.00    -0.023 A 
HETATM    5  C   UNL     1      43.438 -18.216   4.232  1.00  0.00    -0.025 A 
HETATM    6  C   UNL     1      43.173 -16.982   4.850  1.00  0.00     0.032 A 
HETATM    7  C   UNL     1      43.320 -19.651   2.271  1.00  0.00     0.012 A 
HETATM    8  C   UNL     1      43.949 -20.678   2.977  1.00  0.00     0.001 A 
HETATM    9  C   UNL     1      44.324 -20.482   4.304  1.00  0.00     0.001 A 
HETATM   10  C   UNL     1      44.069 -19.260   4.928  1.00  0.00     0.012 A 
ENDROOT
BRANCH   1  11
HETATM   11  C   UNL     1      42.297 -14.668   4.878  1.00  0.00     0.254 C 
HETATM   12  N   UNL     1      41.009 -14.191   4.869  1.00  0.00    -0.352 N 
HETATM   13  H   UNL     1      40.271 -14.774   4.490  1.00  0.00     0.163 HD
HETATM   14  O   UNL     1      43.231 -14.103   5.436  1.00  0.00    -0.268 OA
BRANCH  12  15
HETATM   15  C   UNL     1      40.615 -12.994   5.574  1.00  0.00     0.165 C 
BRANCH  15  16
HETATM   16  C   UNL     1      40.826 -11.825   4.680  1.00  0.00     0.009 A 
HETATM   17  C   UNL     1      40.158 -11.516   3.507  1.00  0.00     0.034 A 
HETATM   18  C   UNL     1      39.073 -12.215   2.780  1.00  0.00     0.070 C 
HETATM   19  N   UNL     1      40.705 -10.350   3.057  1.00  0.00    -0.282 N 
HETATM   20  H   UNL     1      40.464  -9.826   2.223  1.00  0.00     0.189 HD
HETATM   21  N   UNL     1      41.677  -9.871   3.846  1.00  0.00    -0.179 NA
HETATM   22  C   UNL     1      41.762 -10.763   4.838  1.00  0.00     0.060 A 
HETATM   23  C   UNL     1      42.755 -10.573   5.925  1.00  0.00     0.073 C 
ENDBRANCH  15  16
ENDBRANCH  12  15
ENDBRANCH   1  11
BRANCH   2  24
HETATM   24  O   UNL     1      41.582 -15.167   2.066  1.00  0.00    -0.289 OA
BRANCH  24  25
HETATM   25  C   UNL     1      40.366 -15.668   1.512  1.00  0.00     0.505 C 
HETATM   26  F   UNL     1      39.433 -15.712   2.494  1.00  0.00    -0.184 F 
HETATM   27  F   UNL     1      39.938 -14.752   0.607  1.00  0.00    -0.184 F 
ENDBRANCH  24  25
ENDBRANCH   2  24
TORSDOF 5
ENDMDL
MODEL 7
REMARK VINA RESULT:      -7.4      3.531      4.477
REMARK  5 active torsions:
REMARK  status: ('A' for Active; 'I' for Inactive)
REMARK    1  A    between atoms: C_8  and  C_9 
REMARK    2  A    between atoms: C_9  and  N_10 
REMARK       I    between atoms: N_10  and  C_11 
REMARK    3  A    between atoms: C_11  and  C_12 
REMARK    4  A    between atoms: C_13  and  O_14 
REMARK    5  A    between atoms: O_14  and  C_15 
ROOT
HETATM    1  C   UNL     1      41.475 -15.168   2.846  1.00  0.00     0.066 A 
HETATM    2  C   UNL     1      42.088 -14.860   4.068  1.00  0.00     0.091 A 
HETATM    3  C   UNL     1      43.001 -15.747   4.648  1.00  0.00     0.050 A 
HETATM    4  C   UNL     1      43.280 -16.981   4.042  1.00  0.00    -0.023 A 
HETATM    5  C   UNL     1      42.639 -17.317   2.827  1.00  0.00    -0.025 A 
HETATM    6  C   UNL     1      41.742 -16.405   2.244  1.00  0.00     0.032 A 
HETATM    7  C   UNL     1      44.178 -17.890   4.621  1.00  0.00     0.012 A 
HETATM    8  C   UNL     1      44.442 -19.118   4.011  1.00  0.00     0.001 A 
HETATM    9  C   UNL     1      43.811 -19.449   2.815  1.00  0.00     0.001 A 
HETATM   10  C   UNL     1      42.916 -18.555   2.226  1.00  0.00     0.012 A 
ENDROOT
BRANCH   1  11
HETATM   11  C   UNL     1      40.507 -14.262   2.164  1.00  0.00     0.254 C 
HETATM   12  N   UNL     1      40.876 -13.795   0.926  1.00  0.00    -0.352 N 
HETATM   13  H   UNL     1      41.707 -14.174   0.485  1.00  0.00     0.163 HD
HETATM   14  O   UNL     1      39.453 -13.973   2.717  1.00  0.00    -0.268 OA
BRANCH  12  15
HETATM   15  C   UNL     1      40.020 -12.954   0.123  1.00  0.00     0.165 C 
BRANCH  15  16
HETATM   16  C   UNL     1      40.794 -11.758  -0.303  1.00  0.00     0.009 A 
HETATM   17  C   UNL     1      41.249 -11.444  -1.571  1.00  0.00     0.034 A 
HETATM   18  C   UNL     1      41.137 -12.160  -2.863  1.00  0.00     0.070 C 
HETATM   19  N   UNL     1      41.899 -10.249  -1.453  1.00  0.00    -0.282 N 
HETATM   20  H   UNL     1      42.362  -9.714  -2.180  1.00  0.00     0.189 HD
HETATM   21  N   UNL     1      41.900  -9.757  -0.207  1.00  0.00    -0.179 NA
HETATM   22  C   UNL     1      41.231 -10.670   0.505  1.00  0.00     0.060 A 
HETATM   23  C   UNL     1      41.029 -10.473   1.963  1.00  0.00     0.073 C 
ENDBRANCH  15  16
ENDBRANCH  12  15
ENDBRANCH   1  11
BRANCH   2  24
HETATM   24  O   UNL     1      41.860 -13.673   4.713  1.00  0.00    -0.289 OA
BRANCH  24  25
HETATM   25  C   UNL     1      42.982 -12.807   4.549  1.00  0.00     0.505 C 
HETATM   26  F   UNL     1      42.550 -11.524   4.629  1.00  0.00    -0.184 F 
HETATM   27  F   UNL     1      43.797 -13.012   5.615  1.00  0.00    -0.184 F 
ENDBRANCH  24  25
ENDBRANCH   2  24
TORSDOF 5
ENDMDL
MODEL 8
REMARK VINA RESULT:      -7.4      4.633      8.686
REMARK  5 active torsions:
REMARK  status: ('A' for Active; 'I' for Inactive)
REMARK    1  A    between atoms: C_8  and  C_9 
REMARK    2  A    between atoms: C_9  and  N_10 
REMARK       I    between atoms: N_10  and  C_11 
REMARK    3  A    between atoms: C_11  and  C_12 
REMARK    4  A    between atoms: C_13  and  O_14 
REMARK    5  A    between atoms: O_14  and  C_15 
ROOT
HETATM    1  C   UNL     1      43.207 -10.122   8.577  1.00  0.00     0.066 A 
HETATM    2  C   UNL     1      44.414 -10.233   9.279  1.00  0.00     0.091 A 
HETATM    3  C   UNL     1      44.556  -9.653  10.544  1.00  0.00     0.050 A 
HETATM    4  C   UNL     1      43.509  -8.909  11.109  1.00  0.00    -0.023 A 
HETATM    5  C   UNL     1      42.299  -8.761  10.392  1.00  0.00    -0.025 A 
HETATM    6  C   UNL     1      42.163  -9.369   9.132  1.00  0.00     0.032 A 
HETATM    7  C   UNL     1      43.642  -8.305  12.369  1.00  0.00     0.012 A 
HETATM    8  C   UNL     1      42.595  -7.562  12.916  1.00  0.00     0.001 A 
HETATM    9  C   UNL     1      41.403  -7.416  12.212  1.00  0.00     0.001 A 
HETATM   10  C   UNL     1      41.255  -8.011  10.958  1.00  0.00     0.012 A 
ENDROOT
BRANCH   1  11
HETATM   11  C   UNL     1      42.981 -10.728   7.234  1.00  0.00     0.254 C 
HETATM   12  N   UNL     1      43.126 -12.092   7.147  1.00  0.00    -0.352 N 
HETATM   13  H   UNL     1      43.249 -12.628   7.999  1.00  0.00     0.163 HD
HETATM   14  O   UNL     1      42.690 -10.010   6.284  1.00  0.00    -0.268 OA
BRANCH  12  15
HETATM   15  C   UNL     1      42.888 -12.825   5.927  1.00  0.00     0.165 C 
BRANCH  15  16
HETATM   16  C   UNL     1      41.836 -13.844   6.182  1.00  0.00     0.009 A 
HETATM   17  C   UNL     1      40.480 -13.755   5.918  1.00  0.00     0.034 A 
HETATM   18  C   UNL     1      39.660 -12.667   5.334  1.00  0.00     0.070 C 
HETATM   19  N   UNL     1      39.938 -14.940   6.325  1.00  0.00    -0.282 N 
HETATM   20  H   UNL     1      38.967 -15.230   6.285  1.00  0.00     0.189 HD
HETATM   21  N   UNL     1      40.835 -15.797   6.831  1.00  0.00    -0.179 NA
HETATM   22  C   UNL     1      41.996 -15.139   6.752  1.00  0.00     0.060 A 
HETATM   23  C   UNL     1      43.247 -15.778   7.234  1.00  0.00     0.073 C 
ENDBRANCH  15  16
ENDBRANCH  12  15
ENDBRANCH   1  11
BRANCH   2  24
HETATM   24  O   UNL     1      45.475 -10.944   8.785  1.00  0.00    -0.289 OA
BRANCH  24  25
HETATM   25  C   UNL     1      46.147 -10.181   7.783  1.00  0.00     0.505 C 
HETATM   26  F   UNL     1      46.683  -9.082   8.367  1.00  0.00    -0.184 F 
HETATM   27  F   UNL     1      47.185 -10.937   7.343  1.00  0.00    -0.184 F 
ENDBRANCH  24  25
ENDBRANCH   2  24
TORSDOF 5
ENDMDL
MODEL 9
REMARK VINA RESULT:      -7.2      2.528      3.223
REMARK  5 active torsions:
REMARK  status: ('A' for Active; 'I' for Inactive)
REMARK    1  A    between atoms: C_8  and  C_9 
REMARK    2  A    between atoms: C_9  and  N_10 
REMARK       I    between atoms: N_10  and  C_11 
REMARK    3  A    between atoms: C_11  and  C_12 
REMARK    4  A    between atoms: C_13  and  O_14 
REMARK    5  A    between atoms: O_14  and  C_15 
ROOT
HETATM    1  C   UNL     1      41.413 -15.504   3.616  1.00  0.00     0.066 A 
HETATM    2  C   UNL     1      42.015 -15.484   4.881  1.00  0.00     0.091 A 
HETATM    3  C   UNL     1      42.951 -16.460   5.238  1.00  0.00     0.050 A 
HETATM    4  C   UNL     1      43.265 -17.503   4.354  1.00  0.00    -0.023 A 
HETATM    5  C   UNL     1      42.635 -17.553   3.088  1.00  0.00    -0.025 A 
HETATM    6  C   UNL     1      41.714 -16.551   2.735  1.00  0.00     0.032 A 
HETATM    7  C   UNL     1      44.187 -18.502   4.704  1.00  0.00     0.012 A 
HETATM    8  C   UNL     1      44.486 -19.538   3.817  1.00  0.00     0.001 A 
HETATM    9  C   UNL     1      43.867 -19.587   2.571  1.00  0.00     0.001 A 
HETATM   10  C   UNL     1      42.948 -18.601   2.209  1.00  0.00     0.012 A 
ENDROOT
BRANCH   1  11
HETATM   11  C   UNL     1      40.421 -14.487   3.165  1.00  0.00     0.254 C 
HETATM   12  N   UNL     1      40.520 -13.241   3.737  1.00  0.00    -0.352 N 
HETATM   13  H   UNL     1      41.317 -13.033   4.327  1.00  0.00     0.163 HD
HETATM   14  O   UNL     1      39.576 -14.790   2.331  1.00  0.00    -0.268 OA
BRANCH  12  15
HETATM   15  C   UNL     1      39.664 -12.140   3.361  1.00  0.00     0.165 C 
BRANCH  15  16
HETATM   16  C   UNL     1      40.419 -11.243   2.447  1.00  0.00     0.009 A 
HETATM   17  C   UNL     1      41.353 -10.276   2.779  1.00  0.00     0.034 A 
HETATM   18  C   UNL     1      41.879  -9.825   4.088  1.00  0.00     0.070 C 
HETATM   19  N   UNL     1      41.762  -9.727   1.598  1.00  0.00    -0.282 N 
HETATM   20  H   UNL     1      42.441  -8.987   1.454  1.00  0.00     0.189 HD
HETATM   21  N   UNL     1      41.171 -10.262   0.521  1.00  0.00    -0.179 NA
HETATM   22  C   UNL     1      40.347 -11.186   1.026  1.00  0.00     0.060 A 
HETATM   23  C   UNL     1      39.499 -12.000   0.119  1.00  0.00     0.073 C 
ENDBRANCH  15  16
ENDBRANCH  12  15
ENDBRANCH   1  11
BRANCH   2  24
HETATM   24  O   UNL     1      41.752 -14.494   5.791  1.00  0.00    -0.289 OA
BRANCH  24  25
HETATM   25  C   UNL     1      42.972 -13.887   6.215  1.00  0.00     0.505 C 
HETATM   26  F   UNL     1      42.838 -12.542   6.121  1.00  0.00    -0.184 F 
HETATM   27  F   UNL     1      43.118 -14.174   7.534  1.00  0.00    -0.184 F 
ENDBRANCH  24  25
ENDBRANCH   2  24
TORSDOF 5
ENDMDL
MODEL 10
REMARK VINA RESULT:      -7.1     14.935     17.662
REMARK  5 active torsions:
REMARK  status: ('A' for Active; 'I' for Inactive)
REMARK    1  A    between atoms: C_8  and  C_9 
REMARK    2  A    between atoms: C_9  and  N_10 
REMARK       I    between atoms: N_10  and  C_11 
REMARK    3  A    between atoms: C_11  and  C_12 
REMARK    4  A    between atoms: C_13  and  O_14 
REMARK    5  A    between atoms: O_14  and  C_15 
ROOT
HETATM    1  C   UNL     1      44.347 -31.320  -3.159  1.00  0.00     0.066 A 
HETATM    2  C   UNL     1      44.239 -30.072  -3.787  1.00  0.00     0.091 A 
HETATM    3  C   UNL     1      44.050 -29.986  -5.170  1.00  0.00     0.050 A 
HETATM    4  C   UNL     1      44.015 -31.146  -5.958  1.00  0.00    -0.023 A 
HETATM    5  C   UNL     1      44.159 -32.409  -5.339  1.00  0.00    -0.025 A 
HETATM    6  C   UNL     1      44.325 -32.481  -3.945  1.00  0.00     0.032 A 
HETATM    7  C   UNL     1      43.844 -31.076  -7.350  1.00  0.00     0.012 A 
HETATM    8  C   UNL     1      43.818 -32.238  -8.123  1.00  0.00     0.001 A 
HETATM    9  C   UNL     1      43.960 -33.482  -7.515  1.00  0.00     0.001 A 
HETATM   10  C   UNL     1      44.129 -33.568  -6.132  1.00  0.00     0.012 A 
ENDROOT
BRANCH   1  11
HETATM   11  C   UNL     1      44.533 -31.485  -1.690  1.00  0.00     0.254 C 
HETATM   12  N   UNL     1      45.740 -31.074  -1.178  1.00  0.00    -0.352 N 
HETATM   13  H   UNL     1      46.385 -30.574  -1.779  1.00  0.00     0.163 HD
HETATM   14  O   UNL     1      43.634 -31.970  -1.014  1.00  0.00    -0.268 OA
BRANCH  12  15
HETATM   15  C   UNL     1      46.046 -31.122   0.233  1.00  0.00     0.165 C 
BRANCH  15  16
HETATM   16  C   UNL     1      46.642 -29.821   0.634  1.00  0.00     0.009 A 
HETATM   17  C   UNL     1      47.734 -29.175   0.080  1.00  0.00     0.034 A 
HETATM   18  C   UNL     1      48.638 -29.550  -1.032  1.00  0.00     0.070 C 
HETATM   19  N   UNL     1      47.886 -28.018   0.787  1.00  0.00    -0.282 N 
HETATM   20  H   UNL     1      48.586 -27.295   0.661  1.00  0.00     0.189 HD
HETATM   21  N   UNL     1      46.976 -27.855   1.758  1.00  0.00    -0.179 NA
HETATM   22  C   UNL     1      46.213 -28.950   1.676  1.00  0.00     0.060 A 
HETATM   23  C   UNL     1      45.078 -29.136   2.615  1.00  0.00     0.073 C 
ENDBRANCH  15  16
ENDBRANCH  12  15
ENDBRANCH   1  11
BRANCH   2  24
HETATM   24  O   UNL     1      44.266 -28.901  -3.076  1.00  0.00    -0.289 OA
BRANCH  24  25
HETATM   25  C   UNL     1      45.471 -28.191  -3.355  1.00  0.00     0.505 C 
HETATM   26  F   UNL     1      45.158 -27.064  -4.040  1.00  0.00    -0.184 F 
HETATM   27  F   UNL     1      45.981 -27.795  -2.161  1.00  0.00    -0.184 F 
ENDBRANCH  24  25
ENDBRANCH   2  24
TORSDOF 5
ENDMDL
