MODEL 1
REMARK VINA RESULT:      -7.9      0.000      0.000
REMARK  9 active torsions:
REMARK  status: ('A' for Active; 'I' for Inactive)
REMARK    1  A    between atoms: O_2  and  C_3 
REMARK    2  A    between atoms: C_6  and  C_7 
REMARK    3  A    between atoms: C_7  and  N_8 
REMARK       I    between atoms: N_8  and  C_9 
REMARK    4  A    between atoms: C_9  and  C_10 
REMARK    5  A    between atoms: C_10  and  S_11 
REMARK    6  A    between atoms: S_11  and  C_12 
REMARK    7  A    between atoms: N_13  and  C_14 
REMARK    8  A    between atoms: C_14  and  C_15 
REMARK    9  A    between atoms: C_21  and  C_22 
ROOT
HETATM    1  C   UNL     1      42.340 -11.803   3.581  1.00  0.00     0.192 A 
HETATM    2  N   UNL     1      42.539 -12.047   4.913  1.00  0.00    -0.307 N 
HETATM    3  C   UNL     1      43.885 -11.848   5.117  1.00  0.00     0.135 A 
HETATM    4  N   UNL     1      44.433 -11.430   3.995  1.00  0.00    -0.134 NA
HETATM    5  N   UNL     1      43.458 -11.401   3.028  1.00  0.00    -0.123 NA
ENDROOT
BRANCH   1   6
HETATM    6  S   UNL     1      40.841 -12.054   2.765  1.00  0.00    -0.081 SA
BRANCH   6   7
HETATM    7  C   UNL     1      41.365 -12.806   1.205  1.00  0.00     0.185 C 
BRANCH   7   8
HETATM    8  C   UNL     1      40.980 -14.259   0.971  1.00  0.00     0.227 C 
HETATM    9  N   UNL     1      41.662 -15.295   1.532  1.00  0.00    -0.356 N 
HETATM   10  H   UNL     1      41.239 -16.190   1.316  1.00  0.00     0.162 HD
HETATM   11  O   UNL     1      39.944 -14.539   0.359  1.00  0.00    -0.273 OA
BRANCH   9  12
HETATM   12  C   UNL     1      42.847 -15.284   2.359  1.00  0.00     0.161 C 
BRANCH  12  13
HETATM   13  C   UNL     1      43.251 -16.667   2.799  1.00  0.00    -0.040 A 
HETATM   14  C   UNL     1      43.940 -16.865   4.006  1.00  0.00     0.011 A 
HETATM   15  C   UNL     1      44.277 -18.153   4.438  1.00  0.00     0.037 A 
HETATM   16  C   UNL     1      43.916 -19.264   3.678  1.00  0.00     0.068 A 
HETATM   17  C   UNL     1      43.227 -19.072   2.479  1.00  0.00     0.037 A 
HETATM   18  C   UNL     1      42.896 -17.787   2.040  1.00  0.00     0.011 A 
BRANCH  16  19
HETATM   19  O   UNL     1      44.167 -20.571   3.991  1.00  0.00    -0.356 OA
HETATM   20  C   UNL     1      44.120 -20.923   5.368  1.00  0.00     0.210 C 
ENDBRANCH  16  19
ENDBRANCH  12  13
ENDBRANCH   9  12
ENDBRANCH   7   8
ENDBRANCH   6   7
ENDBRANCH   1   6
BRANCH   2  21
HETATM   21  C   UNL     1      41.582 -12.523   5.894  1.00  0.00     0.171 C 
BRANCH  21  22
HETATM   22  C   UNL     1      41.572 -14.023   6.091  1.00  0.00    -0.040 A 
HETATM   23  C   UNL     1      42.376 -14.678   7.037  1.00  0.00     0.009 A 
HETATM   24  C   UNL     1      42.319 -16.067   7.179  1.00  0.00     0.001 A 
HETATM   25  C   UNL     1      41.440 -16.817   6.401  1.00  0.00     0.000 A 
HETATM   26  C   UNL     1      40.612 -16.179   5.482  1.00  0.00     0.001 A 
HETATM   27  C   UNL     1      40.674 -14.793   5.330  1.00  0.00     0.009 A 
ENDBRANCH  21  22
ENDBRANCH   2  21
BRANCH   3  28
HETATM   28  C   UNL     1      44.657 -12.060   6.412  1.00  0.00     0.057 A 
HETATM   29  C   UNL     1      45.806 -11.121   6.715  1.00  0.00     0.013 A 
HETATM   30  C   UNL     1      44.538 -11.000   7.488  1.00  0.00     0.013 A 
ENDBRANCH   3  28
TORSDOF 9
ENDMDL
MODEL 2
REMARK VINA RESULT:      -7.8      3.056      6.906
REMARK  9 active torsions:
REMARK  status: ('A' for Active; 'I' for Inactive)
REMARK    1  A    between atoms: O_2  and  C_3 
REMARK    2  A    between atoms: C_6  and  C_7 
REMARK    3  A    between atoms: C_7  and  N_8 
REMARK       I    between atoms: N_8  and  C_9 
REMARK    4  A    between atoms: C_9  and  C_10 
REMARK    5  A    between atoms: C_10  and  S_11 
REMARK    6  A    between atoms: S_11  and  C_12 
REMARK    7  A    between atoms: N_13  and  C_14 
REMARK    8  A    between atoms: C_14  and  C_15 
REMARK    9  A    between atoms: C_21  and  C_22 
ROOT
HETATM    1  C   UNL     1      43.140 -17.041   6.343  1.00  0.00     0.192 A 
HETATM    2  N   UNL     1      43.362 -16.944   4.995  1.00  0.00    -0.307 N 
HETATM    3  C   UNL     1      43.724 -18.210   4.599  1.00  0.00     0.135 A 
HETATM    4  N   UNL     1      43.640 -19.024   5.631  1.00  0.00    -0.134 NA
HETATM    5  N   UNL     1      43.271 -18.286   6.728  1.00  0.00    -0.123 NA
ENDROOT
BRANCH   1   6
HETATM    6  S   UNL     1      42.800 -15.694   7.366  1.00  0.00    -0.081 SA
BRANCH   6   7
HETATM    7  C   UNL     1      43.876 -14.406   6.688  1.00  0.00     0.185 C 
BRANCH   7   8
HETATM    8  C   UNL     1      43.504 -12.963   6.988  1.00  0.00     0.227 C 
HETATM    9  N   UNL     1      42.331 -12.409   6.573  1.00  0.00    -0.356 N 
HETATM   10  H   UNL     1      42.221 -11.457   6.905  1.00  0.00     0.162 HD
HETATM   11  O   UNL     1      44.209 -12.279   7.737  1.00  0.00    -0.273 OA
BRANCH   9  12
HETATM   12  C   UNL     1      41.274 -12.976   5.767  1.00  0.00     0.161 C 
BRANCH  12  13
HETATM   13  C   UNL     1      41.248 -12.404   4.373  1.00  0.00    -0.040 A 
HETATM   14  C   UNL     1      42.429 -11.968   3.752  1.00  0.00     0.011 A 
HETATM   15  C   UNL     1      42.413 -11.479   2.440  1.00  0.00     0.037 A 
HETATM   16  C   UNL     1      41.218 -11.435   1.724  1.00  0.00     0.068 A 
HETATM   17  C   UNL     1      40.042 -11.873   2.336  1.00  0.00     0.037 A 
HETATM   18  C   UNL     1      40.052 -12.354   3.648  1.00  0.00     0.011 A 
BRANCH  16  19
HETATM   19  O   UNL     1      41.066 -10.999   0.437  1.00  0.00    -0.356 OA
HETATM   20  C   UNL     1      40.301 -11.821  -0.435  1.00  0.00     0.210 C 
ENDBRANCH  16  19
ENDBRANCH  12  13
ENDBRANCH   9  12
ENDBRANCH   7   8
ENDBRANCH   6   7
ENDBRANCH   1   6
BRANCH   2  21
HETATM   21  C   UNL     1      43.338 -15.756   4.161  1.00  0.00     0.171 C 
BRANCH  21  22
HETATM   22  C   UNL     1      42.178 -15.688   3.193  1.00  0.00    -0.040 A 
HETATM   23  C   UNL     1      40.861 -16.020   3.548  1.00  0.00     0.009 A 
HETATM   24  C   UNL     1      39.828 -15.931   2.612  1.00  0.00     0.001 A 
HETATM   25  C   UNL     1      40.089 -15.482   1.319  1.00  0.00     0.000 A 
HETATM   26  C   UNL     1      41.384 -15.117   0.961  1.00  0.00     0.001 A 
HETATM   27  C   UNL     1      42.419 -15.215   1.891  1.00  0.00     0.009 A 
ENDBRANCH  21  22
ENDBRANCH   2  21
BRANCH   3  28
HETATM   28  C   UNL     1      44.155 -18.647   3.206  1.00  0.00     0.057 A 
HETATM   29  C   UNL     1      43.823 -20.060   2.770  1.00  0.00     0.013 A 
HETATM   30  C   UNL     1      43.071 -18.915   2.181  1.00  0.00     0.013 A 
ENDBRANCH   3  28
TORSDOF 9
ENDMDL
MODEL 3
REMARK VINA RESULT:      -7.5      2.495      5.610
REMARK  9 active torsions:
REMARK  status: ('A' for Active; 'I' for Inactive)
REMARK    1  A    between atoms: O_2  and  C_3 
REMARK    2  A    between atoms: C_6  and  C_7 
REMARK    3  A    between atoms: C_7  and  N_8 
REMARK       I    between atoms: N_8  and  C_9 
REMARK    4  A    between atoms: C_9  and  C_10 
REMARK    5  A    between atoms: C_10  and  S_11 
REMARK    6  A    between atoms: S_11  and  C_12 
REMARK    7  A    between atoms: N_13  and  C_14 
REMARK    8  A    between atoms: C_14  and  C_15 
REMARK    9  A    between atoms: C_21  and  C_22 
ROOT
HETATM    1  C   UNL     1      40.991 -15.561   3.609  1.00  0.00     0.192 A 
HETATM    2  N   UNL     1      42.250 -15.829   4.073  1.00  0.00    -0.307 N 
HETATM    3  C   UNL     1      42.238 -15.435   5.391  1.00  0.00     0.135 A 
HETATM    4  N   UNL     1      41.024 -15.037   5.710  1.00  0.00    -0.134 NA
HETATM    5  N   UNL     1      40.239 -15.119   4.587  1.00  0.00    -0.123 NA
ENDROOT
BRANCH   1   6
HETATM    6  S   UNL     1      40.511 -15.734   1.961  1.00  0.00    -0.081 SA
BRANCH   6   7
HETATM    7  C   UNL     1      40.910 -14.111   1.265  1.00  0.00     0.185 C 
BRANCH   7   8
HETATM    8  C   UNL     1      40.318 -12.894   1.959  1.00  0.00     0.227 C 
HETATM    9  N   UNL     1      41.092 -11.920   2.513  1.00  0.00    -0.356 N 
HETATM   10  H   UNL     1      40.536 -11.158   2.884  1.00  0.00     0.162 HD
HETATM   11  O   UNL     1      39.100 -12.689   1.928  1.00  0.00    -0.273 OA
BRANCH   9  12
HETATM   12  C   UNL     1      42.529 -11.834   2.627  1.00  0.00     0.161 C 
BRANCH  12  13
HETATM   13  C   UNL     1      42.984 -11.726   4.060  1.00  0.00    -0.040 A 
HETATM   14  C   UNL     1      42.060 -11.785   5.114  1.00  0.00     0.011 A 
HETATM   15  C   UNL     1      42.485 -11.729   6.447  1.00  0.00     0.037 A 
HETATM   16  C   UNL     1      43.843 -11.632   6.746  1.00  0.00     0.068 A 
HETATM   17  C   UNL     1      44.766 -11.578   5.700  1.00  0.00     0.037 A 
HETATM   18  C   UNL     1      44.346 -11.624   4.368  1.00  0.00     0.011 A 
BRANCH  16  19
HETATM   19  O   UNL     1      44.392 -11.586   7.997  1.00  0.00    -0.356 OA
HETATM   20  C   UNL     1      45.537 -10.761   8.167  1.00  0.00     0.210 C 
ENDBRANCH  16  19
ENDBRANCH  12  13
ENDBRANCH   9  12
ENDBRANCH   7   8
ENDBRANCH   6   7
ENDBRANCH   1   6
BRANCH   2  21
HETATM   21  C   UNL     1      43.399 -16.316   3.332  1.00  0.00     0.171 C 
BRANCH  21  22
HETATM   22  C   UNL     1      43.549 -17.821   3.317  1.00  0.00    -0.040 A 
HETATM   23  C   UNL     1      44.072 -18.551   4.396  1.00  0.00     0.009 A 
HETATM   24  C   UNL     1      44.180 -19.942   4.328  1.00  0.00     0.001 A 
HETATM   25  C   UNL     1      43.743 -20.626   3.197  1.00  0.00     0.000 A 
HETATM   26  C   UNL     1      43.191 -19.920   2.131  1.00  0.00     0.001 A 
HETATM   27  C   UNL     1      43.091 -18.529   2.192  1.00  0.00     0.009 A 
ENDBRANCH  21  22
ENDBRANCH   2  21
BRANCH   3  28
HETATM   28  C   UNL     1      43.411 -15.443   6.361  1.00  0.00     0.057 A 
HETATM   29  C   UNL     1      43.120 -15.210   7.829  1.00  0.00     0.013 A 
HETATM   30  C   UNL     1      43.493 -16.575   7.364  1.00  0.00     0.013 A 
ENDBRANCH   3  28
TORSDOF 9
ENDMDL
MODEL 4
REMARK VINA RESULT:      -7.3      2.304      4.870
REMARK  9 active torsions:
REMARK  status: ('A' for Active; 'I' for Inactive)
REMARK    1  A    between atoms: O_2  and  C_3 
REMARK    2  A    between atoms: C_6  and  C_7 
REMARK    3  A    between atoms: C_7  and  N_8 
REMARK       I    between atoms: N_8  and  C_9 
REMARK    4  A    between atoms: C_9  and  C_10 
REMARK    5  A    between atoms: C_10  and  S_11 
REMARK    6  A    between atoms: S_11  and  C_12 
REMARK    7  A    between atoms: N_13  and  C_14 
REMARK    8  A    between atoms: C_14  and  C_15 
REMARK    9  A    between atoms: C_21  and  C_22 
ROOT
HETATM    1  C   UNL     1      40.375 -11.274   3.278  1.00  0.00     0.192 A 
HETATM    2  N   UNL     1      40.132 -12.498   2.716  1.00  0.00    -0.307 N 
HETATM    3  C   UNL     1      39.866 -12.239   1.391  1.00  0.00     0.135 A 
HETATM    4  N   UNL     1      40.025 -10.951   1.165  1.00  0.00    -0.134 NA
HETATM    5  N   UNL     1      40.347 -10.345   2.354  1.00  0.00    -0.123 NA
ENDROOT
BRANCH   1   6
HETATM    6  S   UNL     1      40.620 -11.016   4.966  1.00  0.00    -0.081 SA
BRANCH   6   7
HETATM    7  C   UNL     1      42.327 -10.419   5.027  1.00  0.00     0.185 C 
BRANCH   7   8
HETATM    8  C   UNL     1      43.411 -11.367   4.539  1.00  0.00     0.227 C 
HETATM    9  N   UNL     1      43.708 -12.531   5.181  1.00  0.00    -0.356 N 
HETATM   10  H   UNL     1      44.416 -13.066   4.691  1.00  0.00     0.162 HD
HETATM   11  O   UNL     1      43.975 -11.167   3.458  1.00  0.00    -0.273 OA
BRANCH   9  12
HETATM   12  C   UNL     1      43.166 -13.077   6.404  1.00  0.00     0.161 C 
BRANCH  12  13
HETATM   13  C   UNL     1      43.177 -14.584   6.412  1.00  0.00    -0.040 A 
HETATM   14  C   UNL     1      42.015 -15.310   6.717  1.00  0.00     0.011 A 
HETATM   15  C   UNL     1      42.012 -16.710   6.682  1.00  0.00     0.037 A 
HETATM   16  C   UNL     1      43.166 -17.404   6.325  1.00  0.00     0.068 A 
HETATM   17  C   UNL     1      44.323 -16.685   6.017  1.00  0.00     0.037 A 
HETATM   18  C   UNL     1      44.333 -15.289   6.059  1.00  0.00     0.011 A 
BRANCH  16  19
HETATM   19  O   UNL     1      43.295 -18.762   6.235  1.00  0.00    -0.356 OA
HETATM   20  C   UNL     1      44.075 -19.265   5.158  1.00  0.00     0.210 C 
ENDBRANCH  16  19
ENDBRANCH  12  13
ENDBRANCH   9  12
ENDBRANCH   7   8
ENDBRANCH   6   7
ENDBRANCH   1   6
BRANCH   2  21
HETATM   21  C   UNL     1      40.053 -13.790   3.372  1.00  0.00     0.171 C 
BRANCH  21  22
HETATM   22  C   UNL     1      41.167 -14.749   3.013  1.00  0.00    -0.040 A 
HETATM   23  C   UNL     1      42.440 -14.326   2.601  1.00  0.00     0.009 A 
HETATM   24  C   UNL     1      43.433 -15.259   2.289  1.00  0.00     0.001 A 
HETATM   25  C   UNL     1      43.179 -16.623   2.412  1.00  0.00     0.000 A 
HETATM   26  C   UNL     1      41.931 -17.058   2.852  1.00  0.00     0.001 A 
HETATM   27  C   UNL     1      40.935 -16.129   3.154  1.00  0.00     0.009 A 
ENDBRANCH  21  22
ENDBRANCH   2  21
BRANCH   3  28
HETATM   28  C   UNL     1      39.456 -13.244   0.325  1.00  0.00     0.057 A 
HETATM   29  C   UNL     1      39.719 -12.890  -1.124  1.00  0.00     0.013 A 
HETATM   30  C   UNL     1      40.554 -13.931  -0.461  1.00  0.00     0.013 A 
ENDBRANCH   3  28
TORSDOF 9
ENDMDL
MODEL 5
REMARK VINA RESULT:      -7.3      3.124      6.941
REMARK  9 active torsions:
REMARK  status: ('A' for Active; 'I' for Inactive)
REMARK    1  A    between atoms: O_2  and  C_3 
REMARK    2  A    between atoms: C_6  and  C_7 
REMARK    3  A    between atoms: C_7  and  N_8 
REMARK       I    between atoms: N_8  and  C_9 
REMARK    4  A    between atoms: C_9  and  C_10 
REMARK    5  A    between atoms: C_10  and  S_11 
REMARK    6  A    between atoms: S_11  and  C_12 
REMARK    7  A    between atoms: N_13  and  C_14 
REMARK    8  A    between atoms: C_14  and  C_15 
REMARK    9  A    between atoms: C_21  and  C_22 
ROOT
HETATM    1  C   UNL     1      42.842 -16.043   5.902  1.00  0.00     0.192 A 
HETATM    2  N   UNL     1      43.166 -16.248   4.588  1.00  0.00    -0.307 N 
HETATM    3  C   UNL     1      43.527 -17.573   4.509  1.00  0.00     0.135 A 
HETATM    4  N   UNL     1      43.349 -18.138   5.686  1.00  0.00    -0.134 NA
HETATM    5  N   UNL     1      42.916 -17.173   6.561  1.00  0.00    -0.123 NA
ENDROOT
BRANCH   1   6
HETATM    6  S   UNL     1      42.458 -14.502   6.574  1.00  0.00    -0.081 SA
BRANCH   6   7
HETATM    7  C   UNL     1      40.765 -14.233   5.992  1.00  0.00     0.185 C 
BRANCH   7   8
HETATM    8  C   UNL     1      40.238 -12.807   6.028  1.00  0.00     0.227 C 
HETATM    9  N   UNL     1      40.595 -11.872   5.104  1.00  0.00    -0.356 N 
HETATM   10  H   UNL     1      40.111 -10.993   5.245  1.00  0.00     0.162 HD
HETATM   11  O   UNL     1      39.359 -12.486   6.834  1.00  0.00    -0.273 OA
BRANCH   9  12
HETATM   12  C   UNL     1      41.523 -11.969   4.001  1.00  0.00     0.161 C 
BRANCH  12  13
HETATM   13  C   UNL     1      40.863 -11.709   2.672  1.00  0.00    -0.040 A 
HETATM   14  C   UNL     1      41.596 -11.191   1.594  1.00  0.00     0.011 A 
HETATM   15  C   UNL     1      40.995 -10.990   0.345  1.00  0.00     0.037 A 
HETATM   16  C   UNL     1      39.655 -11.322   0.152  1.00  0.00     0.068 A 
HETATM   17  C   UNL     1      38.923 -11.842   1.221  1.00  0.00     0.037 A 
HETATM   18  C   UNL     1      39.517 -12.035   2.471  1.00  0.00     0.011 A 
BRANCH  16  19
HETATM   19  O   UNL     1      38.953 -11.193  -1.014  1.00  0.00    -0.356 OA
HETATM   20  C   UNL     1      39.378 -11.990  -2.112  1.00  0.00     0.210 C 
ENDBRANCH  16  19
ENDBRANCH  12  13
ENDBRANCH   9  12
ENDBRANCH   7   8
ENDBRANCH   6   7
ENDBRANCH   1   6
BRANCH   2  21
HETATM   21  C   UNL     1      43.231 -15.274   3.514  1.00  0.00     0.171 C 
BRANCH  21  22
HETATM   22  C   UNL     1      42.059 -15.311   2.557  1.00  0.00    -0.040 A 
HETATM   23  C   UNL     1      40.799 -15.822   2.905  1.00  0.00     0.009 A 
HETATM   24  C   UNL     1      39.752 -15.824   1.981  1.00  0.00     0.001 A 
HETATM   25  C   UNL     1      39.938 -15.290   0.708  1.00  0.00     0.000 A 
HETATM   26  C   UNL     1      41.172 -14.748   0.358  1.00  0.00     0.001 A 
HETATM   27  C   UNL     1      42.223 -14.755   1.276  1.00  0.00     0.009 A 
ENDBRANCH  21  22
ENDBRANCH   2  21
BRANCH   3  28
HETATM   28  C   UNL     1      44.051 -18.310   3.284  1.00  0.00     0.057 A 
HETATM   29  C   UNL     1      43.747 -19.789   3.161  1.00  0.00     0.013 A 
HETATM   30  C   UNL     1      43.038 -18.819   2.279  1.00  0.00     0.013 A 
ENDBRANCH   3  28
TORSDOF 9
ENDMDL
MODEL 6
REMARK VINA RESULT:      -7.1      2.191      5.269
REMARK  9 active torsions:
REMARK  status: ('A' for Active; 'I' for Inactive)
REMARK    1  A    between atoms: O_2  and  C_3 
REMARK    2  A    between atoms: C_6  and  C_7 
REMARK    3  A    between atoms: C_7  and  N_8 
REMARK       I    between atoms: N_8  and  C_9 
REMARK    4  A    between atoms: C_9  and  C_10 
REMARK    5  A    between atoms: C_10  and  S_11 
REMARK    6  A    between atoms: S_11  and  C_12 
REMARK    7  A    between atoms: N_13  and  C_14 
REMARK    8  A    between atoms: C_14  and  C_15 
REMARK    9  A    between atoms: C_21  and  C_22 
ROOT
HETATM    1  C   UNL     1      41.885 -12.363   2.974  1.00  0.00     0.192 A 
HETATM    2  N   UNL     1      41.409 -13.542   2.468  1.00  0.00    -0.307 N 
HETATM    3  C   UNL     1      42.526 -14.312   2.239  1.00  0.00     0.135 A 
HETATM    4  N   UNL     1      43.590 -13.661   2.660  1.00  0.00    -0.134 NA
HETATM    5  N   UNL     1      43.185 -12.434   3.125  1.00  0.00    -0.123 NA
ENDROOT
BRANCH   1   6
HETATM    6  S   UNL     1      40.902 -10.982   3.299  1.00  0.00    -0.081 SA
BRANCH   6   7
HETATM    7  C   UNL     1      40.835 -10.967   5.107  1.00  0.00     0.185 C 
BRANCH   7   8
HETATM    8  C   UNL     1      40.193 -12.166   5.788  1.00  0.00     0.227 C 
HETATM    9  N   UNL     1      40.927 -13.170   6.344  1.00  0.00    -0.356 N 
HETATM   10  H   UNL     1      40.342 -13.860   6.800  1.00  0.00     0.162 HD
HETATM   11  O   UNL     1      38.972 -12.202   5.969  1.00  0.00    -0.273 OA
BRANCH   9  12
HETATM   12  C   UNL     1      42.358 -13.364   6.371  1.00  0.00     0.161 C 
BRANCH  12  13
HETATM   13  C   UNL     1      42.743 -14.811   6.200  1.00  0.00    -0.040 A 
HETATM   14  C   UNL     1      44.090 -15.204   6.225  1.00  0.00     0.011 A 
HETATM   15  C   UNL     1      44.447 -16.553   6.110  1.00  0.00     0.037 A 
HETATM   16  C   UNL     1      43.461 -17.530   5.986  1.00  0.00     0.068 A 
HETATM   17  C   UNL     1      42.120 -17.144   5.966  1.00  0.00     0.037 A 
HETATM   18  C   UNL     1      41.759 -15.798   6.071  1.00  0.00     0.011 A 
BRANCH  16  19
HETATM   19  O   UNL     1      43.671 -18.878   5.884  1.00  0.00    -0.356 OA
HETATM   20  C   UNL     1      44.307 -19.341   4.700  1.00  0.00     0.210 C 
ENDBRANCH  16  19
ENDBRANCH  12  13
ENDBRANCH   9  12
ENDBRANCH   7   8
ENDBRANCH   6   7
ENDBRANCH   1   6
BRANCH   2  21
HETATM   21  C   UNL     1      40.041 -13.890   2.132  1.00  0.00     0.171 C 
BRANCH  21  22
HETATM   22  C   UNL     1      39.673 -13.673   0.680  1.00  0.00    -0.040 A 
HETATM   23  C   UNL     1      39.771 -14.677  -0.295  1.00  0.00     0.009 A 
HETATM   24  C   UNL     1      39.410 -14.420  -1.620  1.00  0.00     0.001 A 
HETATM   25  C   UNL     1      38.918 -13.168  -1.983  1.00  0.00     0.000 A 
HETATM   26  C   UNL     1      38.783 -12.171  -1.021  1.00  0.00     0.001 A 
HETATM   27  C   UNL     1      39.153 -12.422   0.301  1.00  0.00     0.009 A 
ENDBRANCH  21  22
ENDBRANCH   2  21
BRANCH   3  28
HETATM   28  C   UNL     1      42.572 -15.695   1.606  1.00  0.00     0.057 A 
HETATM   29  C   UNL     1      43.456 -16.742   2.252  1.00  0.00     0.013 A 
HETATM   30  C   UNL     1      41.976 -16.850   2.385  1.00  0.00     0.013 A 
ENDBRANCH   3  28
TORSDOF 9
ENDMDL
MODEL 7
REMARK VINA RESULT:      -7.1      2.461      5.735
REMARK  9 active torsions:
REMARK  status: ('A' for Active; 'I' for Inactive)
REMARK    1  A    between atoms: O_2  and  C_3 
REMARK    2  A    between atoms: C_6  and  C_7 
REMARK    3  A    between atoms: C_7  and  N_8 
REMARK       I    between atoms: N_8  and  C_9 
REMARK    4  A    between atoms: C_9  and  C_10 
REMARK    5  A    between atoms: C_10  and  S_11 
REMARK    6  A    between atoms: S_11  and  C_12 
REMARK    7  A    between atoms: N_13  and  C_14 
REMARK    8  A    between atoms: C_14  and  C_15 
REMARK    9  A    between atoms: C_21  and  C_22 
ROOT
HETATM    1  C   UNL     1      39.636 -12.627   1.131  1.00  0.00     0.192 A 
HETATM    2  N   UNL     1      39.825 -13.747   0.366  1.00  0.00    -0.307 N 
HETATM    3  C   UNL     1      39.820 -13.299  -0.934  1.00  0.00     0.135 A 
HETATM    4  N   UNL     1      39.718 -11.986  -0.936  1.00  0.00    -0.134 NA
HETATM    5  N   UNL     1      39.604 -11.564   0.365  1.00  0.00    -0.123 NA
ENDROOT
BRANCH   1   6
HETATM    6  S   UNL     1      39.416 -12.650   2.842  1.00  0.00    -0.081 SA
BRANCH   6   7
HETATM    7  C   UNL     1      40.418 -11.244   3.384  1.00  0.00     0.185 C 
BRANCH   7   8
HETATM    8  C   UNL     1      41.928 -11.427   3.383  1.00  0.00     0.227 C 
HETATM    9  N   UNL     1      42.599 -11.971   4.436  1.00  0.00    -0.356 N 
HETATM   10  H   UNL     1      43.590 -12.068   4.246  1.00  0.00     0.162 HD
HETATM   11  O   UNL     1      42.584 -11.201   2.360  1.00  0.00    -0.273 OA
BRANCH   9  12
HETATM   12  C   UNL     1      42.106 -12.410   5.720  1.00  0.00     0.161 C 
BRANCH  12  13
HETATM   13  C   UNL     1      42.392 -13.868   5.977  1.00  0.00    -0.040 A 
HETATM   14  C   UNL     1      43.686 -14.299   6.305  1.00  0.00     0.011 A 
HETATM   15  C   UNL     1      43.945 -15.646   6.586  1.00  0.00     0.037 A 
HETATM   16  C   UNL     1      42.910 -16.578   6.561  1.00  0.00     0.068 A 
HETATM   17  C   UNL     1      41.619 -16.152   6.240  1.00  0.00     0.037 A 
HETATM   18  C   UNL     1      41.358 -14.810   5.949  1.00  0.00     0.011 A 
BRANCH  16  19
HETATM   19  O   UNL     1      43.021 -17.914   6.831  1.00  0.00    -0.356 OA
HETATM   20  C   UNL     1      43.714 -18.707   5.876  1.00  0.00     0.210 C 
ENDBRANCH  16  19
ENDBRANCH  12  13
ENDBRANCH   9  12
ENDBRANCH   7   8
ENDBRANCH   6   7
ENDBRANCH   1   6
BRANCH   2  21
HETATM   21  C   UNL     1      39.904 -15.130   0.799  1.00  0.00     0.171 C 
BRANCH  21  22
HETATM   22  C   UNL     1      41.193 -15.500   1.500  1.00  0.00    -0.040 A 
HETATM   23  C   UNL     1      42.324 -14.670   1.514  1.00  0.00     0.009 A 
HETATM   24  C   UNL     1      43.485 -15.062   2.184  1.00  0.00     0.001 A 
HETATM   25  C   UNL     1      43.524 -16.272   2.874  1.00  0.00     0.000 A 
HETATM   26  C   UNL     1      42.398 -17.091   2.898  1.00  0.00     0.001 A 
HETATM   27  C   UNL     1      41.240 -16.707   2.220  1.00  0.00     0.009 A 
ENDBRANCH  21  22
ENDBRANCH   2  21
BRANCH   3  28
HETATM   28  C   UNL     1      39.915 -14.145  -2.196  1.00  0.00     0.057 A 
HETATM   29  C   UNL     1      38.784 -15.108  -2.492  1.00  0.00     0.013 A 
HETATM   30  C   UNL     1      38.925 -13.870  -3.309  1.00  0.00     0.013 A 
ENDBRANCH   3  28
TORSDOF 9
ENDMDL
MODEL 8
REMARK VINA RESULT:      -7.0      1.480      3.467
REMARK  9 active torsions:
REMARK  status: ('A' for Active; 'I' for Inactive)
REMARK    1  A    between atoms: O_2  and  C_3 
REMARK    2  A    between atoms: C_6  and  C_7 
REMARK    3  A    between atoms: C_7  and  N_8 
REMARK       I    between atoms: N_8  and  C_9 
REMARK    4  A    between atoms: C_9  and  C_10 
REMARK    5  A    between atoms: C_10  and  S_11 
REMARK    6  A    between atoms: S_11  and  C_12 
REMARK    7  A    between atoms: N_13  and  C_14 
REMARK    8  A    between atoms: C_14  and  C_15 
REMARK    9  A    between atoms: C_21  and  C_22 
ROOT
HETATM    1  C   UNL     1      40.213 -14.284   3.928  1.00  0.00     0.192 A 
HETATM    2  N   UNL     1      40.838 -13.954   5.100  1.00  0.00    -0.307 N 
HETATM    3  C   UNL     1      41.111 -15.154   5.712  1.00  0.00     0.135 A 
HETATM    4  N   UNL     1      40.745 -16.137   4.915  1.00  0.00    -0.134 NA
HETATM    5  N   UNL     1      40.181 -15.587   3.791  1.00  0.00    -0.123 NA
ENDROOT
BRANCH   1   6
HETATM    6  S   UNL     1      39.524 -13.134   2.841  1.00  0.00    -0.081 SA
BRANCH   6   7
HETATM    7  C   UNL     1      40.753 -13.065   1.514  1.00  0.00     0.185 C 
BRANCH   7   8
HETATM    8  C   UNL     1      40.948 -14.324   0.684  1.00  0.00     0.227 C 
HETATM    9  N   UNL     1      41.956 -15.208   0.922  1.00  0.00    -0.356 N 
HETATM   10  H   UNL     1      41.906 -16.015   0.311  1.00  0.00     0.162 HD
HETATM   11  O   UNL     1      40.109 -14.650  -0.163  1.00  0.00    -0.273 OA
BRANCH   9  12
HETATM   12  C   UNL     1      43.029 -15.149   1.887  1.00  0.00     0.161 C 
BRANCH  12  13
HETATM   13  C   UNL     1      43.297 -16.487   2.527  1.00  0.00    -0.040 A 
HETATM   14  C   UNL     1      42.999 -17.680   1.852  1.00  0.00     0.011 A 
HETATM   15  C   UNL     1      43.289 -18.924   2.427  1.00  0.00     0.037 A 
HETATM   16  C   UNL     1      43.897 -18.991   3.679  1.00  0.00     0.068 A 
HETATM   17  C   UNL     1      44.199 -17.806   4.353  1.00  0.00     0.037 A 
HETATM   18  C   UNL     1      43.904 -16.563   3.786  1.00  0.00     0.011 A 
BRANCH  16  19
HETATM   19  O   UNL     1      44.247 -20.134   4.344  1.00  0.00    -0.356 OA
HETATM   20  C   UNL     1      43.743 -20.289   5.664  1.00  0.00     0.210 C 
ENDBRANCH  16  19
ENDBRANCH  12  13
ENDBRANCH   9  12
ENDBRANCH   7   8
ENDBRANCH   6   7
ENDBRANCH   1   6
BRANCH   2  21
HETATM   21  C   UNL     1      41.074 -12.633   5.653  1.00  0.00     0.171 C 
BRANCH  21  22
HETATM   22  C   UNL     1      42.511 -12.164   5.576  1.00  0.00    -0.040 A 
HETATM   23  C   UNL     1      43.268 -11.822   6.707  1.00  0.00     0.009 A 
HETATM   24  C   UNL     1      44.594 -11.401   6.575  1.00  0.00     0.001 A 
HETATM   25  C   UNL     1      45.190 -11.344   5.317  1.00  0.00     0.000 A 
HETATM   26  C   UNL     1      44.462 -11.712   4.188  1.00  0.00     0.001 A 
HETATM   27  C   UNL     1      43.135 -12.122   4.317  1.00  0.00     0.009 A 
ENDBRANCH  21  22
ENDBRANCH   2  21
BRANCH   3  28
HETATM   28  C   UNL     1      41.734 -15.363   7.085  1.00  0.00     0.057 A 
HETATM   29  C   UNL     1      42.587 -16.597   7.298  1.00  0.00     0.013 A 
HETATM   30  C   UNL     1      43.241 -15.262   7.200  1.00  0.00     0.013 A 
ENDBRANCH   3  28
TORSDOF 9
ENDMDL
MODEL 9
REMARK VINA RESULT:      -7.0      1.937      4.184
REMARK  9 active torsions:
REMARK  status: ('A' for Active; 'I' for Inactive)
REMARK    1  A    between atoms: O_2  and  C_3 
REMARK    2  A    between atoms: C_6  and  C_7 
REMARK    3  A    between atoms: C_7  and  N_8 
REMARK       I    between atoms: N_8  and  C_9 
REMARK    4  A    between atoms: C_9  and  C_10 
REMARK    5  A    between atoms: C_10  and  S_11 
REMARK    6  A    between atoms: S_11  and  C_12 
REMARK    7  A    between atoms: N_13  and  C_14 
REMARK    8  A    between atoms: C_14  and  C_15 
REMARK    9  A    between atoms: C_21  and  C_22 
ROOT
HETATM    1  C   UNL     1      40.597 -11.962   5.298  1.00  0.00     0.192 A 
HETATM    2  N   UNL     1      41.781 -12.617   5.501  1.00  0.00    -0.307 N 
HETATM    3  C   UNL     1      41.446 -13.758   6.191  1.00  0.00     0.135 A 
HETATM    4  N   UNL     1      40.137 -13.816   6.317  1.00  0.00    -0.134 NA
HETATM    5  N   UNL     1      39.603 -12.685   5.752  1.00  0.00    -0.123 NA
ENDROOT
BRANCH   1   6
HETATM    6  S   UNL     1      40.469 -10.389   4.599  1.00  0.00    -0.081 SA
BRANCH   6   7
HETATM    7  C   UNL     1      40.196 -10.760   2.849  1.00  0.00     0.185 C 
BRANCH   7   8
HETATM    8  C   UNL     1      41.399 -11.222   2.042  1.00  0.00     0.227 C 
HETATM    9  N   UNL     1      41.557 -12.513   1.639  1.00  0.00    -0.356 N 
HETATM   10  H   UNL     1      42.385 -12.634   1.067  1.00  0.00     0.162 HD
HETATM   11  O   UNL     1      42.217 -10.400   1.614  1.00  0.00    -0.273 OA
BRANCH   9  12
HETATM   12  C   UNL     1      40.736 -13.672   1.904  1.00  0.00     0.161 C 
BRANCH  12  13
HETATM   13  C   UNL     1      41.556 -14.917   2.122  1.00  0.00    -0.040 A 
HETATM   14  C   UNL     1      40.972 -16.080   2.648  1.00  0.00     0.011 A 
HETATM   15  C   UNL     1      41.722 -17.251   2.810  1.00  0.00     0.037 A 
HETATM   16  C   UNL     1      43.063 -17.282   2.432  1.00  0.00     0.068 A 
HETATM   17  C   UNL     1      43.647 -16.129   1.905  1.00  0.00     0.037 A 
HETATM   18  C   UNL     1      42.905 -14.955   1.750  1.00  0.00     0.011 A 
BRANCH  16  19
HETATM   19  O   UNL     1      43.900 -18.359   2.521  1.00  0.00    -0.356 OA
HETATM   20  C   UNL     1      43.355 -19.627   2.180  1.00  0.00     0.210 C 
ENDBRANCH  16  19
ENDBRANCH  12  13
ENDBRANCH   9  12
ENDBRANCH   7   8
ENDBRANCH   6   7
ENDBRANCH   1   6
BRANCH   2  21
HETATM   21  C   UNL     1      43.123 -12.175   5.169  1.00  0.00     0.171 C 
BRANCH  21  22
HETATM   22  C   UNL     1      43.860 -11.492   6.301  1.00  0.00    -0.040 A 
HETATM   23  C   UNL     1      43.208 -10.836   7.356  1.00  0.00     0.009 A 
HETATM   24  C   UNL     1      43.941 -10.228   8.377  1.00  0.00     0.001 A 
HETATM   25  C   UNL     1      45.333 -10.290   8.375  1.00  0.00     0.000 A 
HETATM   26  C   UNL     1      45.995 -10.966   7.353  1.00  0.00     0.001 A 
HETATM   27  C   UNL     1      45.264 -11.565   6.326  1.00  0.00     0.009 A 
ENDBRANCH  21  22
ENDBRANCH   2  21
BRANCH   3  28
HETATM   28  C   UNL     1      42.399 -14.812   6.739  1.00  0.00     0.057 A 
HETATM   29  C   UNL     1      42.077 -16.268   6.471  1.00  0.00     0.013 A 
HETATM   30  C   UNL     1      43.206 -15.621   5.744  1.00  0.00     0.013 A 
ENDBRANCH   3  28
TORSDOF 9
ENDMDL
MODEL 10
REMARK VINA RESULT:      -7.0      3.818      8.186
REMARK  9 active torsions:
REMARK  status: ('A' for Active; 'I' for Inactive)
REMARK    1  A    between atoms: O_2  and  C_3 
REMARK    2  A    between atoms: C_6  and  C_7 
REMARK    3  A    between atoms: C_7  and  N_8 
REMARK       I    between atoms: N_8  and  C_9 
REMARK    4  A    between atoms: C_9  and  C_10 
REMARK    5  A    between atoms: C_10  and  S_11 
REMARK    6  A    between atoms: S_11  and  C_12 
REMARK    7  A    between atoms: N_13  and  C_14 
REMARK    8  A    between atoms: C_14  and  C_15 
REMARK    9  A    between atoms: C_21  and  C_22 
ROOT
HETATM    1  C   UNL     1      42.594 -14.640   5.627  1.00  0.00     0.192 A 
HETATM    2  N   UNL     1      42.543 -15.312   4.435  1.00  0.00    -0.307 N 
HETATM    3  C   UNL     1      41.207 -15.384   4.120  1.00  0.00     0.135 A 
HETATM    4  N   UNL     1      40.515 -14.724   5.026  1.00  0.00    -0.134 NA
HETATM    5  N   UNL     1      41.390 -14.255   5.974  1.00  0.00    -0.123 NA
ENDROOT
BRANCH   1   6
HETATM    6  S   UNL     1      44.036 -14.405   6.544  1.00  0.00    -0.081 SA
BRANCH   6   7
HETATM    7  C   UNL     1      43.908 -12.668   7.035  1.00  0.00     0.185 C 
BRANCH   7   8
HETATM    8  C   UNL     1      44.597 -11.643   6.148  1.00  0.00     0.227 C 
HETATM    9  N   UNL     1      45.567 -10.808   6.613  1.00  0.00    -0.356 N 
HETATM   10  H   UNL     1      45.955 -10.229   5.878  1.00  0.00     0.162 HD
HETATM   11  O   UNL     1      44.382 -11.626   4.931  1.00  0.00    -0.273 OA
BRANCH   9  12
HETATM   12  C   UNL     1      46.092 -10.654   7.950  1.00  0.00     0.161 C 
BRANCH  12  13
HETATM   13  C   UNL     1      45.202  -9.802   8.820  1.00  0.00    -0.040 A 
HETATM   14  C   UNL     1      44.950 -10.156  10.154  1.00  0.00     0.011 A 
HETATM   15  C   UNL     1      44.160  -9.343  10.976  1.00  0.00     0.037 A 
HETATM   16  C   UNL     1      43.626  -8.155  10.481  1.00  0.00     0.068 A 
HETATM   17  C   UNL     1      43.879  -7.797   9.156  1.00  0.00     0.037 A 
HETATM   18  C   UNL     1      44.659  -8.610   8.329  1.00  0.00     0.011 A 
BRANCH  16  19
HETATM   19  O   UNL     1      42.856  -7.265  11.178  1.00  0.00    -0.356 OA
HETATM   20  C   UNL     1      41.801  -7.805  11.963  1.00  0.00     0.210 C 
ENDBRANCH  16  19
ENDBRANCH  12  13
ENDBRANCH   9  12
ENDBRANCH   7   8
ENDBRANCH   6   7
ENDBRANCH   1   6
BRANCH   2  21
HETATM   21  C   UNL     1      43.634 -15.923   3.699  1.00  0.00     0.171 C 
BRANCH  21  22
HETATM   22  C   UNL     1      43.748 -17.423   3.867  1.00  0.00    -0.040 A 
HETATM   23  C   UNL     1      43.935 -18.043   5.112  1.00  0.00     0.009 A 
HETATM   24  C   UNL     1      44.026 -19.434   5.207  1.00  0.00     0.001 A 
HETATM   25  C   UNL     1      43.903 -20.225   4.066  1.00  0.00     0.000 A 
HETATM   26  C   UNL     1      43.684 -19.626   2.828  1.00  0.00     0.001 A 
HETATM   27  C   UNL     1      43.603 -18.237   2.730  1.00  0.00     0.009 A 
ENDBRANCH  21  22
ENDBRANCH   2  21
BRANCH   3  28
HETATM   28  C   UNL     1      40.583 -16.097   2.929  1.00  0.00     0.057 A 
HETATM   29  C   UNL     1      39.572 -15.336   2.095  1.00  0.00     0.013 A 
HETATM   30  C   UNL     1      40.931 -15.596   1.542  1.00  0.00     0.013 A 
ENDBRANCH   3  28
TORSDOF 9
ENDMDL
