MODEL 1
REMARK VINA RESULT:      -9.2      0.000      0.000
REMARK  2 active torsions:
REMARK  status: ('A' for Active; 'I' for Inactive)
REMARK    1  A    between atoms: C_8  and  C_9 
REMARK       I    between atoms: N_10  and  C_11 
REMARK    2  A    between atoms: C_11  and  C_12 
ROOT
HETATM    1  C   UNL     1      41.144 -13.347   1.100  1.00  0.00     0.124 C 
HETATM    2  N   UNL     1      41.549 -14.563   1.802  1.00  0.00    -0.339 N 
HETATM    3  C   UNL     1      42.837 -14.698   2.283  1.00  0.00     0.260 C 
HETATM    4  O   UNL     1      43.687 -13.813   2.206  1.00  0.00    -0.267 OA
HETATM    5  C   UNL     1      40.579 -15.630   1.585  1.00  0.00     0.127 C 
HETATM    6  C   UNL     1      39.859 -15.215   0.313  1.00  0.00     0.022 C 
HETATM    7  C   UNL     1      39.806 -13.700   0.434  1.00  0.00     0.032 C 
ENDROOT
BRANCH   1   8
HETATM    8  C   UNL     1      41.017 -12.168   2.022  1.00  0.00     0.014 A 
HETATM    9  C   UNL     1      41.258 -10.842   1.699  1.00  0.00     0.034 A 
HETATM   10  C   UNL     1      41.707 -10.199   0.442  1.00  0.00     0.070 C 
HETATM   11  N   UNL     1      41.017 -10.122   2.834  1.00  0.00    -0.282 N 
HETATM   12  H   UNL     1      41.109  -9.122   2.973  1.00  0.00     0.189 HD
HETATM   13  N   UNL     1      40.593 -10.865   3.862  1.00  0.00    -0.179 NA
HETATM   14  C   UNL     1      40.598 -12.116   3.387  1.00  0.00     0.061 A 
HETATM   15  C   UNL     1      40.184 -13.226   4.280  1.00  0.00     0.073 C 
ENDBRANCH   1   8
BRANCH   3  16
HETATM   16  C   UNL     1      43.161 -15.940   3.020  1.00  0.00     0.108 A 
HETATM   17  C   UNL     1      43.326 -15.948   4.484  1.00  0.00     0.304 A 
HETATM   18  O   UNL     1      43.230 -14.931   5.163  1.00  0.00    -0.259 OA
HETATM   19  O   UNL     1      43.648 -17.172   5.066  1.00  0.00    -0.274 OA
HETATM   20  C   UNL     1      43.715 -18.355   4.306  1.00  0.00     0.089 A 
HETATM   21  C   UNL     1      43.486 -18.333   2.932  1.00  0.00    -0.001 A 
HETATM   22  C   UNL     1      44.004 -19.538   4.982  1.00  0.00     0.038 A 
HETATM   23  C   UNL     1      43.530 -19.534   2.222  1.00  0.00     0.014 A 
HETATM   24  C   UNL     1      43.212 -17.061   2.287  1.00  0.00     0.037 A 
HETATM   25  C   UNL     1      43.810 -20.731   2.890  1.00  0.00     0.001 A 
HETATM   26  C   UNL     1      44.051 -20.732   4.267  1.00  0.00     0.003 A 
ENDBRANCH   3  16
TORSDOF 2
ENDMDL
MODEL 2
REMARK VINA RESULT:      -8.9      2.769      4.129
REMARK  2 active torsions:
REMARK  status: ('A' for Active; 'I' for Inactive)
REMARK    1  A    between atoms: C_8  and  C_9 
REMARK       I    between atoms: N_10  and  C_11 
REMARK    2  A    between atoms: C_11  and  C_12 
ROOT
HETATM    1  C   UNL     1      42.535 -11.237   6.452  1.00  0.00     0.124 C 
HETATM    2  N   UNL     1      42.980 -12.618   6.278  1.00  0.00    -0.339 N 
HETATM    3  C   UNL     1      42.061 -13.628   6.068  1.00  0.00     0.260 C 
HETATM    4  O   UNL     1      40.852 -13.434   5.961  1.00  0.00    -0.267 OA
HETATM    5  C   UNL     1      44.366 -12.770   6.703  1.00  0.00     0.127 C 
HETATM    6  C   UNL     1      44.594 -11.591   7.635  1.00  0.00     0.022 C 
HETATM    7  C   UNL     1      43.763 -10.490   6.995  1.00  0.00     0.032 C 
ENDROOT
BRANCH   1   8
HETATM    8  C   UNL     1      42.031 -10.631   5.175  1.00  0.00     0.014 A 
HETATM    9  C   UNL     1      42.568 -10.812   3.910  1.00  0.00     0.034 A 
HETATM   10  C   UNL     1      43.740 -11.587   3.438  1.00  0.00     0.070 C 
HETATM   11  N   UNL     1      41.794 -10.081   3.057  1.00  0.00    -0.282 N 
HETATM   12  H   UNL     1      41.904  -9.964   2.055  1.00  0.00     0.189 HD
HETATM   13  N   UNL     1      40.765  -9.470   3.654  1.00  0.00    -0.179 NA
HETATM   14  C   UNL     1      40.901  -9.786   4.947  1.00  0.00     0.061 A 
HETATM   15  C   UNL     1      39.916  -9.260   5.924  1.00  0.00     0.073 C 
ENDBRANCH   1   8
BRANCH   3  16
HETATM   16  C   UNL     1      42.590 -14.994   5.856  1.00  0.00     0.108 A 
HETATM   17  C   UNL     1      42.912 -15.881   6.987  1.00  0.00     0.304 A 
HETATM   18  O   UNL     1      42.786 -15.529   8.156  1.00  0.00    -0.259 OA
HETATM   19  O   UNL     1      43.421 -17.138   6.666  1.00  0.00    -0.274 OA
HETATM   20  C   UNL     1      43.526 -17.571   5.332  1.00  0.00     0.089 A 
HETATM   21  C   UNL     1      43.148 -16.739   4.280  1.00  0.00    -0.001 A 
HETATM   22  C   UNL     1      44.008 -18.859   5.110  1.00  0.00     0.038 A 
HETATM   23  C   UNL     1      43.238 -17.221   2.973  1.00  0.00     0.014 A 
HETATM   24  C   UNL     1      42.676 -15.399   4.581  1.00  0.00     0.037 A 
HETATM   25  C   UNL     1      43.711 -18.516   2.736  1.00  0.00     0.001 A 
HETATM   26  C   UNL     1      44.099 -19.332   3.803  1.00  0.00     0.003 A 
ENDBRANCH   3  16
TORSDOF 2
ENDMDL
MODEL 3
REMARK VINA RESULT:      -8.8      1.626      2.455
REMARK  2 active torsions:
REMARK  status: ('A' for Active; 'I' for Inactive)
REMARK    1  A    between atoms: C_8  and  C_9 
REMARK       I    between atoms: N_10  and  C_11 
REMARK    2  A    between atoms: C_11  and  C_12 
ROOT
HETATM    1  C   UNL     1      40.894 -13.063   3.298  1.00  0.00     0.124 C 
HETATM    2  N   UNL     1      41.380 -14.423   3.523  1.00  0.00    -0.339 N 
HETATM    3  C   UNL     1      42.720 -14.654   3.771  1.00  0.00     0.260 C 
HETATM    4  O   UNL     1      43.556 -13.759   3.873  1.00  0.00    -0.267 OA
HETATM    5  C   UNL     1      40.386 -15.402   3.102  1.00  0.00     0.127 C 
HETATM    6  C   UNL     1      39.508 -14.635   2.127  1.00  0.00     0.022 C 
HETATM    7  C   UNL     1      39.478 -13.238   2.727  1.00  0.00     0.032 C 
ENDROOT
BRANCH   1   8
HETATM    8  C   UNL     1      40.893 -12.239   4.553  1.00  0.00     0.014 A 
HETATM    9  C   UNL     1      40.564 -12.679   5.826  1.00  0.00     0.034 A 
HETATM   10  C   UNL     1      40.117 -14.000   6.328  1.00  0.00     0.070 C 
HETATM   11  N   UNL     1      40.704 -11.601   6.652  1.00  0.00    -0.282 N 
HETATM   12  H   UNL     1      40.529 -11.549   7.649  1.00  0.00     0.189 HD
HETATM   13  N   UNL     1      41.142 -10.501   6.030  1.00  0.00    -0.179 NA
HETATM   14  C   UNL     1      41.252 -10.870   4.748  1.00  0.00     0.061 A 
HETATM   15  C   UNL     1      41.714  -9.874   3.751  1.00  0.00     0.073 C 
ENDBRANCH   1   8
BRANCH   3  16
HETATM   16  C   UNL     1      43.131 -16.052   4.032  1.00  0.00     0.108 A 
HETATM   17  C   UNL     1      43.521 -16.504   5.378  1.00  0.00     0.304 A 
HETATM   18  O   UNL     1      43.550 -15.748   6.344  1.00  0.00    -0.259 OA
HETATM   19  O   UNL     1      43.907 -17.837   5.498  1.00  0.00    -0.274 OA
HETATM   20  C   UNL     1      43.834 -18.727   4.411  1.00  0.00     0.089 A 
HETATM   21  C   UNL     1      43.394 -18.291   3.162  1.00  0.00    -0.001 A 
HETATM   22  C   UNL     1      44.202 -20.051   4.637  1.00  0.00     0.038 A 
HETATM   23  C   UNL     1      43.305 -19.215   2.119  1.00  0.00     0.014 A 
HETATM   24  C   UNL     1      43.046 -16.892   2.990  1.00  0.00     0.037 A 
HETATM   25  C   UNL     1      43.663 -20.550   2.335  1.00  0.00     0.001 A 
HETATM   26  C   UNL     1      44.115 -20.966   3.590  1.00  0.00     0.003 A 
ENDBRANCH   3  16
TORSDOF 2
ENDMDL
MODEL 4
REMARK VINA RESULT:      -8.8      4.233      7.268
REMARK  2 active torsions:
REMARK  status: ('A' for Active; 'I' for Inactive)
REMARK    1  A    between atoms: C_8  and  C_9 
REMARK       I    between atoms: N_10  and  C_11 
REMARK    2  A    between atoms: C_11  and  C_12 
ROOT
HETATM    1  C   UNL     1      43.216 -15.747   4.541  1.00  0.00     0.124 C 
HETATM    2  N   UNL     1      43.302 -14.564   5.395  1.00  0.00    -0.339 N 
HETATM    3  C   UNL     1      43.365 -13.302   4.838  1.00  0.00     0.260 C 
HETATM    4  O   UNL     1      43.299 -13.089   3.628  1.00  0.00    -0.267 OA
HETATM    5  C   UNL     1      43.657 -14.937   6.759  1.00  0.00     0.127 C 
HETATM    6  C   UNL     1      44.309 -16.302   6.606  1.00  0.00     0.022 C 
HETATM    7  C   UNL     1      43.511 -16.931   5.474  1.00  0.00     0.032 C 
ENDROOT
BRANCH   1   8
HETATM    8  C   UNL     1      41.876 -15.879   3.877  1.00  0.00     0.014 A 
HETATM    9  C   UNL     1      40.651 -16.008   4.513  1.00  0.00     0.034 A 
HETATM   10  C   UNL     1      40.287 -16.076   5.947  1.00  0.00     0.070 C 
HETATM   11  N   UNL     1      39.714 -16.094   3.524  1.00  0.00    -0.282 N 
HETATM   12  H   UNL     1      38.711 -16.215   3.620  1.00  0.00     0.189 HD
HETATM   13  N   UNL     1      40.221 -15.986   2.292  1.00  0.00    -0.179 NA
HETATM   14  C   UNL     1      41.539 -15.865   2.488  1.00  0.00     0.061 A 
HETATM   15  C   UNL     1      42.433 -15.731   1.312  1.00  0.00     0.073 C 
ENDBRANCH   1   8
BRANCH   3  16
HETATM   16  C   UNL     1      43.406 -12.150   5.766  1.00  0.00     0.108 A 
HETATM   17  C   UNL     1      42.175 -11.528   6.281  1.00  0.00     0.304 A 
HETATM   18  O   UNL     1      41.056 -11.911   5.953  1.00  0.00    -0.259 OA
HETATM   19  O   UNL     1      42.338 -10.438   7.133  1.00  0.00    -0.274 OA
HETATM   20  C   UNL     1      43.613 -10.017   7.555  1.00  0.00     0.089 A 
HETATM   21  C   UNL     1      44.762 -10.666   7.109  1.00  0.00    -0.001 A 
HETATM   22  C   UNL     1      43.675  -8.944   8.441  1.00  0.00     0.038 A 
HETATM   23  C   UNL     1      46.004 -10.237   7.579  1.00  0.00     0.014 A 
HETATM   24  C   UNL     1      44.626 -11.765   6.168  1.00  0.00     0.037 A 
HETATM   25  C   UNL     1      46.081  -9.166   8.475  1.00  0.00     0.001 A 
HETATM   26  C   UNL     1      44.919  -8.518   8.902  1.00  0.00     0.003 A 
ENDBRANCH   3  16
TORSDOF 2
ENDMDL
MODEL 5
REMARK VINA RESULT:      -8.6      1.812      2.752
REMARK  2 active torsions:
REMARK  status: ('A' for Active; 'I' for Inactive)
REMARK    1  A    between atoms: C_8  and  C_9 
REMARK       I    between atoms: N_10  and  C_11 
REMARK    2  A    between atoms: C_11  and  C_12 
ROOT
HETATM    1  C   UNL     1      41.399 -11.898   3.476  1.00  0.00     0.124 C 
HETATM    2  N   UNL     1      42.097 -13.177   3.593  1.00  0.00    -0.339 N 
HETATM    3  C   UNL     1      41.531 -14.222   4.297  1.00  0.00     0.260 C 
HETATM    4  O   UNL     1      40.414 -14.169   4.809  1.00  0.00    -0.267 OA
HETATM    5  C   UNL     1      43.497 -13.037   3.209  1.00  0.00     0.127 C 
HETATM    6  C   UNL     1      43.772 -11.551   3.370  1.00  0.00     0.022 C 
HETATM    7  C   UNL     1      42.456 -10.916   2.948  1.00  0.00     0.032 C 
ENDROOT
BRANCH   1   8
HETATM    8  C   UNL     1      40.205 -11.977   2.569  1.00  0.00     0.014 A 
HETATM    9  C   UNL     1      40.090 -12.753   1.426  1.00  0.00     0.034 A 
HETATM   10  C   UNL     1      41.040 -13.673   0.760  1.00  0.00     0.070 C 
HETATM   11  N   UNL     1      38.843 -12.513   0.925  1.00  0.00    -0.282 N 
HETATM   12  H   UNL     1      38.421 -12.895   0.086  1.00  0.00     0.189 HD
HETATM   13  N   UNL     1      38.114 -11.677   1.673  1.00  0.00    -0.179 NA
HETATM   14  C   UNL     1      38.934 -11.332   2.673  1.00  0.00     0.061 A 
HETATM   15  C   UNL     1      38.447 -10.388   3.709  1.00  0.00     0.073 C 
ENDBRANCH   1   8
BRANCH   3  16
HETATM   16  C   UNL     1      42.277 -15.499   4.335  1.00  0.00     0.108 A 
HETATM   17  C   UNL     1      43.060 -15.901   5.515  1.00  0.00     0.304 A 
HETATM   18  O   UNL     1      43.157 -15.194   6.514  1.00  0.00    -0.259 OA
HETATM   19  O   UNL     1      43.736 -17.117   5.429  1.00  0.00    -0.274 OA
HETATM   20  C   UNL     1      43.596 -17.959   4.310  1.00  0.00     0.089 A 
HETATM   21  C   UNL     1      42.792 -17.588   3.235  1.00  0.00    -0.001 A 
HETATM   22  C   UNL     1      44.278 -19.173   4.331  1.00  0.00     0.038 A 
HETATM   23  C   UNL     1      42.655 -18.469   2.160  1.00  0.00     0.014 A 
HETATM   24  C   UNL     1      42.127 -16.298   3.268  1.00  0.00     0.037 A 
HETATM   25  C   UNL     1      43.327 -19.696   2.172  1.00  0.00     0.001 A 
HETATM   26  C   UNL     1      44.140 -20.046   3.253  1.00  0.00     0.003 A 
ENDBRANCH   3  16
TORSDOF 2
ENDMDL
MODEL 6
REMARK VINA RESULT:      -8.5      2.815      6.887
REMARK  2 active torsions:
REMARK  status: ('A' for Active; 'I' for Inactive)
REMARK    1  A    between atoms: C_8  and  C_9 
REMARK       I    between atoms: N_10  and  C_11 
REMARK    2  A    between atoms: C_11  and  C_12 
ROOT
HETATM    1  C   UNL     1      41.686 -15.645   3.554  1.00  0.00     0.124 C 
HETATM    2  N   UNL     1      41.601 -14.986   2.252  1.00  0.00    -0.339 N 
HETATM    3  C   UNL     1      40.436 -14.354   1.863  1.00  0.00     0.260 C 
HETATM    4  O   UNL     1      39.443 -14.258   2.582  1.00  0.00    -0.267 OA
HETATM    5  C   UNL     1      42.701 -15.402   1.391  1.00  0.00     0.127 C 
HETATM    6  C   UNL     1      43.154 -16.723   1.989  1.00  0.00     0.022 C 
HETATM    7  C   UNL     1      42.959 -16.502   3.481  1.00  0.00     0.032 C 
ENDROOT
BRANCH   1   8
HETATM    8  C   UNL     1      41.734 -14.666   4.691  1.00  0.00     0.014 A 
HETATM    9  C   UNL     1      41.119 -14.808   5.925  1.00  0.00     0.034 A 
HETATM   10  C   UNL     1      40.260 -15.879   6.481  1.00  0.00     0.070 C 
HETATM   11  N   UNL     1      41.432 -13.688   6.639  1.00  0.00    -0.282 N 
HETATM   12  H   UNL     1      41.139 -13.441   7.578  1.00  0.00     0.189 HD
HETATM   13  N   UNL     1      42.240 -12.843   5.989  1.00  0.00    -0.179 NA
HETATM   14  C   UNL     1      42.425 -13.420   4.796  1.00  0.00     0.061 A 
HETATM   15  C   UNL     1      43.280 -12.739   3.793  1.00  0.00     0.073 C 
ENDBRANCH   1   8
BRANCH   3  16
HETATM   16  C   UNL     1      40.439 -13.671   0.550  1.00  0.00     0.108 A 
HETATM   17  C   UNL     1      39.875 -14.308  -0.653  1.00  0.00     0.304 A 
HETATM   18  O   UNL     1      39.399 -15.439  -0.638  1.00  0.00    -0.259 OA
HETATM   19  O   UNL     1      39.951 -13.577  -1.837  1.00  0.00    -0.274 OA
HETATM   20  C   UNL     1      40.451 -12.262  -1.859  1.00  0.00     0.089 A 
HETATM   21  C   UNL     1      40.914 -11.655  -0.694  1.00  0.00    -0.001 A 
HETATM   22  C   UNL     1      40.450 -11.595  -3.082  1.00  0.00     0.038 A 
HETATM   23  C   UNL     1      41.371 -10.337  -0.756  1.00  0.00     0.014 A 
HETATM   24  C   UNL     1      40.908 -12.415   0.543  1.00  0.00     0.037 A 
HETATM   25  C   UNL     1      41.367  -9.652  -1.976  1.00  0.00     0.001 A 
HETATM   26  C   UNL     1      40.911 -10.281  -3.138  1.00  0.00     0.003 A 
ENDBRANCH   3  16
TORSDOF 2
ENDMDL
MODEL 7
REMARK VINA RESULT:      -8.5      2.538      4.158
REMARK  2 active torsions:
REMARK  status: ('A' for Active; 'I' for Inactive)
REMARK    1  A    between atoms: C_8  and  C_9 
REMARK       I    between atoms: N_10  and  C_11 
REMARK    2  A    between atoms: C_11  and  C_12 
ROOT
HETATM    1  C   UNL     1      41.541 -11.526   5.995  1.00  0.00     0.124 C 
HETATM    2  N   UNL     1      41.912 -12.718   5.235  1.00  0.00    -0.339 N 
HETATM    3  C   UNL     1      41.235 -13.907   5.425  1.00  0.00     0.260 C 
HETATM    4  O   UNL     1      40.272 -14.027   6.179  1.00  0.00    -0.267 OA
HETATM    5  C   UNL     1      43.214 -12.543   4.605  1.00  0.00     0.127 C 
HETATM    6  C   UNL     1      43.871 -11.444   5.424  1.00  0.00     0.022 C 
HETATM    7  C   UNL     1      42.700 -10.541   5.778  1.00  0.00     0.032 C 
ENDROOT
BRANCH   1   8
HETATM    8  C   UNL     1      40.227 -10.949   5.554  1.00  0.00     0.014 A 
HETATM    9  C   UNL     1      39.198 -10.520   6.379  1.00  0.00     0.034 A 
HETATM   10  C   UNL     1      39.057 -10.507   7.853  1.00  0.00     0.070 C 
HETATM   11  N   UNL     1      38.207 -10.074   5.553  1.00  0.00    -0.282 N 
HETATM   12  H   UNL     1      37.298  -9.705   5.809  1.00  0.00     0.189 HD
HETATM   13  N   UNL     1      38.521 -10.134   4.255  1.00  0.00    -0.179 NA
HETATM   14  C   UNL     1      39.744 -10.676   4.237  1.00  0.00     0.061 A 
HETATM   15  C   UNL     1      40.412 -10.903   2.932  1.00  0.00     0.073 C 
ENDBRANCH   1   8
BRANCH   3  16
HETATM   16  C   UNL     1      41.638 -15.060   4.588  1.00  0.00     0.108 A 
HETATM   17  C   UNL     1      41.104 -15.252   3.230  1.00  0.00     0.304 A 
HETATM   18  O   UNL     1      40.283 -14.488   2.730  1.00  0.00    -0.259 OA
HETATM   19  O   UNL     1      41.541 -16.384   2.544  1.00  0.00    -0.274 OA
HETATM   20  C   UNL     1      42.515 -17.242   3.085  1.00  0.00     0.089 A 
HETATM   21  C   UNL     1      43.058 -17.000   4.345  1.00  0.00    -0.001 A 
HETATM   22  C   UNL     1      42.920 -18.325   2.309  1.00  0.00     0.038 A 
HETATM   23  C   UNL     1      44.047 -17.858   4.830  1.00  0.00     0.014 A 
HETATM   24  C   UNL     1      42.574 -15.864   5.111  1.00  0.00     0.037 A 
HETATM   25  C   UNL     1      44.470 -18.945   4.057  1.00  0.00     0.001 A 
HETATM   26  C   UNL     1      43.904 -19.181   2.801  1.00  0.00     0.003 A 
ENDBRANCH   3  16
TORSDOF 2
ENDMDL
MODEL 8
REMARK VINA RESULT:      -8.4      3.448      6.136
REMARK  2 active torsions:
REMARK  status: ('A' for Active; 'I' for Inactive)
REMARK    1  A    between atoms: C_8  and  C_9 
REMARK       I    between atoms: N_10  and  C_11 
REMARK    2  A    between atoms: C_11  and  C_12 
ROOT
HETATM    1  C   UNL     1      41.433 -12.588   5.374  1.00  0.00     0.124 C 
HETATM    2  N   UNL     1      40.865 -13.013   4.097  1.00  0.00    -0.339 N 
HETATM    3  C   UNL     1      41.690 -13.408   3.061  1.00  0.00     0.260 C 
HETATM    4  O   UNL     1      42.913 -13.479   3.157  1.00  0.00    -0.267 OA
HETATM    5  C   UNL     1      39.464 -12.622   4.000  1.00  0.00     0.127 C 
HETATM    6  C   UNL     1      39.331 -11.488   5.003  1.00  0.00     0.022 C 
HETATM    7  C   UNL     1      40.271 -11.915   6.120  1.00  0.00     0.032 C 
ENDROOT
BRANCH   1   8
HETATM    8  C   UNL     1      42.012 -13.732   6.155  1.00  0.00     0.014 A 
HETATM    9  C   UNL     1      43.282 -13.792   6.708  1.00  0.00     0.034 A 
HETATM   10  C   UNL     1      44.409 -12.831   6.695  1.00  0.00     0.070 C 
HETATM   11  N   UNL     1      43.374 -15.007   7.324  1.00  0.00    -0.282 N 
HETATM   12  H   UNL     1      44.167 -15.401   7.817  1.00  0.00     0.189 HD
HETATM   13  N   UNL     1      42.250 -15.729   7.258  1.00  0.00    -0.179 NA
HETATM   14  C   UNL     1      41.414 -14.971   6.539  1.00  0.00     0.061 A 
HETATM   15  C   UNL     1      40.048 -15.477   6.256  1.00  0.00     0.073 C 
ENDBRANCH   1   8
BRANCH   3  16
HETATM   16  C   UNL     1      41.041 -13.868   1.813  1.00  0.00     0.108 A 
HETATM   17  C   UNL     1      40.318 -15.149   1.744  1.00  0.00     0.304 A 
HETATM   18  O   UNL     1      40.235 -15.911   2.703  1.00  0.00    -0.259 OA
HETATM   19  O   UNL     1      39.764 -15.485   0.510  1.00  0.00    -0.274 OA
HETATM   20  C   UNL     1      39.810 -14.600  -0.583  1.00  0.00     0.089 A 
HETATM   21  C   UNL     1      40.439 -13.363  -0.473  1.00  0.00    -0.001 A 
HETATM   22  C   UNL     1      39.193 -15.006  -1.764  1.00  0.00     0.038 A 
HETATM   23  C   UNL     1      40.433 -12.502  -1.573  1.00  0.00     0.014 A 
HETATM   24  C   UNL     1      41.083 -13.012   0.781  1.00  0.00     0.037 A 
HETATM   25  C   UNL     1      39.809 -12.893  -2.762  1.00  0.00     0.001 A 
HETATM   26  C   UNL     1      39.194 -14.144  -2.859  1.00  0.00     0.003 A 
ENDBRANCH   3  16
TORSDOF 2
ENDMDL
MODEL 9
REMARK VINA RESULT:      -8.4      2.292      3.402
REMARK  2 active torsions:
REMARK  status: ('A' for Active; 'I' for Inactive)
REMARK    1  A    between atoms: C_8  and  C_9 
REMARK       I    between atoms: N_10  and  C_11 
REMARK    2  A    between atoms: C_11  and  C_12 
ROOT
HETATM    1  C   UNL     1      39.966 -11.563   1.815  1.00  0.00     0.124 C 
HETATM    2  N   UNL     1      40.869 -12.585   2.341  1.00  0.00    -0.339 N 
HETATM    3  C   UNL     1      40.367 -13.679   3.020  1.00  0.00     0.260 C 
HETATM    4  O   UNL     1      39.166 -13.890   3.174  1.00  0.00    -0.267 OA
HETATM    5  C   UNL     1      42.244 -12.101   2.356  1.00  0.00     0.127 C 
HETATM    6  C   UNL     1      42.098 -10.589   2.335  1.00  0.00     0.022 C 
HETATM    7  C   UNL     1      40.877 -10.380   1.453  1.00  0.00     0.032 C 
ENDROOT
BRANCH   1   8
HETATM    8  C   UNL     1      39.180 -12.046   0.631  1.00  0.00     0.014 A 
HETATM    9  C   UNL     1      37.890 -11.668   0.290  1.00  0.00     0.034 A 
HETATM   10  C   UNL     1      36.928 -10.749   0.941  1.00  0.00     0.070 C 
HETATM   11  N   UNL     1      37.581 -12.350  -0.851  1.00  0.00    -0.282 N 
HETATM   12  H   UNL     1      36.712 -12.333  -1.375  1.00  0.00     0.189 HD
HETATM   13  N   UNL     1      38.580 -13.110  -1.311  1.00  0.00    -0.179 NA
HETATM   14  C   UNL     1      39.558 -12.945  -0.413  1.00  0.00     0.061 A 
HETATM   15  C   UNL     1      40.841 -13.666  -0.606  1.00  0.00     0.073 C 
ENDBRANCH   1   8
BRANCH   3  16
HETATM   16  C   UNL     1      41.338 -14.695   3.485  1.00  0.00     0.108 A 
HETATM   17  C   UNL     1      41.963 -14.612   4.816  1.00  0.00     0.304 A 
HETATM   18  O   UNL     1      41.735 -13.692   5.595  1.00  0.00    -0.259 OA
HETATM   19  O   UNL     1      42.877 -15.615   5.137  1.00  0.00    -0.274 OA
HETATM   20  C   UNL     1      43.112 -16.700   4.273  1.00  0.00     0.089 A 
HETATM   21  C   UNL     1      42.455 -16.793   3.049  1.00  0.00    -0.001 A 
HETATM   22  C   UNL     1      44.012 -17.675   4.698  1.00  0.00     0.038 A 
HETATM   23  C   UNL     1      42.694 -17.904   2.238  1.00  0.00     0.014 A 
HETATM   24  C   UNL     1      41.546 -15.729   2.658  1.00  0.00     0.037 A 
HETATM   25  C   UNL     1      43.588 -18.895   2.655  1.00  0.00     0.001 A 
HETATM   26  C   UNL     1      44.249 -18.779   3.881  1.00  0.00     0.003 A 
ENDBRANCH   3  16
TORSDOF 2
ENDMDL
MODEL 10
REMARK VINA RESULT:      -8.4      2.641      4.039
REMARK  2 active torsions:
REMARK  status: ('A' for Active; 'I' for Inactive)
REMARK    1  A    between atoms: C_8  and  C_9 
REMARK       I    between atoms: N_10  and  C_11 
REMARK    2  A    between atoms: C_11  and  C_12 
ROOT
HETATM    1  C   UNL     1      41.723 -11.500   6.273  1.00  0.00     0.124 C 
HETATM    2  N   UNL     1      42.065 -12.674   5.472  1.00  0.00    -0.339 N 
HETATM    3  C   UNL     1      41.367 -13.856   5.630  1.00  0.00     0.260 C 
HETATM    4  O   UNL     1      40.406 -13.981   6.387  1.00  0.00    -0.267 OA
HETATM    5  C   UNL     1      43.367 -12.505   4.839  1.00  0.00     0.127 C 
HETATM    6  C   UNL     1      44.051 -11.445   5.687  1.00  0.00     0.022 C 
HETATM    7  C   UNL     1      42.899 -10.532   6.078  1.00  0.00     0.032 C 
ENDROOT
BRANCH   1   8
HETATM    8  C   UNL     1      40.417 -10.885   5.859  1.00  0.00     0.014 A 
HETATM    9  C   UNL     1      40.017 -10.597   4.564  1.00  0.00     0.034 A 
HETATM   10  C   UNL     1      40.700 -10.767   3.260  1.00  0.00     0.070 C 
HETATM   11  N   UNL     1      38.769 -10.053   4.661  1.00  0.00    -0.282 N 
HETATM   12  H   UNL     1      38.176  -9.707   3.914  1.00  0.00     0.189 HD
HETATM   13  N   UNL     1      38.300 -10.004   5.912  1.00  0.00    -0.179 NA
HETATM   14  C   UNL     1      39.297 -10.496   6.656  1.00  0.00     0.061 A 
HETATM   15  C   UNL     1      39.122 -10.582   8.127  1.00  0.00     0.073 C 
ENDBRANCH   1   8
BRANCH   3  16
HETATM   16  C   UNL     1      41.741 -14.989   4.754  1.00  0.00     0.108 A 
HETATM   17  C   UNL     1      41.226 -15.106   3.380  1.00  0.00     0.304 A 
HETATM   18  O   UNL     1      40.444 -14.292   2.898  1.00  0.00    -0.259 OA
HETATM   19  O   UNL     1      41.633 -16.226   2.657  1.00  0.00    -0.274 OA
HETATM   20  C   UNL     1      42.564 -17.142   3.179  1.00  0.00     0.089 A 
HETATM   21  C   UNL     1      43.092 -16.971   4.457  1.00  0.00    -0.001 A 
HETATM   22  C   UNL     1      42.942 -18.208   2.367  1.00  0.00     0.038 A 
HETATM   23  C   UNL     1      44.039 -17.885   4.923  1.00  0.00     0.014 A 
HETATM   24  C   UNL     1      42.637 -15.849   5.260  1.00  0.00     0.037 A 
HETATM   25  C   UNL     1      44.434 -18.956   4.115  1.00  0.00     0.001 A 
HETATM   26  C   UNL     1      43.884 -19.120   2.841  1.00  0.00     0.003 A 
ENDBRANCH   3  16
TORSDOF 2
ENDMDL
