MODEL 1
REMARK VINA RESULT:      -9.6      0.000      0.000
REMARK  6 active torsions:
REMARK  status: ('A' for Active; 'I' for Inactive)
REMARK    1  A    between atoms: C_9  and  C_10 
REMARK       I    between atoms: C_10  and  N_11 
REMARK    2  A    between atoms: N_11  and  N_12 
REMARK       I    between atoms: N_12  and  C_13 
REMARK    3  A    between atoms: C_13  and  C_14 
REMARK    4  A    between atoms: C_14  and  O_15 
REMARK    5  A    between atoms: O_15  and  C_16 
REMARK    6  A    between atoms: C_17  and  C_18 
ROOT
HETATM    1  N   UNL     1      43.815 -14.891   6.184  1.00  0.00    -0.265 N 
HETATM    2  C   UNL     1      43.319 -15.903   6.987  1.00  0.00     0.260 C 
HETATM    3  O   UNL     1      43.065 -15.764   8.183  1.00  0.00    -0.269 OA
HETATM    4  H   UNL     1      44.202 -15.080   5.263  1.00  0.00     0.190 HD
ENDROOT
BRANCH   1   5
HETATM    5  N   UNL     1      44.149 -13.671   6.776  1.00  0.00    -0.262 N 
HETATM    6  C   UNL     1      44.095 -12.500   6.037  1.00  0.00     0.291 C 
HETATM    7  O   UNL     1      43.566 -12.422   4.930  1.00  0.00    -0.264 OA
HETATM    8  H   UNL     1      44.792 -13.684   7.570  1.00  0.00     0.190 HD
BRANCH   6   9
HETATM    9  C   UNL     1      44.729 -11.369   6.732  1.00  0.00     0.158 A 
HETATM   10  C   UNL     1      44.099 -10.329   7.479  1.00  0.00     0.029 A 
HETATM   11  C   UNL     1      42.776  -9.970   7.813  1.00  0.00     0.023 A 
HETATM   12  C   UNL     1      45.142  -9.534   7.942  1.00  0.00     0.063 A 
HETATM   13  C   UNL     1      42.547  -8.832   8.607  1.00  0.00    -0.061 A 
HETATM   14  C   UNL     1      41.147  -8.411   8.951  1.00  0.00     0.048 C 
HETATM   15  C   UNL     1      43.629  -8.062   9.052  1.00  0.00     0.009 A 
HETATM   16  C   UNL     1      44.948  -8.398   8.731  1.00  0.00     0.032 A 
HETATM   17  N   UNL     1      46.280 -10.112   7.457  1.00  0.00    -0.277 N 
HETATM   18  H   UNL     1      47.235  -9.799   7.596  1.00  0.00     0.189 HD
HETATM   19  N   UNL     1      46.073 -11.216   6.720  1.00  0.00    -0.168 NA
ENDBRANCH   6   9
ENDBRANCH   1   5
BRANCH   2  20
HETATM   20  C   UNL     1      43.099 -17.217   6.242  1.00  0.00     0.280 C 
BRANCH  20  21
HETATM   21  O   UNL     1      43.980 -17.380   5.143  1.00  0.00    -0.341 OA
BRANCH  21  22
HETATM   22  C   UNL     1      43.809 -18.451   4.300  1.00  0.00     0.080 A 
HETATM   23  C   UNL     1      43.183 -18.179   3.061  1.00  0.00     0.007 A 
HETATM   24  C   UNL     1      42.999 -19.241   2.152  1.00  0.00     0.015 A 
HETATM   25  C   UNL     1      43.411 -20.537   2.456  1.00  0.00     0.001 A 
HETATM   26  C   UNL     1      44.011 -20.796   3.681  1.00  0.00     0.003 A 
HETATM   27  C   UNL     1      44.210 -19.761   4.598  1.00  0.00     0.037 A 
BRANCH  23  28
HETATM   28  C   UNL     1      42.699 -16.834   2.687  1.00  0.00    -0.023 A 
HETATM   29  C   UNL     1      41.402 -16.407   3.011  1.00  0.00     0.012 A 
HETATM   30  C   UNL     1      40.962 -15.125   2.671  1.00  0.00     0.001 A 
HETATM   31  C   UNL     1      41.813 -14.246   2.005  1.00  0.00     0.000 A 
HETATM   32  C   UNL     1      43.105 -14.650   1.677  1.00  0.00     0.001 A 
HETATM   33  C   UNL     1      43.543 -15.932   2.015  1.00  0.00     0.012 A 
ENDBRANCH  23  28
ENDBRANCH  21  22
ENDBRANCH  20  21
ENDBRANCH   2  20
TORSDOF 6
ENDMDL
MODEL 2
REMARK VINA RESULT:      -9.6      1.569      2.267
REMARK  6 active torsions:
REMARK  status: ('A' for Active; 'I' for Inactive)
REMARK    1  A    between atoms: C_9  and  C_10 
REMARK       I    between atoms: C_10  and  N_11 
REMARK    2  A    between atoms: N_11  and  N_12 
REMARK       I    between atoms: N_12  and  C_13 
REMARK    3  A    between atoms: C_13  and  C_14 
REMARK    4  A    between atoms: C_14  and  O_15 
REMARK    5  A    between atoms: O_15  and  C_16 
REMARK    6  A    between atoms: C_17  and  C_18 
ROOT
HETATM    1  N   UNL     1      42.221 -15.220   6.020  1.00  0.00    -0.265 N 
HETATM    2  C   UNL     1      42.809 -16.004   6.997  1.00  0.00     0.260 C 
HETATM    3  O   UNL     1      42.930 -15.657   8.171  1.00  0.00    -0.269 OA
HETATM    4  H   UNL     1      42.312 -15.438   5.032  1.00  0.00     0.190 HD
ENDROOT
BRANCH   1   5
HETATM    5  N   UNL     1      41.835 -13.919   6.351  1.00  0.00    -0.262 N 
HETATM    6  C   UNL     1      42.430 -12.836   5.724  1.00  0.00     0.291 C 
HETATM    7  O   UNL     1      43.144 -12.937   4.728  1.00  0.00    -0.264 OA
HETATM    8  H   UNL     1      41.450 -13.755   7.283  1.00  0.00     0.190 HD
BRANCH   6   9
HETATM    9  C   UNL     1      42.102 -11.559   6.378  1.00  0.00     0.158 A 
HETATM   10  C   UNL     1      42.988 -10.648   7.027  1.00  0.00     0.029 A 
HETATM   11  C   UNL     1      44.370 -10.592   7.304  1.00  0.00     0.023 A 
HETATM   12  C   UNL     1      42.180  -9.598   7.449  1.00  0.00     0.063 A 
HETATM   13  C   UNL     1      44.894  -9.480   7.989  1.00  0.00    -0.061 A 
HETATM   14  C   UNL     1      46.356  -9.411   8.323  1.00  0.00     0.048 C 
HETATM   15  C   UNL     1      44.042  -8.445   8.395  1.00  0.00     0.009 A 
HETATM   16  C   UNL     1      42.669  -8.481   8.131  1.00  0.00     0.032 A 
HETATM   17  N   UNL     1      40.916  -9.933   7.057  1.00  0.00    -0.277 N 
HETATM   18  H   UNL     1      40.067  -9.398   7.200  1.00  0.00     0.189 HD
HETATM   19  N   UNL     1      40.826 -11.108   6.413  1.00  0.00    -0.168 NA
ENDBRANCH   6   9
ENDBRANCH   1   5
BRANCH   2  20
HETATM   20  C   UNL     1      43.285 -17.359   6.482  1.00  0.00     0.280 C 
BRANCH  20  21
HETATM   21  O   UNL     1      43.858 -17.285   5.187  1.00  0.00    -0.341 OA
BRANCH  21  22
HETATM   22  C   UNL     1      43.778 -18.375   4.355  1.00  0.00     0.080 A 
HETATM   23  C   UNL     1      43.199 -18.151   3.083  1.00  0.00     0.007 A 
HETATM   24  C   UNL     1      43.109 -19.234   2.184  1.00  0.00     0.015 A 
HETATM   25  C   UNL     1      43.566 -20.505   2.529  1.00  0.00     0.001 A 
HETATM   26  C   UNL     1      44.119 -20.716   3.785  1.00  0.00     0.003 A 
HETATM   27  C   UNL     1      44.226 -19.660   4.693  1.00  0.00     0.037 A 
BRANCH  23  28
HETATM   28  C   UNL     1      42.672 -16.837   2.665  1.00  0.00    -0.023 A 
HETATM   29  C   UNL     1      43.493 -15.882   2.045  1.00  0.00     0.012 A 
HETATM   30  C   UNL     1      42.978 -14.648   1.635  1.00  0.00     0.001 A 
HETATM   31  C   UNL     1      41.632 -14.352   1.834  1.00  0.00     0.000 A 
HETATM   32  C   UNL     1      40.799 -15.286   2.445  1.00  0.00     0.001 A 
HETATM   33  C   UNL     1      41.316 -16.517   2.856  1.00  0.00     0.012 A 
ENDBRANCH  23  28
ENDBRANCH  21  22
ENDBRANCH  20  21
ENDBRANCH   2  20
TORSDOF 6
ENDMDL
MODEL 3
REMARK VINA RESULT:      -9.4      1.461      3.465
REMARK  6 active torsions:
REMARK  status: ('A' for Active; 'I' for Inactive)
REMARK    1  A    between atoms: C_9  and  C_10 
REMARK       I    between atoms: C_10  and  N_11 
REMARK    2  A    between atoms: N_11  and  N_12 
REMARK       I    between atoms: N_12  and  C_13 
REMARK    3  A    between atoms: C_13  and  C_14 
REMARK    4  A    between atoms: C_14  and  O_15 
REMARK    5  A    between atoms: O_15  and  C_16 
REMARK    6  A    between atoms: C_17  and  C_18 
ROOT
HETATM    1  N   UNL     1      41.657 -13.906   6.319  1.00  0.00    -0.265 N 
HETATM    2  C   UNL     1      41.699 -15.271   6.541  1.00  0.00     0.260 C 
HETATM    3  O   UNL     1      42.511 -15.818   7.287  1.00  0.00    -0.269 OA
HETATM    4  H   UNL     1      41.119 -13.504   5.557  1.00  0.00     0.190 HD
ENDROOT
BRANCH   1   5
HETATM    5  N   UNL     1      42.654 -13.107   6.884  1.00  0.00    -0.262 N 
HETATM    6  C   UNL     1      42.883 -11.830   6.396  1.00  0.00     0.291 C 
HETATM    7  O   UNL     1      42.122 -11.255   5.620  1.00  0.00    -0.264 OA
HETATM    8  H   UNL     1      43.441 -13.572   7.340  1.00  0.00     0.190 HD
BRANCH   6   9
HETATM    9  C   UNL     1      44.127 -11.244   6.920  1.00  0.00     0.158 A 
HETATM   10  C   UNL     1      44.347 -10.638   8.194  1.00  0.00     0.029 A 
HETATM   11  C   UNL     1      43.571 -10.358   9.337  1.00  0.00     0.023 A 
HETATM   12  C   UNL     1      45.688 -10.273   8.192  1.00  0.00     0.063 A 
HETATM   13  C   UNL     1      44.171  -9.728  10.443  1.00  0.00    -0.061 A 
HETATM   14  C   UNL     1      43.359  -9.390  11.661  1.00  0.00     0.048 C 
HETATM   15  C   UNL     1      45.526  -9.379  10.398  1.00  0.00     0.009 A 
HETATM   16  C   UNL     1      46.314  -9.647   9.273  1.00  0.00     0.032 A 
HETATM   17  N   UNL     1      46.166 -10.654   6.971  1.00  0.00    -0.277 N 
HETATM   18  H   UNL     1      47.111 -10.543   6.619  1.00  0.00     0.189 HD
HETATM   19  N   UNL     1      45.256 -11.238   6.175  1.00  0.00    -0.168 NA
ENDBRANCH   6   9
ENDBRANCH   1   5
BRANCH   2  20
HETATM   20  C   UNL     1      40.624 -16.043   5.781  1.00  0.00     0.280 C 
BRANCH  20  21
HETATM   21  O   UNL     1      41.143 -16.758   4.671  1.00  0.00    -0.341 OA
BRANCH  21  22
HETATM   22  C   UNL     1      41.628 -16.059   3.592  1.00  0.00     0.080 A 
HETATM   23  C   UNL     1      42.615 -16.712   2.816  1.00  0.00     0.007 A 
HETATM   24  C   UNL     1      43.134 -16.045   1.687  1.00  0.00     0.015 A 
HETATM   25  C   UNL     1      42.700 -14.768   1.334  1.00  0.00     0.001 A 
HETATM   26  C   UNL     1      41.741 -14.132   2.110  1.00  0.00     0.003 A 
HETATM   27  C   UNL     1      41.207 -14.772   3.231  1.00  0.00     0.037 A 
BRANCH  23  28
HETATM   28  C   UNL     1      43.137 -18.053   3.150  1.00  0.00    -0.023 A 
HETATM   29  C   UNL     1      43.747 -18.314   4.387  1.00  0.00     0.012 A 
HETATM   30  C   UNL     1      44.219 -19.591   4.700  1.00  0.00     0.001 A 
HETATM   31  C   UNL     1      44.085 -20.631   3.783  1.00  0.00     0.000 A 
HETATM   32  C   UNL     1      43.481 -20.394   2.551  1.00  0.00     0.001 A 
HETATM   33  C   UNL     1      43.012 -19.116   2.238  1.00  0.00     0.012 A 
ENDBRANCH  23  28
ENDBRANCH  21  22
ENDBRANCH  20  21
ENDBRANCH   2  20
TORSDOF 6
ENDMDL
MODEL 4
REMARK VINA RESULT:      -9.3      2.245      3.062
REMARK  6 active torsions:
REMARK  status: ('A' for Active; 'I' for Inactive)
REMARK    1  A    between atoms: C_9  and  C_10 
REMARK       I    between atoms: C_10  and  N_11 
REMARK    2  A    between atoms: N_11  and  N_12 
REMARK       I    between atoms: N_12  and  C_13 
REMARK    3  A    between atoms: C_13  and  C_14 
REMARK    4  A    between atoms: C_14  and  O_15 
REMARK    5  A    between atoms: O_15  and  C_16 
REMARK    6  A    between atoms: C_17  and  C_18 
ROOT
HETATM    1  N   UNL     1      43.548 -12.743   7.547  1.00  0.00    -0.265 N 
HETATM    2  C   UNL     1      43.462 -13.232   6.255  1.00  0.00     0.260 C 
HETATM    3  O   UNL     1      43.339 -12.518   5.261  1.00  0.00    -0.269 OA
HETATM    4  H   UNL     1      43.447 -13.349   8.357  1.00  0.00     0.190 HD
ENDROOT
BRANCH   1   5
HETATM    5  N   UNL     1      43.381 -11.372   7.755  1.00  0.00    -0.262 N 
HETATM    6  C   UNL     1      44.327 -10.656   8.471  1.00  0.00     0.291 C 
HETATM    7  O   UNL     1      45.432 -11.104   8.771  1.00  0.00    -0.264 OA
HETATM    8  H   UNL     1      42.431 -10.998   7.748  1.00  0.00     0.190 HD
BRANCH   6   9
HETATM    9  C   UNL     1      43.863  -9.303   8.817  1.00  0.00     0.158 A 
HETATM   10  C   UNL     1      43.393  -8.829  10.078  1.00  0.00     0.029 A 
HETATM   11  C   UNL     1      43.179  -9.379  11.359  1.00  0.00     0.023 A 
HETATM   12  C   UNL     1      43.104  -7.485   9.874  1.00  0.00     0.063 A 
HETATM   13  C   UNL     1      42.690  -8.559  12.392  1.00  0.00    -0.061 A 
HETATM   14  C   UNL     1      42.425  -9.127  13.757  1.00  0.00     0.048 C 
HETATM   15  C   UNL     1      42.414  -7.209  12.140  1.00  0.00     0.009 A 
HETATM   16  C   UNL     1      42.618  -6.643  10.878  1.00  0.00     0.032 A 
HETATM   17  N   UNL     1      43.394  -7.247   8.561  1.00  0.00    -0.277 N 
HETATM   18  H   UNL     1      43.302  -6.370   8.060  1.00  0.00     0.189 HD
HETATM   19  N   UNL     1      43.849  -8.318   7.889  1.00  0.00    -0.168 NA
ENDBRANCH   6   9
ENDBRANCH   1   5
BRANCH   2  20
HETATM   20  C   UNL     1      43.550 -14.753   6.175  1.00  0.00     0.280 C 
BRANCH  20  21
HETATM   21  O   UNL     1      42.870 -15.284   5.049  1.00  0.00    -0.341 OA
BRANCH  21  22
HETATM   22  C   UNL     1      43.320 -16.454   4.485  1.00  0.00     0.080 A 
HETATM   23  C   UNL     1      42.940 -16.688   3.142  1.00  0.00     0.007 A 
HETATM   24  C   UNL     1      43.390 -17.866   2.511  1.00  0.00     0.015 A 
HETATM   25  C   UNL     1      44.184 -18.793   3.184  1.00  0.00     0.001 A 
HETATM   26  C   UNL     1      44.539 -18.560   4.505  1.00  0.00     0.003 A 
HETATM   27  C   UNL     1      44.111 -17.398   5.153  1.00  0.00     0.037 A 
BRANCH  23  28
HETATM   28  C   UNL     1      42.079 -15.760   2.381  1.00  0.00    -0.023 A 
HETATM   29  C   UNL     1      42.555 -14.514   1.941  1.00  0.00     0.012 A 
HETATM   30  C   UNL     1      41.737 -13.653   1.204  1.00  0.00     0.001 A 
HETATM   31  C   UNL     1      40.432 -14.024   0.891  1.00  0.00     0.000 A 
HETATM   32  C   UNL     1      39.942 -15.256   1.316  1.00  0.00     0.001 A 
HETATM   33  C   UNL     1      40.758 -16.115   2.054  1.00  0.00     0.012 A 
ENDBRANCH  23  28
ENDBRANCH  21  22
ENDBRANCH  20  21
ENDBRANCH   2  20
TORSDOF 6
ENDMDL
MODEL 5
REMARK VINA RESULT:      -9.1      1.314      1.593
REMARK  6 active torsions:
REMARK  status: ('A' for Active; 'I' for Inactive)
REMARK    1  A    between atoms: C_9  and  C_10 
REMARK       I    between atoms: C_10  and  N_11 
REMARK    2  A    between atoms: N_11  and  N_12 
REMARK       I    between atoms: N_12  and  C_13 
REMARK    3  A    between atoms: C_13  and  C_14 
REMARK    4  A    between atoms: C_14  and  O_15 
REMARK    5  A    between atoms: O_15  and  C_16 
REMARK    6  A    between atoms: C_17  and  C_18 
ROOT
HETATM    1  N   UNL     1      43.841 -14.174   6.518  1.00  0.00    -0.265 N 
HETATM    2  C   UNL     1      43.615 -15.406   7.108  1.00  0.00     0.260 C 
HETATM    3  O   UNL     1      43.059 -15.551   8.196  1.00  0.00    -0.269 OA
HETATM    4  H   UNL     1      44.472 -14.066   5.729  1.00  0.00     0.190 HD
ENDROOT
BRANCH   1   5
HETATM    5  N   UNL     1      43.520 -13.021   7.238  1.00  0.00    -0.262 N 
HETATM    6  C   UNL     1      44.410 -11.959   7.286  1.00  0.00     0.291 C 
HETATM    7  O   UNL     1      45.398 -11.870   6.559  1.00  0.00    -0.264 OA
HETATM    8  H   UNL     1      42.868 -13.109   8.019  1.00  0.00     0.190 HD
BRANCH   6   9
HETATM    9  C   UNL     1      44.031 -10.955   8.292  1.00  0.00     0.158 A 
HETATM   10  C   UNL     1      43.068  -9.909   8.173  1.00  0.00     0.029 A 
HETATM   11  C   UNL     1      42.196  -9.434   7.172  1.00  0.00     0.023 A 
HETATM   12  C   UNL     1      43.080  -9.266   9.407  1.00  0.00     0.063 A 
HETATM   13  C   UNL     1      41.360  -8.336   7.446  1.00  0.00    -0.061 A 
HETATM   14  C   UNL     1      40.444  -7.792   6.387  1.00  0.00     0.048 C 
HETATM   15  C   UNL     1      41.404  -7.721   8.703  1.00  0.00     0.009 A 
HETATM   16  C   UNL     1      42.263  -8.175   9.710  1.00  0.00     0.032 A 
HETATM   17  N   UNL     1      44.014  -9.928  10.151  1.00  0.00    -0.277 N 
HETATM   18  H   UNL     1      44.289  -9.731  11.107  1.00  0.00     0.189 HD
HETATM   19  N   UNL     1      44.612 -10.948   9.514  1.00  0.00    -0.168 NA
ENDBRANCH   6   9
ENDBRANCH   1   5
BRANCH   2  20
HETATM   20  C   UNL     1      44.111 -16.580   6.269  1.00  0.00     0.280 C 
BRANCH  20  21
HETATM   21  O   UNL     1      43.248 -16.884   5.185  1.00  0.00    -0.341 OA
BRANCH  21  22
HETATM   22  C   UNL     1      43.449 -18.041   4.472  1.00  0.00     0.080 A 
HETATM   23  C   UNL     1      43.111 -17.997   3.098  1.00  0.00     0.007 A 
HETATM   24  C   UNL     1      43.315 -19.153   2.317  1.00  0.00     0.015 A 
HETATM   25  C   UNL     1      43.830 -20.323   2.873  1.00  0.00     0.001 A 
HETATM   26  C   UNL     1      44.145 -20.359   4.224  1.00  0.00     0.003 A 
HETATM   27  C   UNL     1      43.957 -19.227   5.020  1.00  0.00     0.037 A 
BRANCH  23  28
HETATM   28  C   UNL     1      42.538 -16.797   2.454  1.00  0.00    -0.023 A 
HETATM   29  C   UNL     1      41.157 -16.675   2.233  1.00  0.00     0.012 A 
HETATM   30  C   UNL     1      40.623 -15.527   1.641  1.00  0.00     0.001 A 
HETATM   31  C   UNL     1      41.460 -14.480   1.265  1.00  0.00     0.000 A 
HETATM   32  C   UNL     1      42.833 -14.580   1.478  1.00  0.00     0.001 A 
HETATM   33  C   UNL     1      43.365 -15.729   2.067  1.00  0.00     0.012 A 
ENDBRANCH  23  28
ENDBRANCH  21  22
ENDBRANCH  20  21
ENDBRANCH   2  20
TORSDOF 6
ENDMDL
MODEL 6
REMARK VINA RESULT:      -9.1      2.195      3.489
REMARK  6 active torsions:
REMARK  status: ('A' for Active; 'I' for Inactive)
REMARK    1  A    between atoms: C_9  and  C_10 
REMARK       I    between atoms: C_10  and  N_11 
REMARK    2  A    between atoms: N_11  and  N_12 
REMARK       I    between atoms: N_12  and  C_13 
REMARK    3  A    between atoms: C_13  and  C_14 
REMARK    4  A    between atoms: C_14  and  O_15 
REMARK    5  A    between atoms: O_15  and  C_16 
REMARK    6  A    between atoms: C_17  and  C_18 
ROOT
HETATM    1  N   UNL     1      42.372 -14.677   3.598  1.00  0.00    -0.265 N 
HETATM    2  C   UNL     1      41.455 -15.615   3.159  1.00  0.00     0.260 C 
HETATM    3  O   UNL     1      40.242 -15.526   3.347  1.00  0.00    -0.269 OA
HETATM    4  H   UNL     1      43.370 -14.868   3.608  1.00  0.00     0.190 HD
ENDROOT
BRANCH   1   5
HETATM    5  N   UNL     1      41.918 -13.621   4.392  1.00  0.00    -0.262 N 
HETATM    6  C   UNL     1      42.749 -12.544   4.659  1.00  0.00     0.291 C 
HETATM    7  O   UNL     1      43.810 -12.344   4.070  1.00  0.00    -0.264 OA
HETATM    8  H   UNL     1      41.185 -13.815   5.074  1.00  0.00     0.190 HD
BRANCH   6   9
HETATM    9  C   UNL     1      42.212 -11.669   5.713  1.00  0.00     0.158 A 
HETATM   10  C   UNL     1      42.937 -10.867   6.646  1.00  0.00     0.029 A 
HETATM   11  C   UNL     1      44.293 -10.615   6.937  1.00  0.00     0.023 A 
HETATM   12  C   UNL     1      41.962 -10.224   7.401  1.00  0.00     0.063 A 
HETATM   13  C   UNL     1      44.625  -9.719   7.970  1.00  0.00    -0.061 A 
HETATM   14  C   UNL     1      46.061  -9.457   8.319  1.00  0.00     0.048 C 
HETATM   15  C   UNL     1      43.609  -9.094   8.703  1.00  0.00     0.009 A 
HETATM   16  C   UNL     1      42.258  -9.330   8.433  1.00  0.00     0.032 A 
HETATM   17  N   UNL     1      40.769 -10.667   6.906  1.00  0.00    -0.277 N 
HETATM   18  H   UNL     1      39.840 -10.408   7.219  1.00  0.00     0.189 HD
HETATM   19  N   UNL     1      40.877 -11.542   5.892  1.00  0.00    -0.168 NA
ENDBRANCH   6   9
ENDBRANCH   1   5
BRANCH   2  20
HETATM   20  C   UNL     1      42.090 -16.775   2.398  1.00  0.00     0.280 C 
BRANCH  20  21
HETATM   21  O   UNL     1      43.381 -17.108   2.881  1.00  0.00    -0.341 OA
BRANCH  21  22
HETATM   22  C   UNL     1      43.600 -18.360   3.402  1.00  0.00     0.080 A 
HETATM   23  C   UNL     1      43.633 -18.453   4.814  1.00  0.00     0.007 A 
HETATM   24  C   UNL     1      43.838 -19.720   5.400  1.00  0.00     0.015 A 
HETATM   25  C   UNL     1      44.013 -20.862   4.620  1.00  0.00     0.001 A 
HETATM   26  C   UNL     1      43.992 -20.756   3.237  1.00  0.00     0.003 A 
HETATM   27  C   UNL     1      43.786 -19.515   2.630  1.00  0.00     0.037 A 
BRANCH  23  28
HETATM   28  C   UNL     1      43.481 -17.279   5.697  1.00  0.00    -0.023 A 
HETATM   29  C   UNL     1      42.268 -17.003   6.346  1.00  0.00     0.012 A 
HETATM   30  C   UNL     1      42.141 -15.901   7.195  1.00  0.00     0.001 A 
HETATM   31  C   UNL     1      43.227 -15.058   7.414  1.00  0.00     0.000 A 
HETATM   32  C   UNL     1      44.442 -15.314   6.781  1.00  0.00     0.001 A 
HETATM   33  C   UNL     1      44.566 -16.415   5.931  1.00  0.00     0.012 A 
ENDBRANCH  23  28
ENDBRANCH  21  22
ENDBRANCH  20  21
ENDBRANCH   2  20
TORSDOF 6
ENDMDL
MODEL 7
REMARK VINA RESULT:      -9.0      3.355      4.478
REMARK  6 active torsions:
REMARK  status: ('A' for Active; 'I' for Inactive)
REMARK    1  A    between atoms: C_9  and  C_10 
REMARK       I    between atoms: C_10  and  N_11 
REMARK    2  A    between atoms: N_11  and  N_12 
REMARK       I    between atoms: N_12  and  C_13 
REMARK    3  A    between atoms: C_13  and  C_14 
REMARK    4  A    between atoms: C_14  and  O_15 
REMARK    5  A    between atoms: O_15  and  C_16 
REMARK    6  A    between atoms: C_17  and  C_18 
ROOT
HETATM    1  N   UNL     1      42.130 -14.760   5.387  1.00  0.00    -0.265 N 
HETATM    2  C   UNL     1      43.400 -14.926   5.912  1.00  0.00     0.260 C 
HETATM    3  O   UNL     1      44.022 -14.035   6.489  1.00  0.00    -0.269 OA
HETATM    4  H   UNL     1      41.723 -15.437   4.747  1.00  0.00     0.190 HD
ENDROOT
BRANCH   1   5
HETATM    5  N   UNL     1      41.558 -13.486   5.413  1.00  0.00    -0.262 N 
HETATM    6  C   UNL     1      40.307 -13.297   5.978  1.00  0.00     0.291 C 
HETATM    7  O   UNL     1      39.734 -14.147   6.657  1.00  0.00    -0.264 OA
HETATM    8  H   UNL     1      41.845 -12.817   4.697  1.00  0.00     0.190 HD
BRANCH   6   9
HETATM    9  C   UNL     1      39.753 -11.966   5.681  1.00  0.00     0.158 A 
HETATM   10  C   UNL     1      39.295 -11.463   4.427  1.00  0.00     0.029 A 
HETATM   11  C   UNL     1      39.205 -11.946   3.105  1.00  0.00     0.023 A 
HETATM   12  C   UNL     1      38.853 -10.172   4.696  1.00  0.00     0.063 A 
HETATM   13  C   UNL     1      38.667 -11.120   2.101  1.00  0.00    -0.061 A 
HETATM   14  C   UNL     1      38.589 -11.600   0.680  1.00  0.00     0.048 C 
HETATM   15  C   UNL     1      38.234  -9.827   2.418  1.00  0.00     0.009 A 
HETATM   16  C   UNL     1      38.315  -9.327   3.722  1.00  0.00     0.032 A 
HETATM   17  N   UNL     1      39.074  -9.984   6.030  1.00  0.00    -0.277 N 
HETATM   18  H   UNL     1      38.873  -9.153   6.575  1.00  0.00     0.189 HD
HETATM   19  N   UNL     1      39.619 -11.040   6.658  1.00  0.00    -0.168 NA
ENDBRANCH   6   9
ENDBRANCH   1   5
BRANCH   2  20
HETATM   20  C   UNL     1      43.956 -16.334   5.723  1.00  0.00     0.280 C 
BRANCH  20  21
HETATM   21  O   UNL     1      42.961 -17.272   5.344  1.00  0.00    -0.341 OA
BRANCH  21  22
HETATM   22  C   UNL     1      43.305 -18.320   4.525  1.00  0.00     0.080 A 
HETATM   23  C   UNL     1      43.114 -18.119   3.137  1.00  0.00     0.007 A 
HETATM   24  C   UNL     1      43.468 -19.158   2.252  1.00  0.00     0.015 A 
HETATM   25  C   UNL     1      43.987 -20.365   2.718  1.00  0.00     0.001 A 
HETATM   26  C   UNL     1      44.158 -20.556   4.082  1.00  0.00     0.003 A 
HETATM   27  C   UNL     1      43.820 -19.541   4.981  1.00  0.00     0.037 A 
BRANCH  23  28
HETATM   28  C   UNL     1      42.544 -16.876   2.581  1.00  0.00    -0.023 A 
HETATM   29  C   UNL     1      41.156 -16.681   2.494  1.00  0.00     0.012 A 
HETATM   30  C   UNL     1      40.627 -15.492   1.984  1.00  0.00     0.001 A 
HETATM   31  C   UNL     1      41.477 -14.476   1.556  1.00  0.00     0.000 A 
HETATM   32  C   UNL     1      42.857 -14.647   1.635  1.00  0.00     0.001 A 
HETATM   33  C   UNL     1      43.384 -15.837   2.143  1.00  0.00     0.012 A 
ENDBRANCH  23  28
ENDBRANCH  21  22
ENDBRANCH  20  21
ENDBRANCH   2  20
TORSDOF 6
ENDMDL
MODEL 8
REMARK VINA RESULT:      -9.0      3.063      9.340
REMARK  6 active torsions:
REMARK  status: ('A' for Active; 'I' for Inactive)
REMARK    1  A    between atoms: C_9  and  C_10 
REMARK       I    between atoms: C_10  and  N_11 
REMARK    2  A    between atoms: N_11  and  N_12 
REMARK       I    between atoms: N_12  and  C_13 
REMARK    3  A    between atoms: C_13  and  C_14 
REMARK    4  A    between atoms: C_14  and  O_15 
REMARK    5  A    between atoms: O_15  and  C_16 
REMARK    6  A    between atoms: C_17  and  C_18 
ROOT
HETATM    1  N   UNL     1      40.251 -10.997   7.254  1.00  0.00    -0.265 N 
HETATM    2  C   UNL     1      39.610  -9.773   7.328  1.00  0.00     0.260 C 
HETATM    3  O   UNL     1      38.664  -9.452   6.610  1.00  0.00    -0.269 OA
HETATM    4  H   UNL     1      41.144 -11.163   7.711  1.00  0.00     0.190 HD
ENDROOT
BRANCH   1   5
HETATM    5  N   UNL     1      39.881 -11.884   6.240  1.00  0.00    -0.262 N 
HETATM    6  C   UNL     1      40.842 -12.657   5.608  1.00  0.00     0.291 C 
HETATM    7  O   UNL     1      41.995 -12.777   6.019  1.00  0.00    -0.264 OA
HETATM    8  H   UNL     1      39.035 -11.678   5.707  1.00  0.00     0.190 HD
BRANCH   6   9
HETATM    9  C   UNL     1      40.322 -13.323   4.402  1.00  0.00     0.158 A 
HETATM   10  C   UNL     1      40.851 -14.465   3.729  1.00  0.00     0.029 A 
HETATM   11  C   UNL     1      41.958 -15.322   3.891  1.00  0.00     0.023 A 
HETATM   12  C   UNL     1      39.978 -14.696   2.672  1.00  0.00     0.063 A 
HETATM   13  C   UNL     1      42.148 -16.387   2.991  1.00  0.00    -0.061 A 
HETATM   14  C   UNL     1      43.336 -17.295   3.123  1.00  0.00     0.048 C 
HETATM   15  C   UNL     1      41.242 -16.582   1.941  1.00  0.00     0.009 A 
HETATM   16  C   UNL     1      40.137 -15.743   1.761  1.00  0.00     0.032 A 
HETATM   17  N   UNL     1      39.030 -13.717   2.763  1.00  0.00    -0.277 N 
HETATM   18  H   UNL     1      38.234 -13.575   2.153  1.00  0.00     0.189 HD
HETATM   19  N   UNL     1      39.205 -12.868   3.789  1.00  0.00    -0.168 NA
ENDBRANCH   6   9
ENDBRANCH   1   5
BRANCH   2  20
HETATM   20  C   UNL     1      40.179  -8.855   8.406  1.00  0.00     0.280 C 
BRANCH  20  21
HETATM   21  O   UNL     1      41.508  -9.191   8.769  1.00  0.00    -0.341 OA
BRANCH  21  22
HETATM   22  C   UNL     1      41.794  -9.468  10.084  1.00  0.00     0.080 A 
HETATM   23  C   UNL     1      43.121  -9.872  10.365  1.00  0.00     0.007 A 
HETATM   24  C   UNL     1      43.471 -10.151  11.702  1.00  0.00     0.015 A 
HETATM   25  C   UNL     1      42.540 -10.045  12.734  1.00  0.00     0.001 A 
HETATM   26  C   UNL     1      41.238  -9.661  12.445  1.00  0.00     0.003 A 
HETATM   27  C   UNL     1      40.866  -9.373  11.130  1.00  0.00     0.037 A 
BRANCH  23  28
HETATM   28  C   UNL     1      44.148 -10.030   9.315  1.00  0.00    -0.023 A 
HETATM   29  C   UNL     1      45.192  -9.103   9.167  1.00  0.00     0.012 A 
HETATM   30  C   UNL     1      46.170  -9.274   8.183  1.00  0.00     0.001 A 
HETATM   31  C   UNL     1      46.123 -10.376   7.333  1.00  0.00     0.000 A 
HETATM   32  C   UNL     1      45.096 -11.308   7.464  1.00  0.00     0.001 A 
HETATM   33  C   UNL     1      44.118 -11.135   8.446  1.00  0.00     0.012 A 
ENDBRANCH  23  28
ENDBRANCH  21  22
ENDBRANCH  20  21
ENDBRANCH   2  20
TORSDOF 6
ENDMDL
MODEL 9
REMARK VINA RESULT:      -8.8      4.988      8.703
REMARK  6 active torsions:
REMARK  status: ('A' for Active; 'I' for Inactive)
REMARK    1  A    between atoms: C_9  and  C_10 
REMARK       I    between atoms: C_10  and  N_11 
REMARK    2  A    between atoms: N_11  and  N_12 
REMARK       I    between atoms: N_12  and  C_13 
REMARK    3  A    between atoms: C_13  and  C_14 
REMARK    4  A    between atoms: C_14  and  O_15 
REMARK    5  A    between atoms: O_15  and  C_16 
REMARK    6  A    between atoms: C_17  and  C_18 
ROOT
HETATM    1  N   UNL     1      39.478 -13.384   1.927  1.00  0.00    -0.265 N 
HETATM    2  C   UNL     1      39.485 -12.034   1.621  1.00  0.00     0.260 C 
HETATM    3  O   UNL     1      40.396 -11.267   1.929  1.00  0.00    -0.269 OA
HETATM    4  H   UNL     1      38.637 -13.948   1.843  1.00  0.00     0.190 HD
ENDROOT
BRANCH   1   5
HETATM    5  N   UNL     1      40.509 -13.893   2.721  1.00  0.00    -0.262 N 
HETATM    6  C   UNL     1      41.410 -14.804   2.192  1.00  0.00     0.291 C 
HETATM    7  O   UNL     1      41.497 -15.052   0.990  1.00  0.00    -0.264 OA
HETATM    8  H   UNL     1      40.366 -13.922   3.731  1.00  0.00     0.190 HD
BRANCH   6   9
HETATM    9  C   UNL     1      42.249 -15.428   3.227  1.00  0.00     0.158 A 
HETATM   10  C   UNL     1      42.817 -16.738   3.229  1.00  0.00     0.029 A 
HETATM   11  C   UNL     1      42.806 -17.856   2.370  1.00  0.00     0.023 A 
HETATM   12  C   UNL     1      43.534 -16.817   4.418  1.00  0.00     0.063 A 
HETATM   13  C   UNL     1      43.522 -19.012   2.729  1.00  0.00    -0.061 A 
HETATM   14  C   UNL     1      43.502 -20.227   1.847  1.00  0.00     0.048 C 
HETATM   15  C   UNL     1      44.231 -19.047   3.937  1.00  0.00     0.009 A 
HETATM   16  C   UNL     1      44.254 -17.950   4.804  1.00  0.00     0.032 A 
HETATM   17  N   UNL     1      43.351 -15.612   5.033  1.00  0.00    -0.277 N 
HETATM   18  H   UNL     1      43.729 -15.314   5.926  1.00  0.00     0.189 HD
HETATM   19  N   UNL     1      42.580 -14.750   4.350  1.00  0.00    -0.168 NA
ENDBRANCH   6   9
ENDBRANCH   1   5
BRANCH   2  20
HETATM   20  C   UNL     1      38.251 -11.582   0.845  1.00  0.00     0.280 C 
BRANCH  20  21
HETATM   21  O   UNL     1      38.548 -11.210  -0.491  1.00  0.00    -0.341 OA
BRANCH  21  22
HETATM   22  C   UNL     1      39.137 -12.127  -1.327  1.00  0.00     0.080 A 
HETATM   23  C   UNL     1      40.274 -11.682  -2.043  1.00  0.00     0.007 A 
HETATM   24  C   UNL     1      40.926 -12.591  -2.902  1.00  0.00     0.015 A 
HETATM   25  C   UNL     1      40.468 -13.898  -3.060  1.00  0.00     0.001 A 
HETATM   26  C   UNL     1      39.344 -14.319  -2.363  1.00  0.00     0.003 A 
HETATM   27  C   UNL     1      38.682 -13.441  -1.502  1.00  0.00     0.037 A 
BRANCH  23  28
HETATM   28  C   UNL     1      40.794 -10.304  -1.941  1.00  0.00    -0.023 A 
HETATM   29  C   UNL     1      41.724  -9.943  -0.953  1.00  0.00     0.012 A 
HETATM   30  C   UNL     1      42.225  -8.640  -0.879  1.00  0.00     0.001 A 
HETATM   31  C   UNL     1      41.807  -7.677  -1.794  1.00  0.00     0.000 A 
HETATM   32  C   UNL     1      40.886  -8.015  -2.783  1.00  0.00     0.001 A 
HETATM   33  C   UNL     1      40.385  -9.316  -2.855  1.00  0.00     0.012 A 
ENDBRANCH  23  28
ENDBRANCH  21  22
ENDBRANCH  20  21
ENDBRANCH   2  20
TORSDOF 6
ENDMDL
MODEL 10
REMARK VINA RESULT:      -8.7      5.194      9.437
REMARK  6 active torsions:
REMARK  status: ('A' for Active; 'I' for Inactive)
REMARK    1  A    between atoms: C_9  and  C_10 
REMARK       I    between atoms: C_10  and  N_11 
REMARK    2  A    between atoms: N_11  and  N_12 
REMARK       I    between atoms: N_12  and  C_13 
REMARK    3  A    between atoms: C_13  and  C_14 
REMARK    4  A    between atoms: C_14  and  O_15 
REMARK    5  A    between atoms: O_15  and  C_16 
REMARK    6  A    between atoms: C_17  and  C_18 
ROOT
HETATM    1  N   UNL     1      39.068 -13.197   2.405  1.00  0.00    -0.265 N 
HETATM    2  C   UNL     1      39.181 -12.244   1.409  1.00  0.00     0.260 C 
HETATM    3  O   UNL     1      40.246 -11.929   0.881  1.00  0.00    -0.269 OA
HETATM    4  H   UNL     1      38.221 -13.295   2.959  1.00  0.00     0.190 HD
ENDROOT
BRANCH   1   5
HETATM    5  N   UNL     1      40.235 -13.764   2.922  1.00  0.00    -0.262 N 
HETATM    6  C   UNL     1      40.497 -15.112   2.736  1.00  0.00     0.291 C 
HETATM    7  O   UNL     1      39.865 -15.824   1.957  1.00  0.00    -0.264 OA
HETATM    8  H   UNL     1      40.662 -13.322   3.738  1.00  0.00     0.190 HD
BRANCH   6   9
HETATM    9  C   UNL     1      41.617 -15.586   3.565  1.00  0.00     0.158 A 
HETATM   10  C   UNL     1      42.393 -16.772   3.402  1.00  0.00     0.029 A 
HETATM   11  C   UNL     1      42.410 -17.866   2.512  1.00  0.00     0.023 A 
HETATM   12  C   UNL     1      43.330 -16.734   4.428  1.00  0.00     0.063 A 
HETATM   13  C   UNL     1      43.371 -18.879   2.678  1.00  0.00    -0.061 A 
HETATM   14  C   UNL     1      43.391 -20.069   1.762  1.00  0.00     0.048 C 
HETATM   15  C   UNL     1      44.296 -18.798   3.726  1.00  0.00     0.009 A 
HETATM   16  C   UNL     1      44.297 -17.723   4.621  1.00  0.00     0.032 A 
HETATM   17  N   UNL     1      43.064 -15.587   5.120  1.00  0.00    -0.277 N 
HETATM   18  H   UNL     1      43.550 -15.235   5.936  1.00  0.00     0.189 HD
HETATM   19  N   UNL     1      42.037 -14.870   4.634  1.00  0.00    -0.168 NA
ENDBRANCH   6   9
ENDBRANCH   1   5
BRANCH   2  20
HETATM   20  C   UNL     1      37.845 -11.623   1.009  1.00  0.00     0.280 C 
BRANCH  20  21
HETATM   21  O   UNL     1      37.983 -10.606   0.031  1.00  0.00    -0.341 OA
BRANCH  21  22
HETATM   22  C   UNL     1      37.002 -10.452  -0.920  1.00  0.00     0.080 A 
HETATM   23  C   UNL     1      37.137 -11.235  -2.091  1.00  0.00     0.007 A 
HETATM   24  C   UNL     1      36.148 -11.127  -3.090  1.00  0.00     0.015 A 
HETATM   25  C   UNL     1      35.060 -10.267  -2.946  1.00  0.00     0.001 A 
HETATM   26  C   UNL     1      34.945  -9.494  -1.799  1.00  0.00     0.003 A 
HETATM   27  C   UNL     1      35.909  -9.585  -0.791  1.00  0.00     0.037 A 
BRANCH  23  28
HETATM   28  C   UNL     1      38.278 -12.145  -2.318  1.00  0.00    -0.023 A 
HETATM   29  C   UNL     1      38.153 -13.532  -2.146  1.00  0.00     0.012 A 
HETATM   30  C   UNL     1      39.234 -14.386  -2.383  1.00  0.00     0.001 A 
HETATM   31  C   UNL     1      40.457 -13.867  -2.800  1.00  0.00     0.000 A 
HETATM   32  C   UNL     1      40.602 -12.493  -2.979  1.00  0.00     0.001 A 
HETATM   33  C   UNL     1      39.522 -11.641  -2.739  1.00  0.00     0.012 A 
ENDBRANCH  23  28
ENDBRANCH  21  22
ENDBRANCH  20  21
ENDBRANCH   2  20
TORSDOF 6
ENDMDL
