MODEL 1
REMARK VINA RESULT:      -8.2      0.000      0.000
REMARK  5 active torsions:
REMARK  status: ('A' for Active; 'I' for Inactive)
REMARK    1  A    between atoms: C_2  and  C_3 
REMARK    2  A    between atoms: C_3  and  N_4 
REMARK    3  A    between atoms: C_3  and  C_18 
REMARK    4  A    between atoms: N_4  and  C_7 
REMARK    5  A    between atoms: C_7  and  C_8 
ROOT
HETATM    1  N   UNL     1      43.572 -17.593   5.241  1.00  0.00    -0.056 N 
HETATM    2  H   UNL     1      42.574 -17.817   5.337  1.00  0.00     0.278 HD
HETATM    3  H   UNL     1      44.048 -18.385   5.688  1.00  0.00     0.278 HD
ENDROOT
BRANCH   1   4
HETATM    4  C   UNL     1      43.918 -17.619   3.777  1.00  0.00     0.292 C 
BRANCH   4   5
HETATM    5  C   UNL     1      42.963 -16.795   2.931  1.00  0.00    -0.020 A 
HETATM    6  C   UNL     1      43.481 -15.863   2.013  1.00  0.00     0.011 A 
HETATM    7  C   UNL     1      42.628 -15.072   1.237  1.00  0.00     0.024 A 
HETATM    8  C   UNL     1      41.249 -15.202   1.369  1.00  0.00     0.034 A 
HETATM    9  C   UNL     1      40.714 -16.119   2.270  1.00  0.00     0.024 A 
HETATM   10 CL   UNL     1      40.202 -14.229   0.416  1.00  0.00    -0.084 Cl
HETATM   11  C   UNL     1      41.563 -16.910   3.049  1.00  0.00     0.011 A 
ENDBRANCH   4   5
BRANCH   4  12
HETATM   12  C   UNL     1      43.869 -19.016   3.222  1.00  0.00     0.190 A 
HETATM   13  N   UNL     1      44.023 -20.113   3.972  1.00  0.00    -0.109 NA
HETATM   14  O   UNL     1      43.843 -21.152   3.053  1.00  0.00    -0.205 OA
HETATM   15  C   UNL     1      43.560 -20.566   1.859  1.00  0.00     0.288 A 
HETATM   16  N   UNL     1      43.531 -19.253   1.905  1.00  0.00    -0.215 NA
ENDBRANCH   4  12
ENDBRANCH   1   4
BRANCH   1  17
HETATM   17  C   UNL     1      43.896 -16.343   5.962  1.00  0.00     0.272 C 
BRANCH  17  18
HETATM   18  C   UNL     1      42.685 -15.461   6.054  1.00  0.00    -0.030 A 
HETATM   19  C   UNL     1      42.751 -14.121   5.641  1.00  0.00     0.048 A 
HETATM   20  C   UNL     1      41.614 -13.313   5.682  1.00  0.00     0.102 A 
HETATM   21  C   UNL     1      40.407 -13.826   6.156  1.00  0.00     0.102 A 
HETATM   22  O   UNL     1      41.766 -12.023   5.246  1.00  0.00    -0.346 OA
HETATM   23  O   UNL     1      39.263 -13.081   6.256  1.00  0.00    -0.346 OA
HETATM   24  C   UNL     1      40.323 -15.159   6.547  1.00  0.00     0.040 A 
HETATM   25  C   UNL     1      39.548 -11.677   6.193  1.00  0.00     0.202 C 
HETATM   26  C   UNL     1      40.500 -11.377   5.046  1.00  0.00     0.202 C 
HETATM   27  C   UNL     1      41.456 -15.976   6.497  1.00  0.00     0.012 A 
ENDBRANCH  17  18
ENDBRANCH   1  17
TORSDOF 5
ENDMDL
MODEL 2
REMARK VINA RESULT:      -7.9      3.655      5.934
REMARK  5 active torsions:
REMARK  status: ('A' for Active; 'I' for Inactive)
REMARK    1  A    between atoms: C_2  and  C_3 
REMARK    2  A    between atoms: C_3  and  N_4 
REMARK    3  A    between atoms: C_3  and  C_18 
REMARK    4  A    between atoms: N_4  and  C_7 
REMARK    5  A    between atoms: C_7  and  C_8 
ROOT
HETATM    1  N   UNL     1      41.454 -14.627   3.682  1.00  0.00    -0.056 N 
HETATM    2  H   UNL     1      41.012 -15.355   3.110  1.00  0.00     0.278 HD
HETATM    3  H   UNL     1      40.783 -14.467   4.442  1.00  0.00     0.278 HD
ENDROOT
BRANCH   1   4
HETATM    4  C   UNL     1      42.704 -15.203   4.289  1.00  0.00     0.292 C 
BRANCH   4   5
HETATM    5  C   UNL     1      43.055 -16.570   3.730  1.00  0.00    -0.020 A 
HETATM    6  C   UNL     1      42.407 -17.029   2.568  1.00  0.00     0.011 A 
HETATM    7  C   UNL     1      42.691 -18.293   2.042  1.00  0.00     0.024 A 
HETATM    8  C   UNL     1      43.623 -19.114   2.669  1.00  0.00     0.034 A 
HETATM    9  C   UNL     1      44.278 -18.680   3.819  1.00  0.00     0.024 A 
HETATM   10 CL   UNL     1      43.970 -20.667   2.023  1.00  0.00    -0.084 Cl
HETATM   11  C   UNL     1      43.996 -17.418   4.349  1.00  0.00     0.011 A 
ENDBRANCH   4   5
BRANCH   4  12
HETATM   12  C   UNL     1      42.563 -15.383   5.776  1.00  0.00     0.190 A 
HETATM   13  N   UNL     1      41.637 -16.166   6.339  1.00  0.00    -0.109 NA
HETATM   14  O   UNL     1      41.928 -16.068   7.704  1.00  0.00    -0.205 OA
HETATM   15  C   UNL     1      43.023 -15.269   7.808  1.00  0.00     0.288 A 
HETATM   16  N   UNL     1      43.479 -14.840   6.653  1.00  0.00    -0.215 NA
ENDBRANCH   4  12
ENDBRANCH   1   4
BRANCH   1  17
HETATM   17  C   UNL     1      41.628 -13.384   2.898  1.00  0.00     0.272 C 
BRANCH  17  18
HETATM   18  C   UNL     1      41.052 -13.546   1.522  1.00  0.00    -0.030 A 
HETATM   19  C   UNL     1      41.271 -12.565   0.542  1.00  0.00     0.048 A 
HETATM   20  C   UNL     1      40.776 -12.737  -0.752  1.00  0.00     0.102 A 
HETATM   21  C   UNL     1      40.040 -13.877  -1.074  1.00  0.00     0.102 A 
HETATM   22  O   UNL     1      41.049 -11.737  -1.647  1.00  0.00    -0.346 OA
HETATM   23  O   UNL     1      39.496 -14.093  -2.312  1.00  0.00    -0.346 OA
HETATM   24  C   UNL     1      39.835 -14.867  -0.117  1.00  0.00     0.040 A 
HETATM   25  C   UNL     1      39.441 -12.881  -3.076  1.00  0.00     0.202 C 
HETATM   26  C   UNL     1      40.766 -12.140  -2.995  1.00  0.00     0.202 C 
HETATM   27  C   UNL     1      40.339 -14.706   1.177  1.00  0.00     0.012 A 
ENDBRANCH  17  18
ENDBRANCH   1  17
TORSDOF 5
ENDMDL
MODEL 3
REMARK VINA RESULT:      -7.5      3.329      5.091
REMARK  5 active torsions:
REMARK  status: ('A' for Active; 'I' for Inactive)
REMARK    1  A    between atoms: C_2  and  C_3 
REMARK    2  A    between atoms: C_3  and  N_4 
REMARK    3  A    between atoms: C_3  and  C_18 
REMARK    4  A    between atoms: N_4  and  C_7 
REMARK    5  A    between atoms: C_7  and  C_8 
ROOT
HETATM    1  N   UNL     1      42.711 -13.559   3.656  1.00  0.00    -0.056 N 
HETATM    2  H   UNL     1      42.730 -13.980   2.719  1.00  0.00     0.278 HD
HETATM    3  H   UNL     1      41.755 -13.196   3.744  1.00  0.00     0.278 HD
ENDROOT
BRANCH   1   4
HETATM    4  C   UNL     1      42.877 -14.660   4.667  1.00  0.00     0.292 C 
BRANCH   4   5
HETATM    5  C   UNL     1      43.116 -16.017   4.028  1.00  0.00    -0.020 A 
HETATM    6  C   UNL     1      42.497 -16.322   2.802  1.00  0.00     0.011 A 
HETATM    7  C   UNL     1      42.678 -17.572   2.200  1.00  0.00     0.024 A 
HETATM    8  C   UNL     1      43.477 -18.530   2.816  1.00  0.00     0.034 A 
HETATM    9  C   UNL     1      44.102 -18.249   4.028  1.00  0.00     0.024 A 
HETATM   10 CL   UNL     1      43.698 -20.065   2.076  1.00  0.00    -0.084 Cl
HETATM   11  C   UNL     1      43.923 -17.002   4.634  1.00  0.00     0.011 A 
ENDBRANCH   4   5
BRANCH   4  12
HETATM   12  C   UNL     1      41.651 -14.812   5.524  1.00  0.00     0.190 A 
HETATM   13  N   UNL     1      40.694 -13.882   5.615  1.00  0.00    -0.109 NA
HETATM   14  O   UNL     1      39.751 -14.478   6.458  1.00  0.00    -0.205 OA
HETATM   15  C   UNL     1      40.225 -15.718   6.750  1.00  0.00     0.288 A 
HETATM   16  N   UNL     1      41.377 -15.995   6.180  1.00  0.00    -0.215 NA
ENDBRANCH   4  12
ENDBRANCH   1   4
BRANCH   1  17
HETATM   17  C   UNL     1      43.681 -12.445   3.745  1.00  0.00     0.272 C 
BRANCH  17  18
HETATM   18  C   UNL     1      43.503 -11.696   5.033  1.00  0.00    -0.030 A 
HETATM   19  C   UNL     1      44.451 -11.820   6.061  1.00  0.00     0.048 A 
HETATM   20  C   UNL     1      44.312 -11.088   7.241  1.00  0.00     0.102 A 
HETATM   21  C   UNL     1      43.215 -10.243   7.417  1.00  0.00     0.102 A 
HETATM   22  O   UNL     1      45.291 -11.259   8.184  1.00  0.00    -0.346 OA
HETATM   23  O   UNL     1      42.998  -9.524   8.561  1.00  0.00    -0.346 OA
HETATM   24  C   UNL     1      42.281 -10.096   6.396  1.00  0.00     0.040 A 
HETATM   25  C   UNL     1      43.783 -10.027   9.650  1.00  0.00     0.202 C 
HETATM   26  C   UNL     1      45.220 -10.257   9.210  1.00  0.00     0.202 C 
HETATM   27  C   UNL     1      42.422 -10.817   5.207  1.00  0.00     0.012 A 
ENDBRANCH  17  18
ENDBRANCH   1  17
TORSDOF 5
ENDMDL
MODEL 4
REMARK VINA RESULT:      -7.4      3.536      6.418
REMARK  5 active torsions:
REMARK  status: ('A' for Active; 'I' for Inactive)
REMARK    1  A    between atoms: C_2  and  C_3 
REMARK    2  A    between atoms: C_3  and  N_4 
REMARK    3  A    between atoms: C_3  and  C_18 
REMARK    4  A    between atoms: N_4  and  C_7 
REMARK    5  A    between atoms: C_7  and  C_8 
ROOT
HETATM    1  N   UNL     1      41.842 -15.273   1.108  1.00  0.00    -0.056 N 
HETATM    2  H   UNL     1      41.205 -15.645   1.823  1.00  0.00     0.278 HD
HETATM    3  H   UNL     1      41.497 -15.683   0.232  1.00  0.00     0.278 HD
ENDROOT
BRANCH   1   4
HETATM    4  C   UNL     1      41.639 -13.785   1.028  1.00  0.00     0.292 C 
BRANCH   4   5
HETATM    5  C   UNL     1      41.215 -13.176   2.353  1.00  0.00    -0.020 A 
HETATM    6  C   UNL     1      42.105 -12.332   3.042  1.00  0.00     0.011 A 
HETATM    7  C   UNL     1      41.754 -11.776   4.276  1.00  0.00     0.024 A 
HETATM    8  C   UNL     1      40.511 -12.056   4.836  1.00  0.00     0.034 A 
HETATM    9  C   UNL     1      39.614 -12.887   4.171  1.00  0.00     0.024 A 
HETATM   10 CL   UNL     1      40.081 -11.372   6.352  1.00  0.00    -0.084 Cl
HETATM   11  C   UNL     1      39.961 -13.447   2.939  1.00  0.00     0.011 A 
ENDBRANCH   4   5
BRANCH   4  12
HETATM   12  C   UNL     1      40.563 -13.427   0.040  1.00  0.00     0.190 A 
HETATM   13  N   UNL     1      40.373 -12.187  -0.426  1.00  0.00    -0.109 NA
HETATM   14  O   UNL     1      39.328 -12.350  -1.341  1.00  0.00    -0.205 OA
HETATM   15  C   UNL     1      39.031 -13.677  -1.355  1.00  0.00     0.288 A 
HETATM   16  N   UNL     1      39.778 -14.397  -0.548  1.00  0.00    -0.215 NA
ENDBRANCH   4  12
ENDBRANCH   1   4
BRANCH   1  17
HETATM   17  C   UNL     1      43.228 -15.726   1.360  1.00  0.00     0.272 C 
BRANCH  17  18
HETATM   18  C   UNL     1      43.306 -16.482   2.654  1.00  0.00    -0.030 A 
HETATM   19  C   UNL     1      43.582 -17.858   2.655  1.00  0.00     0.048 A 
HETATM   20  C   UNL     1      43.702 -18.553   3.860  1.00  0.00     0.102 A 
HETATM   21  C   UNL     1      43.525 -17.887   5.073  1.00  0.00     0.102 A 
HETATM   22  O   UNL     1      43.986 -19.890   3.767  1.00  0.00    -0.346 OA
HETATM   23  O   UNL     1      43.593 -18.513   6.288  1.00  0.00    -0.346 OA
HETATM   24  C   UNL     1      43.273 -16.518   5.085  1.00  0.00     0.040 A 
HETATM   25  C   UNL     1      43.478 -19.935   6.150  1.00  0.00     0.202 C 
HETATM   26  C   UNL     1      44.380 -20.437   5.034  1.00  0.00     0.202 C 
HETATM   27  C   UNL     1      43.165 -15.815   3.882  1.00  0.00     0.012 A 
ENDBRANCH  17  18
ENDBRANCH   1  17
TORSDOF 5
ENDMDL
MODEL 5
REMARK VINA RESULT:      -7.4      4.235      6.170
REMARK  5 active torsions:
REMARK  status: ('A' for Active; 'I' for Inactive)
REMARK    1  A    between atoms: C_2  and  C_3 
REMARK    2  A    between atoms: C_3  and  N_4 
REMARK    3  A    between atoms: C_3  and  C_18 
REMARK    4  A    between atoms: N_4  and  C_7 
REMARK    5  A    between atoms: C_7  and  C_8 
ROOT
HETATM    1  N   UNL     1      43.657 -12.675   5.731  1.00  0.00    -0.056 N 
HETATM    2  H   UNL     1      44.049 -12.829   4.795  1.00  0.00     0.278 HD
HETATM    3  H   UNL     1      43.142 -11.792   5.642  1.00  0.00     0.278 HD
ENDROOT
BRANCH   1   4
HETATM    4  C   UNL     1      42.655 -13.763   6.004  1.00  0.00     0.292 C 
BRANCH   4   5
HETATM    5  C   UNL     1      42.769 -14.926   5.035  1.00  0.00    -0.020 A 
HETATM    6  C   UNL     1      42.931 -16.231   5.537  1.00  0.00     0.011 A 
HETATM    7  C   UNL     1      43.063 -17.320   4.670  1.00  0.00     0.024 A 
HETATM    8  C   UNL     1      43.037 -17.120   3.293  1.00  0.00     0.034 A 
HETATM    9  C   UNL     1      42.875 -15.838   2.775  1.00  0.00     0.024 A 
HETATM   10 CL   UNL     1      43.200 -18.458   2.229  1.00  0.00    -0.084 Cl
HETATM   11  C   UNL     1      42.744 -14.746   3.637  1.00  0.00     0.011 A 
ENDBRANCH   4   5
BRANCH   4  12
HETATM   12  C   UNL     1      41.244 -13.257   5.886  1.00  0.00     0.190 A 
HETATM   13  N   UNL     1      40.187 -13.890   6.407  1.00  0.00    -0.109 NA
HETATM   14  O   UNL     1      39.124 -13.033   6.104  1.00  0.00    -0.205 OA
HETATM   15  C   UNL     1      39.663 -11.959   5.469  1.00  0.00     0.288 A 
HETATM   16  N   UNL     1      40.969 -12.023   5.332  1.00  0.00    -0.215 NA
ENDBRANCH   4  12
ENDBRANCH   1   4
BRANCH   1  17
HETATM   17  C   UNL     1      44.739 -12.524   6.729  1.00  0.00     0.272 C 
BRANCH  17  18
HETATM   18  C   UNL     1      44.733 -11.139   7.305  1.00  0.00    -0.030 A 
HETATM   19  C   UNL     1      43.534 -10.562   7.753  1.00  0.00     0.048 A 
HETATM   20  C   UNL     1      43.535  -9.292   8.333  1.00  0.00     0.102 A 
HETATM   21  C   UNL     1      44.727  -8.577   8.450  1.00  0.00     0.102 A 
HETATM   22  O   UNL     1      42.323  -8.814   8.754  1.00  0.00    -0.346 OA
HETATM   23  O   UNL     1      44.794  -7.314   8.974  1.00  0.00    -0.346 OA
HETATM   24  C   UNL     1      45.925  -9.147   8.029  1.00  0.00     0.040 A 
HETATM   25  C   UNL     1      43.501  -6.697   9.018  1.00  0.00     0.202 C 
HETATM   26  C   UNL     1      42.471  -7.657   9.591  1.00  0.00     0.202 C 
HETATM   27  C   UNL     1      45.932 -10.423   7.460  1.00  0.00     0.012 A 
ENDBRANCH  17  18
ENDBRANCH   1  17
TORSDOF 5
ENDMDL
MODEL 6
REMARK VINA RESULT:      -7.3     14.115     16.464
REMARK  5 active torsions:
REMARK  status: ('A' for Active; 'I' for Inactive)
REMARK    1  A    between atoms: C_2  and  C_3 
REMARK    2  A    between atoms: C_3  and  N_4 
REMARK    3  A    between atoms: C_3  and  C_18 
REMARK    4  A    between atoms: N_4  and  C_7 
REMARK    5  A    between atoms: C_7  and  C_8 
ROOT
HETATM    1  N   UNL     1      45.389 -28.307   0.448  1.00  0.00    -0.056 N 
HETATM    2  H   UNL     1      45.413 -27.791  -0.439  1.00  0.00     0.278 HD
HETATM    3  H   UNL     1      44.701 -27.796   1.013  1.00  0.00     0.278 HD
ENDROOT
BRANCH   1   4
HETATM    4  C   UNL     1      44.831 -29.677   0.177  1.00  0.00     0.292 C 
BRANCH   4   5
HETATM    5  C   UNL     1      44.591 -29.935  -1.300  1.00  0.00    -0.020 A 
HETATM    6  C   UNL     1      44.450 -28.844  -2.178  1.00  0.00     0.011 A 
HETATM    7  C   UNL     1      44.203 -29.048  -3.539  1.00  0.00     0.024 A 
HETATM    8  C   UNL     1      44.094 -30.342  -4.040  1.00  0.00     0.034 A 
HETATM    9  C   UNL     1      44.232 -31.436  -3.190  1.00  0.00     0.024 A 
HETATM   10 CL   UNL     1      43.790 -30.591  -5.712  1.00  0.00    -0.084 Cl
HETATM   11  C   UNL     1      44.477 -31.237  -1.828  1.00  0.00     0.011 A 
ENDBRANCH   4   5
BRANCH   4  12
HETATM   12  C   UNL     1      43.505 -29.879   0.858  1.00  0.00     0.190 A 
HETATM   13  N   UNL     1      42.478 -29.031   0.737  1.00  0.00    -0.109 NA
HETATM   14  O   UNL     1      41.467 -29.651   1.479  1.00  0.00    -0.205 OA
HETATM   15  C   UNL     1      41.985 -30.824   1.931  1.00  0.00     0.288 A 
HETATM   16  N   UNL     1      43.227 -31.036   1.556  1.00  0.00    -0.215 NA
ENDBRANCH   4  12
ENDBRANCH   1   4
BRANCH   1  17
HETATM   17  C   UNL     1      46.711 -28.265   1.111  1.00  0.00     0.272 C 
BRANCH  17  18
HETATM   18  C   UNL     1      47.768 -28.833   0.210  1.00  0.00    -0.030 A 
HETATM   19  C   UNL     1      48.692 -29.768   0.704  1.00  0.00     0.048 A 
HETATM   20  C   UNL     1      49.646 -30.332  -0.145  1.00  0.00     0.102 A 
HETATM   21  C   UNL     1      49.703 -29.953  -1.486  1.00  0.00     0.102 A 
HETATM   22  O   UNL     1      50.498 -31.245   0.418  1.00  0.00    -0.346 OA
HETATM   23  O   UNL     1      50.634 -30.439  -2.364  1.00  0.00    -0.346 OA
HETATM   24  C   UNL     1      48.778 -29.044  -1.992  1.00  0.00     0.040 A 
HETATM   25  C   UNL     1      51.733 -31.049  -1.674  1.00  0.00     0.202 C 
HETATM   26  C   UNL     1      51.227 -31.976  -0.580  1.00  0.00     0.202 C 
HETATM   27  C   UNL     1      47.813 -28.485  -1.150  1.00  0.00     0.012 A 
ENDBRANCH  17  18
ENDBRANCH   1  17
TORSDOF 5
ENDMDL
MODEL 7
REMARK VINA RESULT:      -7.3      4.120      6.530
REMARK  5 active torsions:
REMARK  status: ('A' for Active; 'I' for Inactive)
REMARK    1  A    between atoms: C_2  and  C_3 
REMARK    2  A    between atoms: C_3  and  N_4 
REMARK    3  A    between atoms: C_3  and  C_18 
REMARK    4  A    between atoms: N_4  and  C_7 
REMARK    5  A    between atoms: C_7  and  C_8 
ROOT
HETATM    1  N   UNL     1      42.328 -15.303   1.194  1.00  0.00    -0.056 N 
HETATM    2  H   UNL     1      42.737 -14.564   0.610  1.00  0.00     0.278 HD
HETATM    3  H   UNL     1      42.677 -16.172   0.774  1.00  0.00     0.278 HD
ENDROOT
BRANCH   1   4
HETATM    4  C   UNL     1      42.921 -15.191   2.572  1.00  0.00     0.292 C 
BRANCH   4   5
HETATM    5  C   UNL     1      43.292 -16.539   3.165  1.00  0.00    -0.020 A 
HETATM    6  C   UNL     1      43.749 -16.607   4.494  1.00  0.00     0.011 A 
HETATM    7  C   UNL     1      44.122 -17.829   5.061  1.00  0.00     0.024 A 
HETATM    8  C   UNL     1      44.043 -18.997   4.309  1.00  0.00     0.034 A 
HETATM    9  C   UNL     1      43.592 -18.954   2.992  1.00  0.00     0.024 A 
HETATM   10 CL   UNL     1      44.502 -20.498   5.006  1.00  0.00    -0.084 Cl
HETATM   11  C   UNL     1      43.220 -17.734   2.421  1.00  0.00     0.011 A 
ENDBRANCH   4   5
BRANCH   4  12
HETATM   12  C   UNL     1      41.957 -14.560   3.538  1.00  0.00     0.190 A 
HETATM   13  N   UNL     1      41.040 -15.252   4.223  1.00  0.00    -0.109 NA
HETATM   14  O   UNL     1      40.434 -14.274   5.019  1.00  0.00    -0.205 OA
HETATM   15  C   UNL     1      41.081 -13.108   4.755  1.00  0.00     0.288 A 
HETATM   16  N   UNL     1      42.049 -13.224   3.874  1.00  0.00    -0.215 NA
ENDBRANCH   4  12
ENDBRANCH   1   4
BRANCH   1  17
HETATM   17  C   UNL     1      40.851 -15.268   1.119  1.00  0.00     0.272 C 
BRANCH  17  18
HETATM   18  C   UNL     1      40.402 -14.353   0.017  1.00  0.00    -0.030 A 
HETATM   19  C   UNL     1      40.903 -13.044  -0.064  1.00  0.00     0.048 A 
HETATM   20  C   UNL     1      40.522 -12.207  -1.115  1.00  0.00     0.102 A 
HETATM   21  C   UNL     1      39.623 -12.660  -2.081  1.00  0.00     0.102 A 
HETATM   22  O   UNL     1      41.070 -10.952  -1.124  1.00  0.00    -0.346 OA
HETATM   23  O   UNL     1      39.181 -11.882  -3.117  1.00  0.00    -0.346 OA
HETATM   24  C   UNL     1      39.138 -13.963  -2.023  1.00  0.00     0.040 A 
HETATM   25  C   UNL     1      39.435 -10.493  -2.871  1.00  0.00     0.202 C 
HETATM   26  C   UNL     1      40.859 -10.289  -2.380  1.00  0.00     0.202 C 
HETATM   27  C   UNL     1      39.525 -14.809  -0.980  1.00  0.00     0.012 A 
ENDBRANCH  17  18
ENDBRANCH   1  17
TORSDOF 5
ENDMDL
MODEL 8
REMARK VINA RESULT:      -7.2      3.900      5.297
REMARK  5 active torsions:
REMARK  status: ('A' for Active; 'I' for Inactive)
REMARK    1  A    between atoms: C_2  and  C_3 
REMARK    2  A    between atoms: C_3  and  N_4 
REMARK    3  A    between atoms: C_3  and  C_18 
REMARK    4  A    between atoms: N_4  and  C_7 
REMARK    5  A    between atoms: C_7  and  C_8 
ROOT
HETATM    1  N   UNL     1      40.612 -12.648   2.460  1.00  0.00    -0.056 N 
HETATM    2  H   UNL     1      41.618 -12.462   2.378  1.00  0.00     0.278 HD
HETATM    3  H   UNL     1      40.173 -11.856   1.977  1.00  0.00     0.278 HD
ENDROOT
BRANCH   1   4
HETATM    4  C   UNL     1      40.300 -13.893   1.674  1.00  0.00     0.292 C 
BRANCH   4   5
HETATM    5  C   UNL     1      41.296 -15.012   1.924  1.00  0.00    -0.020 A 
HETATM    6  C   UNL     1      40.876 -16.172   2.602  1.00  0.00     0.011 A 
HETATM    7  C   UNL     1      41.775 -17.210   2.868  1.00  0.00     0.024 A 
HETATM    8  C   UNL     1      43.102 -17.101   2.462  1.00  0.00     0.034 A 
HETATM    9  C   UNL     1      43.538 -15.964   1.788  1.00  0.00     0.024 A 
HETATM   10 CL   UNL     1      44.205 -18.376   2.791  1.00  0.00    -0.084 Cl
HETATM   11  C   UNL     1      42.644 -14.923   1.521  1.00  0.00     0.011 A 
ENDBRANCH   4   5
BRANCH   4  12
HETATM   12  C   UNL     1      40.327 -13.632   0.194  1.00  0.00     0.190 A 
HETATM   13  N   UNL     1      39.826 -14.479  -0.713  1.00  0.00    -0.109 NA
HETATM   14  O   UNL     1      40.018 -13.799  -1.920  1.00  0.00    -0.205 OA
HETATM   15  C   UNL     1      40.576 -12.601  -1.603  1.00  0.00     0.288 A 
HETATM   16  N   UNL     1      40.763 -12.426  -0.314  1.00  0.00    -0.215 NA
ENDBRANCH   4  12
ENDBRANCH   1   4
BRANCH   1  17
HETATM   17  C   UNL     1      40.200 -12.659   3.881  1.00  0.00     0.272 C 
BRANCH  17  18
HETATM   18  C   UNL     1      41.399 -12.550   4.776  1.00  0.00    -0.030 A 
HETATM   19  C   UNL     1      41.724 -11.325   5.380  1.00  0.00     0.048 A 
HETATM   20  C   UNL     1      42.812 -11.234   6.250  1.00  0.00     0.102 A 
HETATM   21  C   UNL     1      43.598 -12.357   6.508  1.00  0.00     0.102 A 
HETATM   22  O   UNL     1      43.047 -10.004   6.806  1.00  0.00    -0.346 OA
HETATM   23  O   UNL     1      44.699 -12.330   7.322  1.00  0.00    -0.346 OA
HETATM   24  C   UNL     1      43.273 -13.582   5.933  1.00  0.00     0.040 A 
HETATM   25  C   UNL     1      45.150 -10.988   7.546  1.00  0.00     0.202 C 
HETATM   26  C   UNL     1      43.979 -10.083   7.895  1.00  0.00     0.202 C 
HETATM   27  C   UNL     1      42.178 -13.682   5.070  1.00  0.00     0.012 A 
ENDBRANCH  17  18
ENDBRANCH   1  17
TORSDOF 5
ENDMDL
MODEL 9
REMARK VINA RESULT:      -7.1      3.867      5.557
REMARK  5 active torsions:
REMARK  status: ('A' for Active; 'I' for Inactive)
REMARK    1  A    between atoms: C_2  and  C_3 
REMARK    2  A    between atoms: C_3  and  N_4 
REMARK    3  A    between atoms: C_3  and  C_18 
REMARK    4  A    between atoms: N_4  and  C_7 
REMARK    5  A    between atoms: C_7  and  C_8 
ROOT
HETATM    1  N   UNL     1      41.148 -13.793   5.652  1.00  0.00    -0.056 N 
HETATM    2  H   UNL     1      40.502 -14.198   6.339  1.00  0.00     0.278 HD
HETATM    3  H   UNL     1      42.063 -14.177   5.915  1.00  0.00     0.278 HD
ENDROOT
BRANCH   1   4
HETATM    4  C   UNL     1      40.795 -14.341   4.297  1.00  0.00     0.292 C 
BRANCH   4   5
HETATM    5  C   UNL     1      41.636 -15.545   3.910  1.00  0.00    -0.020 A 
HETATM    6  C   UNL     1      42.727 -15.915   4.718  1.00  0.00     0.011 A 
HETATM    7  C   UNL     1      43.535 -17.003   4.375  1.00  0.00     0.024 A 
HETATM    8  C   UNL     1      43.264 -17.734   3.223  1.00  0.00     0.034 A 
HETATM    9  C   UNL     1      42.188 -17.388   2.409  1.00  0.00     0.024 A 
HETATM   10 CL   UNL     1      44.258 -19.071   2.803  1.00  0.00    -0.084 Cl
HETATM   11  C   UNL     1      41.379 -16.299   2.747  1.00  0.00     0.011 A 
ENDBRANCH   4   5
BRANCH   4  12
HETATM   12  C   UNL     1      41.006 -13.318   3.215  1.00  0.00     0.190 A 
HETATM   13  N   UNL     1      42.214 -12.936   2.787  1.00  0.00    -0.109 NA
HETATM   14  O   UNL     1      41.916 -12.038   1.757  1.00  0.00    -0.205 OA
HETATM   15  C   UNL     1      40.561 -12.010   1.651  1.00  0.00     0.288 A 
HETATM   16  N   UNL     1      39.945 -12.800   2.501  1.00  0.00    -0.215 NA
ENDBRANCH   4  12
ENDBRANCH   1   4
BRANCH   1  17
HETATM   17  C   UNL     1      41.172 -12.318   5.768  1.00  0.00     0.272 C 
BRANCH  17  18
HETATM   18  C   UNL     1      42.503 -11.853   6.284  1.00  0.00    -0.030 A 
HETATM   19  C   UNL     1      42.625 -10.597   6.899  1.00  0.00     0.048 A 
HETATM   20  C   UNL     1      43.851 -10.183   7.422  1.00  0.00     0.102 A 
HETATM   21  C   UNL     1      44.971 -11.008   7.316  1.00  0.00     0.102 A 
HETATM   22  O   UNL     1      43.876  -8.950   8.017  1.00  0.00    -0.346 OA
HETATM   23  O   UNL     1      46.211 -10.651   7.774  1.00  0.00    -0.346 OA
HETATM   24  C   UNL     1      44.858 -12.264   6.728  1.00  0.00     0.040 A 
HETATM   25  C   UNL     1      46.295  -9.238   8.004  1.00  0.00     0.202 C 
HETATM   26  C   UNL     1      45.079  -8.750   8.774  1.00  0.00     0.202 C 
HETATM   27  C   UNL     1      43.629 -12.689   6.214  1.00  0.00     0.012 A 
ENDBRANCH  17  18
ENDBRANCH   1  17
TORSDOF 5
ENDMDL
MODEL 10
REMARK VINA RESULT:      -6.9      3.296      6.805
REMARK  5 active torsions:
REMARK  status: ('A' for Active; 'I' for Inactive)
REMARK    1  A    between atoms: C_2  and  C_3 
REMARK    2  A    between atoms: C_3  and  N_4 
REMARK    3  A    between atoms: C_3  and  C_18 
REMARK    4  A    between atoms: N_4  and  C_7 
REMARK    5  A    between atoms: C_7  and  C_8 
ROOT
HETATM    1  N   UNL     1      40.525 -13.513   6.415  1.00  0.00    -0.056 N 
HETATM    2  H   UNL     1      41.456 -13.418   5.991  1.00  0.00     0.278 HD
HETATM    3  H   UNL     1      40.619 -13.045   7.323  1.00  0.00     0.278 HD
ENDROOT
BRANCH   1   4
HETATM    4  C   UNL     1      39.551 -12.719   5.589  1.00  0.00     0.292 C 
BRANCH   4   5
HETATM    5  C   UNL     1      39.964 -12.612   4.131  1.00  0.00    -0.020 A 
HETATM    6  C   UNL     1      38.974 -12.602   3.131  1.00  0.00     0.011 A 
HETATM    7  C   UNL     1      39.323 -12.529   1.779  1.00  0.00     0.024 A 
HETATM    8  C   UNL     1      40.663 -12.465   1.410  1.00  0.00     0.034 A 
HETATM    9  C   UNL     1      41.659 -12.471   2.383  1.00  0.00     0.024 A 
HETATM   10 CL   UNL     1      41.091 -12.376  -0.251  1.00  0.00    -0.084 Cl
HETATM   11  C   UNL     1      41.315 -12.546   3.735  1.00  0.00     0.011 A 
ENDBRANCH   4   5
BRANCH   4  12
HETATM   12  C   UNL     1      39.422 -11.308   6.092  1.00  0.00     0.190 A 
HETATM   13  N   UNL     1      38.254 -10.661   6.182  1.00  0.00    -0.109 NA
HETATM   14  O   UNL     1      38.616  -9.433   6.746  1.00  0.00    -0.205 OA
HETATM   15  C   UNL     1      39.955  -9.492   6.971  1.00  0.00     0.288 A 
HETATM   16  N   UNL     1      40.504 -10.632   6.618  1.00  0.00    -0.215 NA
ENDBRANCH   4  12
ENDBRANCH   1   4
BRANCH   1  17
HETATM   17  C   UNL     1      40.190 -14.940   6.619  1.00  0.00     0.272 C 
BRANCH  17  18
HETATM   18  C   UNL     1      41.244 -15.819   6.011  1.00  0.00    -0.030 A 
HETATM   19  C   UNL     1      41.216 -16.114   4.639  1.00  0.00     0.048 A 
HETATM   20  C   UNL     1      42.221 -16.893   4.064  1.00  0.00     0.102 A 
HETATM   21  C   UNL     1      43.250 -17.403   4.855  1.00  0.00     0.102 A 
HETATM   22  O   UNL     1      42.122 -17.118   2.717  1.00  0.00    -0.346 OA
HETATM   23  O   UNL     1      44.248 -18.202   4.364  1.00  0.00    -0.346 OA
HETATM   24  C   UNL     1      43.301 -17.099   6.213  1.00  0.00     0.040 A 
HETATM   25  C   UNL     1      43.898 -18.746   3.085  1.00  0.00     0.202 C 
HETATM   26  C   UNL     1      43.337 -17.661   2.179  1.00  0.00     0.202 C 
HETATM   27  C   UNL     1      42.304 -16.310   6.791  1.00  0.00     0.012 A 
ENDBRANCH  17  18
ENDBRANCH   1  17
TORSDOF 5
ENDMDL
