MODEL 1
REMARK VINA RESULT:      -7.2      0.000      0.000
REMARK  10 active torsions:
REMARK  status: ('A' for Active; 'I' for Inactive)
REMARK    1  A    between atoms: C_2  and  C_3 
REMARK    2  A    between atoms: C_3  and  N_4 
REMARK    3  A    between atoms: C_7  and  C_8 
REMARK       I    between atoms: C_8  and  N_9 
REMARK    4  A    between atoms: N_9  and  C_10 
REMARK    5  A    between atoms: C_10  and  C_11 
REMARK    6  A    between atoms: C_11  and  O_12 
REMARK    7  A    between atoms: C_11  and  C_13 
REMARK    8  A    between atoms: C_13  and  O_14 
REMARK    9  A    between atoms: O_14  and  C_15 
REMARK   10  A    between atoms: C_23  and  C_24 
ROOT
HETATM    1  C   UNL     1      41.314 -13.705   5.497  1.00  0.00     0.255 C 
HETATM    2  N   UNL     1      42.656 -13.969   5.697  1.00  0.00    -0.354 N 
HETATM    3  O   UNL     1      40.495 -13.921   6.383  1.00  0.00    -0.268 OA
HETATM    4  H   UNL     1      43.305 -13.807   4.939  1.00  0.00     0.162 HD
ENDROOT
BRANCH   2   5
HETATM    5  C   UNL     1      43.208 -14.291   7.008  1.00  0.00     0.156 C 
BRANCH   5   6
HETATM    6  C   UNL     1      43.374 -15.792   7.318  1.00  0.00     0.160 C 
BRANCH   6   7
HETATM    7  O   UNL     1      42.113 -16.470   7.259  1.00  0.00    -0.392 OA
HETATM    8  H   UNL     1      41.409 -15.797   7.139  1.00  0.00     0.210 HD
ENDBRANCH   6   7
BRANCH   6   9
HETATM    9  C   UNL     1      44.403 -16.474   6.408  1.00  0.00     0.209 C 
BRANCH   9  10
HETATM   10  O   UNL     1      43.742 -16.902   5.212  1.00  0.00    -0.349 OA
BRANCH  10  11
HETATM   11  C   UNL     1      43.784 -18.238   4.929  1.00  0.00     0.069 A 
HETATM   12  C   UNL     1      43.729 -18.549   3.567  1.00  0.00     0.043 A 
HETATM   13  C   UNL     1      43.771 -19.877   3.127  1.00  0.00    -0.059 A 
HETATM   14  C   UNL     1      43.699 -20.200   1.665  1.00  0.00     0.048 C 
HETATM   15  C   UNL     1      43.830 -20.903   4.077  1.00  0.00     0.007 A 
HETATM   16  C   UNL     1      43.872 -20.600   5.438  1.00  0.00     0.003 A 
HETATM   17  C   UNL     1      43.851 -19.270   5.865  1.00  0.00     0.037 A 
ENDBRANCH  10  11
ENDBRANCH   9  10
ENDBRANCH   6   9
ENDBRANCH   5   6
ENDBRANCH   2   5
BRANCH   1  18
HETATM   18  C   UNL     1      40.991 -13.152   4.190  1.00  0.00     0.075 A 
HETATM   19  C   UNL     1      41.116 -11.784   3.833  1.00  0.00     0.158 A 
HETATM   20  N   UNL     1      40.739 -11.522   2.588  1.00  0.00    -0.183 NA
HETATM   21  N   UNL     1      40.315 -12.712   2.124  1.00  0.00    -0.268 N 
HETATM   22  C   UNL     1      40.481 -13.743   3.035  1.00  0.00     0.052 A 
BRANCH  21  23
HETATM   23  C   UNL     1      39.672 -12.774   0.811  1.00  0.00     0.106 C 
HETATM   24  C   UNL     1      40.656 -13.012  -0.343  1.00  0.00     0.034 C 
BRANCH  23  25
HETATM   25  C   UNL     1      38.765 -11.552   0.563  1.00  0.00     0.022 C 
HETATM   26  C   UNL     1      37.566 -11.436   1.497  1.00  0.00     0.007 C 
ENDBRANCH  23  25
ENDBRANCH  21  23
BRANCH  22  27
HETATM   27  C   UNL     1      40.148 -15.204   2.707  1.00  0.00     0.038 A 
HETATM   28  C   UNL     1      41.197 -16.115   2.114  1.00  0.00     0.011 A 
HETATM   29  C   UNL     1      40.724 -16.340   3.513  1.00  0.00     0.011 A 
ENDBRANCH  22  27
ENDBRANCH   1  18
TORSDOF 10
ENDMDL
MODEL 2
REMARK VINA RESULT:      -7.1      2.723      5.617
REMARK  10 active torsions:
REMARK  status: ('A' for Active; 'I' for Inactive)
REMARK    1  A    between atoms: C_2  and  C_3 
REMARK    2  A    between atoms: C_3  and  N_4 
REMARK    3  A    between atoms: C_7  and  C_8 
REMARK       I    between atoms: C_8  and  N_9 
REMARK    4  A    between atoms: N_9  and  C_10 
REMARK    5  A    between atoms: C_10  and  C_11 
REMARK    6  A    between atoms: C_11  and  O_12 
REMARK    7  A    between atoms: C_11  and  C_13 
REMARK    8  A    between atoms: C_13  and  O_14 
REMARK    9  A    between atoms: O_14  and  C_15 
REMARK   10  A    between atoms: C_23  and  C_24 
ROOT
HETATM    1  C   UNL     1      41.152 -13.061   5.271  1.00  0.00     0.255 C 
HETATM    2  N   UNL     1      41.133 -12.909   3.898  1.00  0.00    -0.354 N 
HETATM    3  O   UNL     1      40.219 -13.602   5.853  1.00  0.00    -0.268 OA
HETATM    4  H   UNL     1      41.904 -12.434   3.447  1.00  0.00     0.162 HD
ENDROOT
BRANCH   2   5
HETATM    5  C   UNL     1      40.146 -13.562   3.046  1.00  0.00     0.156 C 
BRANCH   5   6
HETATM    6  C   UNL     1      40.327 -15.080   2.848  1.00  0.00     0.160 C 
BRANCH   6   7
HETATM    7  O   UNL     1      39.089 -15.701   2.480  1.00  0.00    -0.392 OA
HETATM    8  H   UNL     1      39.109 -16.632   2.791  1.00  0.00     0.210 HD
ENDBRANCH   6   7
BRANCH   6   9
HETATM    9  C   UNL     1      41.427 -15.417   1.833  1.00  0.00     0.209 C 
BRANCH   9  10
HETATM   10  O   UNL     1      42.697 -15.312   2.486  1.00  0.00    -0.349 OA
BRANCH  10  11
HETATM   11  C   UNL     1      43.168 -16.438   3.103  1.00  0.00     0.069 A 
HETATM   12  C   UNL     1      43.106 -17.598   2.326  1.00  0.00     0.043 A 
HETATM   13  C   UNL     1      43.560 -18.825   2.824  1.00  0.00    -0.059 A 
HETATM   14  C   UNL     1      43.478 -20.067   1.988  1.00  0.00     0.048 C 
HETATM   15  C   UNL     1      44.047 -18.886   4.135  1.00  0.00     0.007 A 
HETATM   16  C   UNL     1      44.099 -17.734   4.919  1.00  0.00     0.003 A 
HETATM   17  C   UNL     1      43.663 -16.510   4.404  1.00  0.00     0.037 A 
ENDBRANCH  10  11
ENDBRANCH   9  10
ENDBRANCH   6   9
ENDBRANCH   5   6
ENDBRANCH   2   5
BRANCH   1  18
HETATM   18  C   UNL     1      42.351 -12.555   5.923  1.00  0.00     0.075 A 
HETATM   19  C   UNL     1      43.482 -13.338   6.266  1.00  0.00     0.158 A 
HETATM   20  N   UNL     1      44.442 -12.651   6.873  1.00  0.00    -0.183 NA
HETATM   21  N   UNL     1      43.931 -11.411   6.979  1.00  0.00    -0.268 N 
HETATM   22  C   UNL     1      42.685 -11.282   6.385  1.00  0.00     0.052 A 
BRANCH  21  23
HETATM   23  C   UNL     1      44.663 -10.403   7.748  1.00  0.00     0.106 C 
HETATM   24  C   UNL     1      46.188 -10.545   7.647  1.00  0.00     0.034 C 
BRANCH  23  25
HETATM   25  C   UNL     1      44.177 -10.340   9.209  1.00  0.00     0.022 C 
HETATM   26  C   UNL     1      45.235  -9.931  10.227  1.00  0.00     0.007 C 
ENDBRANCH  23  25
ENDBRANCH  21  23
BRANCH  22  27
HETATM   27  C   UNL     1      41.936  -9.946   6.304  1.00  0.00     0.038 A 
HETATM   28  C   UNL     1      41.669  -9.297   4.968  1.00  0.00     0.011 A 
HETATM   29  C   UNL     1      40.535  -9.864   5.756  1.00  0.00     0.011 A 
ENDBRANCH  22  27
ENDBRANCH   1  18
TORSDOF 10
ENDMDL
MODEL 3
REMARK VINA RESULT:      -7.1      1.820      3.567
REMARK  10 active torsions:
REMARK  status: ('A' for Active; 'I' for Inactive)
REMARK    1  A    between atoms: C_2  and  C_3 
REMARK    2  A    between atoms: C_3  and  N_4 
REMARK    3  A    between atoms: C_7  and  C_8 
REMARK       I    between atoms: C_8  and  N_9 
REMARK    4  A    between atoms: N_9  and  C_10 
REMARK    5  A    between atoms: C_10  and  C_11 
REMARK    6  A    between atoms: C_11  and  O_12 
REMARK    7  A    between atoms: C_11  and  C_13 
REMARK    8  A    between atoms: C_13  and  O_14 
REMARK    9  A    between atoms: O_14  and  C_15 
REMARK   10  A    between atoms: C_23  and  C_24 
ROOT
HETATM    1  C   UNL     1      39.969 -13.438   3.150  1.00  0.00     0.255 C 
HETATM    2  N   UNL     1      41.138 -13.900   3.723  1.00  0.00    -0.354 N 
HETATM    3  O   UNL     1      39.140 -12.833   3.821  1.00  0.00    -0.268 OA
HETATM    4  H   UNL     1      41.791 -14.420   3.152  1.00  0.00     0.162 HD
ENDROOT
BRANCH   2   5
HETATM    5  C   UNL     1      41.564 -13.516   5.064  1.00  0.00     0.156 C 
BRANCH   5   6
HETATM    6  C   UNL     1      41.153 -14.472   6.201  1.00  0.00     0.160 C 
BRANCH   6   7
HETATM    7  O   UNL     1      39.740 -14.418   6.431  1.00  0.00    -0.392 OA
HETATM    8  H   UNL     1      39.520 -15.062   7.139  1.00  0.00     0.210 HD
ENDBRANCH   6   7
BRANCH   6   9
HETATM    9  C   UNL     1      41.610 -15.915   5.955  1.00  0.00     0.209 C 
BRANCH   9  10
HETATM   10  O   UNL     1      42.842 -15.886   5.227  1.00  0.00    -0.349 OA
BRANCH  10  11
HETATM   11  C   UNL     1      43.105 -16.955   4.417  1.00  0.00     0.069 A 
HETATM   12  C   UNL     1      43.602 -18.081   5.079  1.00  0.00     0.043 A 
HETATM   13  C   UNL     1      43.910 -19.254   4.377  1.00  0.00    -0.059 A 
HETATM   14  C   UNL     1      44.455 -20.452   5.095  1.00  0.00     0.048 C 
HETATM   15  C   UNL     1      43.749 -19.274   2.988  1.00  0.00     0.007 A 
HETATM   16  C   UNL     1      43.265 -18.148   2.320  1.00  0.00     0.003 A 
HETATM   17  C   UNL     1      42.942 -16.991   3.032  1.00  0.00     0.037 A 
ENDBRANCH  10  11
ENDBRANCH   9  10
ENDBRANCH   6   9
ENDBRANCH   5   6
ENDBRANCH   2   5
BRANCH   1  18
HETATM   18  C   UNL     1      39.839 -13.712   1.727  1.00  0.00     0.075 A 
HETATM   19  C   UNL     1      40.216 -14.925   1.095  1.00  0.00     0.158 A 
HETATM   20  N   UNL     1      40.019 -14.926  -0.217  1.00  0.00    -0.183 NA
HETATM   21  N   UNL     1      39.551 -13.691  -0.472  1.00  0.00    -0.268 N 
HETATM   22  C   UNL     1      39.383 -12.925   0.670  1.00  0.00     0.052 A 
BRANCH  21  23
HETATM   23  C   UNL     1      39.366 -13.274  -1.863  1.00  0.00     0.106 C 
HETATM   24  C   UNL     1      38.526 -14.257  -2.690  1.00  0.00     0.034 C 
BRANCH  23  25
HETATM   25  C   UNL     1      40.710 -12.938  -2.540  1.00  0.00     0.022 C 
HETATM   26  C   UNL     1      40.802 -11.539  -3.138  1.00  0.00     0.007 C 
ENDBRANCH  23  25
ENDBRANCH  21  23
BRANCH  22  27
HETATM   27  C   UNL     1      38.786 -11.512   0.644  1.00  0.00     0.038 A 
HETATM   28  C   UNL     1      37.492 -11.239  -0.085  1.00  0.00     0.011 A 
HETATM   29  C   UNL     1      37.530 -11.176   1.407  1.00  0.00     0.011 A 
ENDBRANCH  22  27
ENDBRANCH   1  18
TORSDOF 10
ENDMDL
MODEL 4
REMARK VINA RESULT:      -7.0      1.665      2.120
REMARK  10 active torsions:
REMARK  status: ('A' for Active; 'I' for Inactive)
REMARK    1  A    between atoms: C_2  and  C_3 
REMARK    2  A    between atoms: C_3  and  N_4 
REMARK    3  A    between atoms: C_7  and  C_8 
REMARK       I    between atoms: C_8  and  N_9 
REMARK    4  A    between atoms: N_9  and  C_10 
REMARK    5  A    between atoms: C_10  and  C_11 
REMARK    6  A    between atoms: C_11  and  O_12 
REMARK    7  A    between atoms: C_11  and  C_13 
REMARK    8  A    between atoms: C_13  and  O_14 
REMARK    9  A    between atoms: O_14  and  C_15 
REMARK   10  A    between atoms: C_23  and  C_24 
ROOT
HETATM    1  C   UNL     1      41.292 -12.900   3.127  1.00  0.00     0.255 C 
HETATM    2  N   UNL     1      42.372 -13.662   3.532  1.00  0.00    -0.354 N 
HETATM    3  O   UNL     1      40.571 -12.349   3.951  1.00  0.00    -0.268 OA
HETATM    4  H   UNL     1      42.933 -14.127   2.831  1.00  0.00     0.162 HD
ENDROOT
BRANCH   2   5
HETATM    5  C   UNL     1      42.853 -13.677   4.909  1.00  0.00     0.156 C 
BRANCH   5   6
HETATM    6  C   UNL     1      42.200 -14.718   5.839  1.00  0.00     0.160 C 
BRANCH   6   7
HETATM    7  O   UNL     1      40.951 -14.237   6.351  1.00  0.00    -0.392 OA
HETATM    8  H   UNL     1      40.387 -13.982   5.589  1.00  0.00     0.210 HD
ENDBRANCH   6   7
BRANCH   6   9
HETATM    9  C   UNL     1      42.023 -16.084   5.166  1.00  0.00     0.209 C 
BRANCH   9  10
HETATM   10  O   UNL     1      43.282 -16.490   4.617  1.00  0.00    -0.349 OA
BRANCH  10  11
HETATM   11  C   UNL     1      43.518 -17.834   4.543  1.00  0.00     0.069 A 
HETATM   12  C   UNL     1      43.455 -18.368   3.253  1.00  0.00     0.043 A 
HETATM   13  C   UNL     1      43.683 -19.730   3.023  1.00  0.00    -0.059 A 
HETATM   14  C   UNL     1      43.600 -20.295   1.637  1.00  0.00     0.048 C 
HETATM   15  C   UNL     1      43.939 -20.567   4.114  1.00  0.00     0.007 A 
HETATM   16  C   UNL     1      43.991 -20.043   5.406  1.00  0.00     0.003 A 
HETATM   17  C   UNL     1      43.783 -18.678   5.621  1.00  0.00     0.037 A 
ENDBRANCH  10  11
ENDBRANCH   9  10
ENDBRANCH   6   9
ENDBRANCH   5   6
ENDBRANCH   2   5
BRANCH   1  18
HETATM   18  C   UNL     1      41.120 -12.807   1.685  1.00  0.00     0.075 A 
HETATM   19  C   UNL     1      41.416 -11.661   0.903  1.00  0.00     0.158 A 
HETATM   20  N   UNL     1      41.154 -11.815  -0.389  1.00  0.00    -0.183 NA
HETATM   21  N   UNL     1      40.637 -13.054  -0.466  1.00  0.00    -0.268 N 
HETATM   22  C   UNL     1      40.629 -13.718   0.751  1.00  0.00     0.052 A 
BRANCH  21  23
HETATM   23  C   UNL     1      40.081 -13.514  -1.739  1.00  0.00     0.106 C 
HETATM   24  C   UNL     1      40.663 -12.788  -2.960  1.00  0.00     0.034 C 
BRANCH  23  25
HETATM   25  C   UNL     1      38.540 -13.495  -1.727  1.00  0.00     0.022 C 
HETATM   26  C   UNL     1      37.911 -12.136  -1.442  1.00  0.00     0.007 C 
ENDBRANCH  23  25
ENDBRANCH  21  23
BRANCH  22  27
HETATM   27  C   UNL     1      40.162 -15.172   0.902  1.00  0.00     0.038 A 
HETATM   28  C   UNL     1      41.008 -16.174   1.650  1.00  0.00     0.011 A 
HETATM   29  C   UNL     1      39.711 -15.716   2.233  1.00  0.00     0.011 A 
ENDBRANCH  22  27
ENDBRANCH   1  18
TORSDOF 10
ENDMDL
MODEL 5
REMARK VINA RESULT:      -7.0      1.277      1.928
REMARK  10 active torsions:
REMARK  status: ('A' for Active; 'I' for Inactive)
REMARK    1  A    between atoms: C_2  and  C_3 
REMARK    2  A    between atoms: C_3  and  N_4 
REMARK    3  A    between atoms: C_7  and  C_8 
REMARK       I    between atoms: C_8  and  N_9 
REMARK    4  A    between atoms: N_9  and  C_10 
REMARK    5  A    between atoms: C_10  and  C_11 
REMARK    6  A    between atoms: C_11  and  O_12 
REMARK    7  A    between atoms: C_11  and  C_13 
REMARK    8  A    between atoms: C_13  and  O_14 
REMARK    9  A    between atoms: O_14  and  C_15 
REMARK   10  A    between atoms: C_23  and  C_24 
ROOT
HETATM    1  C   UNL     1      40.718 -14.935   4.823  1.00  0.00     0.255 C 
HETATM    2  N   UNL     1      41.442 -14.574   5.944  1.00  0.00    -0.354 N 
HETATM    3  O   UNL     1      40.478 -16.113   4.586  1.00  0.00    -0.268 OA
HETATM    4  H   UNL     1      41.649 -13.597   6.099  1.00  0.00     0.162 HD
ENDROOT
BRANCH   2   5
HETATM    5  C   UNL     1      41.764 -15.515   7.010  1.00  0.00     0.156 C 
BRANCH   5   6
HETATM    6  C   UNL     1      43.219 -15.485   7.519  1.00  0.00     0.160 C 
BRANCH   6   7
HETATM    7  O   UNL     1      43.277 -15.766   8.923  1.00  0.00    -0.392 OA
HETATM    8  H   UNL     1      42.374 -15.661   9.294  1.00  0.00     0.210 HD
ENDBRANCH   6   7
BRANCH   6   9
HETATM    9  C   UNL     1      44.139 -16.429   6.736  1.00  0.00     0.209 C 
BRANCH   9  10
HETATM   10  O   UNL     1      43.920 -16.224   5.336  1.00  0.00    -0.349 OA
BRANCH  10  11
HETATM   11  C   UNL     1      43.836 -17.342   4.554  1.00  0.00     0.069 A 
HETATM   12  C   UNL     1      44.097 -18.542   5.222  1.00  0.00     0.043 A 
HETATM   13  C   UNL     1      44.041 -19.769   4.549  1.00  0.00    -0.059 A 
HETATM   14  C   UNL     1      44.336 -21.049   5.271  1.00  0.00     0.048 C 
HETATM   15  C   UNL     1      43.755 -19.778   3.180  1.00  0.00     0.007 A 
HETATM   16  C   UNL     1      43.506 -18.582   2.506  1.00  0.00     0.003 A 
HETATM   17  C   UNL     1      43.544 -17.365   3.191  1.00  0.00     0.037 A 
ENDBRANCH  10  11
ENDBRANCH   9  10
ENDBRANCH   6   9
ENDBRANCH   5   6
ENDBRANCH   2   5
BRANCH   1  18
HETATM   18  C   UNL     1      40.272 -13.819   4.002  1.00  0.00     0.075 A 
HETATM   19  C   UNL     1      40.076 -12.494   4.468  1.00  0.00     0.158 A 
HETATM   20  N   UNL     1      39.645 -11.658   3.532  1.00  0.00    -0.183 NA
HETATM   21  N   UNL     1      39.505 -12.438   2.445  1.00  0.00    -0.268 N 
HETATM   22  C   UNL     1      39.908 -13.747   2.658  1.00  0.00     0.052 A 
BRANCH  21  23
HETATM   23  C   UNL     1      38.890 -11.876   1.242  1.00  0.00     0.106 C 
HETATM   24  C   UNL     1      39.788 -10.873   0.505  1.00  0.00     0.034 C 
BRANCH  23  25
HETATM   25  C   UNL     1      37.489 -11.303   1.534  1.00  0.00     0.022 C 
HETATM   26  C   UNL     1      37.380  -9.785   1.451  1.00  0.00     0.007 C 
ENDBRANCH  23  25
ENDBRANCH  21  23
BRANCH  22  27
HETATM   27  C   UNL     1      39.920 -14.805   1.547  1.00  0.00     0.038 A 
HETATM   28  C   UNL     1      40.660 -14.552   0.256  1.00  0.00     0.011 A 
HETATM   29  C   UNL     1      41.170 -15.578   1.213  1.00  0.00     0.011 A 
ENDBRANCH  22  27
ENDBRANCH   1  18
TORSDOF 10
ENDMDL
MODEL 6
REMARK VINA RESULT:      -6.9      3.663      7.785
REMARK  10 active torsions:
REMARK  status: ('A' for Active; 'I' for Inactive)
REMARK    1  A    between atoms: C_2  and  C_3 
REMARK    2  A    between atoms: C_3  and  N_4 
REMARK    3  A    between atoms: C_7  and  C_8 
REMARK       I    between atoms: C_8  and  N_9 
REMARK    4  A    between atoms: N_9  and  C_10 
REMARK    5  A    between atoms: C_10  and  C_11 
REMARK    6  A    between atoms: C_11  and  O_12 
REMARK    7  A    between atoms: C_11  and  C_13 
REMARK    8  A    between atoms: C_13  and  O_14 
REMARK    9  A    between atoms: O_14  and  C_15 
REMARK   10  A    between atoms: C_23  and  C_24 
ROOT
HETATM    1  C   UNL     1      42.821 -13.050   3.381  1.00  0.00     0.255 C 
HETATM    2  N   UNL     1      41.529 -12.771   3.787  1.00  0.00    -0.354 N 
HETATM    3  O   UNL     1      43.659 -12.159   3.307  1.00  0.00    -0.268 OA
HETATM    4  H   UNL     1      40.852 -13.521   3.812  1.00  0.00     0.162 HD
ENDROOT
BRANCH   2   5
HETATM    5  C   UNL     1      41.144 -11.486   4.360  1.00  0.00     0.156 C 
BRANCH   5   6
HETATM    6  C   UNL     1      41.131 -11.411   5.899  1.00  0.00     0.160 C 
BRANCH   6   7
HETATM    7  O   UNL     1      40.566 -12.600   6.466  1.00  0.00    -0.392 OA
HETATM    8  H   UNL     1      41.303 -13.182   6.752  1.00  0.00     0.210 HD
ENDBRANCH   6   7
BRANCH   6   9
HETATM    9  C   UNL     1      42.519 -11.133   6.489  1.00  0.00     0.209 C 
BRANCH   9  10
HETATM   10  O   UNL     1      42.410 -10.055   7.425  1.00  0.00    -0.349 OA
BRANCH  10  11
HETATM   11  C   UNL     1      43.420  -9.926   8.337  1.00  0.00     0.069 A 
HETATM   12  C   UNL     1      43.017  -9.464   9.593  1.00  0.00     0.043 A 
HETATM   13  C   UNL     1      43.943  -9.290  10.630  1.00  0.00    -0.059 A 
HETATM   14  C   UNL     1      43.502  -8.783  11.969  1.00  0.00     0.048 C 
HETATM   15  C   UNL     1      45.295  -9.550  10.381  1.00  0.00     0.007 A 
HETATM   16  C   UNL     1      45.705  -9.999   9.125  1.00  0.00     0.003 A 
HETATM   17  C   UNL     1      44.770 -10.189   8.104  1.00  0.00     0.037 A 
ENDBRANCH  10  11
ENDBRANCH   9  10
ENDBRANCH   6   9
ENDBRANCH   5   6
ENDBRANCH   2   5
BRANCH   1  18
HETATM   18  C   UNL     1      43.075 -14.452   3.083  1.00  0.00     0.075 A 
HETATM   19  C   UNL     1      43.317 -14.977   1.788  1.00  0.00     0.158 A 
HETATM   20  N   UNL     1      43.501 -16.291   1.771  1.00  0.00    -0.183 NA
HETATM   21  N   UNL     1      43.336 -16.654   3.056  1.00  0.00    -0.268 N 
HETATM   22  C   UNL     1      43.116 -15.579   3.903  1.00  0.00     0.052 A 
BRANCH  21  23
HETATM   23  C   UNL     1      43.314 -18.078   3.394  1.00  0.00     0.106 C 
HETATM   24  C   UNL     1      44.618 -18.575   4.035  1.00  0.00     0.034 C 
BRANCH  23  25
HETATM   25  C   UNL     1      42.886 -18.942   2.192  1.00  0.00     0.022 C 
HETATM   26  C   UNL     1      43.590 -20.290   2.079  1.00  0.00     0.007 C 
ENDBRANCH  23  25
ENDBRANCH  21  23
BRANCH  22  27
HETATM   27  C   UNL     1      42.979 -15.732   5.423  1.00  0.00     0.038 A 
HETATM   28  C   UNL     1      44.202 -15.921   6.287  1.00  0.00     0.011 A 
HETATM   29  C   UNL     1      43.430 -14.645   6.364  1.00  0.00     0.011 A 
ENDBRANCH  22  27
ENDBRANCH   1  18
TORSDOF 10
ENDMDL
MODEL 7
REMARK VINA RESULT:      -6.8      3.780      6.516
REMARK  10 active torsions:
REMARK  status: ('A' for Active; 'I' for Inactive)
REMARK    1  A    between atoms: C_2  and  C_3 
REMARK    2  A    between atoms: C_3  and  N_4 
REMARK    3  A    between atoms: C_7  and  C_8 
REMARK       I    between atoms: C_8  and  N_9 
REMARK    4  A    between atoms: N_9  and  C_10 
REMARK    5  A    between atoms: C_10  and  C_11 
REMARK    6  A    between atoms: C_11  and  O_12 
REMARK    7  A    between atoms: C_11  and  C_13 
REMARK    8  A    between atoms: C_13  and  O_14 
REMARK    9  A    between atoms: O_14  and  C_15 
REMARK   10  A    between atoms: C_23  and  C_24 
ROOT
HETATM    1  C   UNL     1      42.985 -11.245   5.202  1.00  0.00     0.255 C 
HETATM    2  N   UNL     1      42.014 -12.227   5.259  1.00  0.00    -0.354 N 
HETATM    3  O   UNL     1      43.237 -10.675   4.147  1.00  0.00    -0.268 OA
HETATM    4  H   UNL     1      41.847 -12.700   6.137  1.00  0.00     0.162 HD
ENDROOT
BRANCH   2   5
HETATM    5  C   UNL     1      41.090 -12.486   4.161  1.00  0.00     0.156 C 
BRANCH   5   6
HETATM    6  C   UNL     1      41.609 -13.417   3.048  1.00  0.00     0.160 C 
BRANCH   6   7
HETATM    7  O   UNL     1      42.243 -12.667   2.005  1.00  0.00    -0.392 OA
HETATM    8  H   UNL     1      41.744 -11.830   1.884  1.00  0.00     0.210 HD
ENDBRANCH   6   7
BRANCH   6   9
HETATM    9  C   UNL     1      42.546 -14.509   3.581  1.00  0.00     0.209 C 
BRANCH   9  10
HETATM   10  O   UNL     1      42.269 -15.729   2.883  1.00  0.00    -0.349 OA
BRANCH  10  11
HETATM   11  C   UNL     1      42.946 -16.842   3.296  1.00  0.00     0.069 A 
HETATM   12  C   UNL     1      42.874 -17.928   2.418  1.00  0.00     0.043 A 
HETATM   13  C   UNL     1      43.525 -19.133   2.707  1.00  0.00    -0.059 A 
HETATM   14  C   UNL     1      43.432 -20.295   1.764  1.00  0.00     0.048 C 
HETATM   15  C   UNL     1      44.225 -19.253   3.912  1.00  0.00     0.007 A 
HETATM   16  C   UNL     1      44.289 -18.178   4.798  1.00  0.00     0.003 A 
HETATM   17  C   UNL     1      43.653 -16.972   4.491  1.00  0.00     0.037 A 
ENDBRANCH  10  11
ENDBRANCH   9  10
ENDBRANCH   6   9
ENDBRANCH   5   6
ENDBRANCH   2   5
BRANCH   1  18
HETATM   18  C   UNL     1      43.634 -10.957   6.473  1.00  0.00     0.075 A 
HETATM   19  C   UNL     1      44.815 -11.588   6.944  1.00  0.00     0.158 A 
HETATM   20  N   UNL     1      45.201 -11.169   8.142  1.00  0.00    -0.183 NA
HETATM   21  N   UNL     1      44.248 -10.287   8.496  1.00  0.00    -0.268 N 
HETATM   22  C   UNL     1      43.296 -10.088   7.509  1.00  0.00     0.052 A 
BRANCH  21  23
HETATM   23  C   UNL     1      44.263  -9.730   9.850  1.00  0.00     0.106 C 
HETATM   24  C   UNL     1      45.676  -9.503  10.403  1.00  0.00     0.034 C 
BRANCH  23  25
HETATM   25  C   UNL     1      43.382 -10.550  10.812  1.00  0.00     0.022 C 
HETATM   26  C   UNL     1      43.006  -9.842  12.109  1.00  0.00     0.007 C 
ENDBRANCH  23  25
ENDBRANCH  21  23
BRANCH  22  27
HETATM   27  C   UNL     1      42.156  -9.071   7.646  1.00  0.00     0.038 A 
HETATM   28  C   UNL     1      42.435  -7.590   7.558  1.00  0.00     0.011 A 
HETATM   29  C   UNL     1      41.676  -8.267   6.465  1.00  0.00     0.011 A 
ENDBRANCH  22  27
ENDBRANCH   1  18
TORSDOF 10
ENDMDL
MODEL 8
REMARK VINA RESULT:      -6.7      2.084      3.880
REMARK  10 active torsions:
REMARK  status: ('A' for Active; 'I' for Inactive)
REMARK    1  A    between atoms: C_2  and  C_3 
REMARK    2  A    between atoms: C_3  and  N_4 
REMARK    3  A    between atoms: C_7  and  C_8 
REMARK       I    between atoms: C_8  and  N_9 
REMARK    4  A    between atoms: N_9  and  C_10 
REMARK    5  A    between atoms: C_10  and  C_11 
REMARK    6  A    between atoms: C_11  and  O_12 
REMARK    7  A    between atoms: C_11  and  C_13 
REMARK    8  A    between atoms: C_13  and  O_14 
REMARK    9  A    between atoms: O_14  and  C_15 
REMARK   10  A    between atoms: C_23  and  C_24 
ROOT
HETATM    1  C   UNL     1      39.962 -12.340   2.789  1.00  0.00     0.255 C 
HETATM    2  N   UNL     1      39.397 -13.081   3.809  1.00  0.00    -0.354 N 
HETATM    3  O   UNL     1      40.387 -11.209   2.999  1.00  0.00    -0.268 OA
HETATM    4  H   UNL     1      39.029 -14.000   3.600  1.00  0.00     0.162 HD
ENDROOT
BRANCH   2   5
HETATM    5  C   UNL     1      39.472 -12.681   5.209  1.00  0.00     0.156 C 
BRANCH   5   6
HETATM    6  C   UNL     1      40.313 -13.592   6.126  1.00  0.00     0.160 C 
BRANCH   6   7
HETATM    7  O   UNL     1      39.597 -14.787   6.458  1.00  0.00    -0.392 OA
HETATM    8  H   UNL     1      39.623 -14.898   7.433  1.00  0.00     0.210 HD
ENDBRANCH   6   7
BRANCH   6   9
HETATM    9  C   UNL     1      41.685 -13.927   5.528  1.00  0.00     0.209 C 
BRANCH   9  10
HETATM   10  O   UNL     1      41.521 -14.975   4.566  1.00  0.00    -0.349 OA
BRANCH  10  11
HETATM   11  C   UNL     1      42.472 -15.957   4.555  1.00  0.00     0.069 A 
HETATM   12  C   UNL     1      42.368 -16.859   3.492  1.00  0.00     0.043 A 
HETATM   13  C   UNL     1      43.279 -17.912   3.348  1.00  0.00    -0.059 A 
HETATM   14  C   UNL     1      43.150 -18.882   2.212  1.00  0.00     0.048 C 
HETATM   15  C   UNL     1      44.282 -18.076   4.309  1.00  0.00     0.007 A 
HETATM   16  C   UNL     1      44.383 -17.187   5.379  1.00  0.00     0.003 A 
HETATM   17  C   UNL     1      43.482 -16.127   5.502  1.00  0.00     0.037 A 
ENDBRANCH  10  11
ENDBRANCH   9  10
ENDBRANCH   6   9
ENDBRANCH   5   6
ENDBRANCH   2   5
BRANCH   1  18
HETATM   18  C   UNL     1      40.015 -13.017   1.502  1.00  0.00     0.075 A 
HETATM   19  C   UNL     1      40.513 -14.329   1.293  1.00  0.00     0.158 A 
HETATM   20  N   UNL     1      40.476 -14.717   0.025  1.00  0.00    -0.183 NA
HETATM   21  N   UNL     1      39.996 -13.642  -0.626  1.00  0.00    -0.268 N 
HETATM   22  C   UNL     1      39.660 -12.597   0.220  1.00  0.00     0.052 A 
BRANCH  21  23
HETATM   23  C   UNL     1      39.964 -13.653  -2.089  1.00  0.00     0.106 C 
HETATM   24  C   UNL     1      40.762 -12.508  -2.727  1.00  0.00     0.034 C 
BRANCH  23  25
HETATM   25  C   UNL     1      38.522 -13.732  -2.627  1.00  0.00     0.022 C 
HETATM   26  C   UNL     1      38.219 -14.950  -3.493  1.00  0.00     0.007 C 
ENDBRANCH  23  25
ENDBRANCH  21  23
BRANCH  22  27
HETATM   27  C   UNL     1      39.017 -11.297  -0.278  1.00  0.00     0.038 A 
HETATM   28  C   UNL     1      37.533 -11.230  -0.547  1.00  0.00     0.011 A 
HETATM   29  C   UNL     1      38.112 -10.480   0.607  1.00  0.00     0.011 A 
ENDBRANCH  22  27
ENDBRANCH   1  18
TORSDOF 10
ENDMDL
MODEL 9
REMARK VINA RESULT:      -6.7      3.216      6.904
REMARK  10 active torsions:
REMARK  status: ('A' for Active; 'I' for Inactive)
REMARK    1  A    between atoms: C_2  and  C_3 
REMARK    2  A    between atoms: C_3  and  N_4 
REMARK    3  A    between atoms: C_7  and  C_8 
REMARK       I    between atoms: C_8  and  N_9 
REMARK    4  A    between atoms: N_9  and  C_10 
REMARK    5  A    between atoms: C_10  and  C_11 
REMARK    6  A    between atoms: C_11  and  O_12 
REMARK    7  A    between atoms: C_11  and  C_13 
REMARK    8  A    between atoms: C_13  and  O_14 
REMARK    9  A    between atoms: O_14  and  C_15 
REMARK   10  A    between atoms: C_23  and  C_24 
ROOT
HETATM    1  C   UNL     1      40.135 -13.224   5.862  1.00  0.00     0.255 C 
HETATM    2  N   UNL     1      40.117 -11.842   5.859  1.00  0.00    -0.354 N 
HETATM    3  O   UNL     1      39.535 -13.855   6.725  1.00  0.00    -0.268 OA
HETATM    4  H   UNL     1      40.644 -11.348   5.151  1.00  0.00     0.162 HD
ENDROOT
BRANCH   2   5
HETATM    5  C   UNL     1      39.226 -11.064   6.712  1.00  0.00     0.156 C 
BRANCH   5   6
HETATM    6  C   UNL     1      39.648  -9.604   6.972  1.00  0.00     0.160 C 
BRANCH   6   7
HETATM    7  O   UNL     1      38.727  -8.954   7.856  1.00  0.00    -0.392 OA
HETATM    8  H   UNL     1      38.023  -9.597   8.091  1.00  0.00     0.210 HD
ENDBRANCH   6   7
BRANCH   6   9
HETATM    9  C   UNL     1      41.084  -9.489   7.500  1.00  0.00     0.209 C 
BRANCH   9  10
HETATM   10  O   UNL     1      41.988  -9.832   6.444  1.00  0.00    -0.349 OA
BRANCH  10  11
HETATM   11  C   UNL     1      43.220 -10.295   6.813  1.00  0.00     0.069 A 
HETATM   12  C   UNL     1      43.703  -9.774   8.017  1.00  0.00     0.043 A 
HETATM   13  C   UNL     1      44.949 -10.163   8.523  1.00  0.00    -0.059 A 
HETATM   14  C   UNL     1      45.464  -9.588   9.809  1.00  0.00     0.048 C 
HETATM   15  C   UNL     1      45.730 -11.059   7.786  1.00  0.00     0.007 A 
HETATM   16  C   UNL     1      45.259 -11.572   6.577  1.00  0.00     0.003 A 
HETATM   17  C   UNL     1      44.005 -11.193   6.091  1.00  0.00     0.037 A 
ENDBRANCH  10  11
ENDBRANCH   9  10
ENDBRANCH   6   9
ENDBRANCH   5   6
ENDBRANCH   2   5
BRANCH   1  18
HETATM   18  C   UNL     1      40.889 -13.826   4.773  1.00  0.00     0.075 A 
HETATM   19  C   UNL     1      40.700 -13.538   3.397  1.00  0.00     0.158 A 
HETATM   20  N   UNL     1      41.496 -14.231   2.593  1.00  0.00    -0.183 NA
HETATM   21  N   UNL     1      42.190 -15.022   3.432  1.00  0.00    -0.268 N 
HETATM   22  C   UNL     1      41.895 -14.792   4.766  1.00  0.00     0.052 A 
BRANCH  21  23
HETATM   23  C   UNL     1      43.069 -16.051   2.875  1.00  0.00     0.106 C 
HETATM   24  C   UNL     1      43.589 -15.717   1.469  1.00  0.00     0.034 C 
BRANCH  23  25
HETATM   25  C   UNL     1      42.423 -17.449   2.943  1.00  0.00     0.022 C 
HETATM   26  C   UNL     1      43.233 -18.569   2.301  1.00  0.00     0.007 C 
ENDBRANCH  23  25
ENDBRANCH  21  23
BRANCH  22  27
HETATM   27  C   UNL     1      42.615 -15.512   5.913  1.00  0.00     0.038 A 
HETATM   28  C   UNL     1      44.041 -15.161   6.264  1.00  0.00     0.011 A 
HETATM   29  C   UNL     1      42.937 -14.805   7.204  1.00  0.00     0.011 A 
ENDBRANCH  22  27
ENDBRANCH   1  18
TORSDOF 10
ENDMDL
MODEL 10
REMARK VINA RESULT:      -6.6      1.904      2.976
REMARK  10 active torsions:
REMARK  status: ('A' for Active; 'I' for Inactive)
REMARK    1  A    between atoms: C_2  and  C_3 
REMARK    2  A    between atoms: C_3  and  N_4 
REMARK    3  A    between atoms: C_7  and  C_8 
REMARK       I    between atoms: C_8  and  N_9 
REMARK    4  A    between atoms: N_9  and  C_10 
REMARK    5  A    between atoms: C_10  and  C_11 
REMARK    6  A    between atoms: C_11  and  O_12 
REMARK    7  A    between atoms: C_11  and  C_13 
REMARK    8  A    between atoms: C_13  and  O_14 
REMARK    9  A    between atoms: O_14  and  C_15 
REMARK   10  A    between atoms: C_23  and  C_24 
ROOT
HETATM    1  C   UNL     1      40.868 -13.796   3.047  1.00  0.00     0.255 C 
HETATM    2  N   UNL     1      42.155 -14.239   3.290  1.00  0.00    -0.354 N 
HETATM    3  O   UNL     1      40.262 -13.143   3.889  1.00  0.00    -0.268 OA
HETATM    4  H   UNL     1      42.620 -14.799   2.589  1.00  0.00     0.162 HD
ENDROOT
BRANCH   2   5
HETATM    5  C   UNL     1      42.943 -13.782   4.429  1.00  0.00     0.156 C 
BRANCH   5   6
HETATM    6  C   UNL     1      42.819 -14.622   5.715  1.00  0.00     0.160 C 
BRANCH   6   7
HETATM    7  O   UNL     1      41.823 -14.077   6.590  1.00  0.00    -0.392 OA
HETATM    8  H   UNL     1      41.281 -13.440   6.075  1.00  0.00     0.210 HD
ENDBRANCH   6   7
BRANCH   6   9
HETATM    9  C   UNL     1      42.540 -16.103   5.429  1.00  0.00     0.209 C 
BRANCH   9  10
HETATM   10  O   UNL     1      43.595 -16.617   4.609  1.00  0.00    -0.349 OA
BRANCH  10  11
HETATM   11  C   UNL     1      43.710 -17.977   4.532  1.00  0.00     0.069 A 
HETATM   12  C   UNL     1      43.627 -18.497   3.237  1.00  0.00     0.043 A 
HETATM   13  C   UNL     1      43.735 -19.874   3.004  1.00  0.00    -0.059 A 
HETATM   14  C   UNL     1      43.632 -20.422   1.613  1.00  0.00     0.048 C 
HETATM   15  C   UNL     1      43.891 -20.735   4.095  1.00  0.00     0.007 A 
HETATM   16  C   UNL     1      43.961 -20.222   5.391  1.00  0.00     0.003 A 
HETATM   17  C   UNL     1      43.873 -18.845   5.610  1.00  0.00     0.037 A 
ENDBRANCH  10  11
ENDBRANCH   9  10
ENDBRANCH   6   9
ENDBRANCH   5   6
ENDBRANCH   2   5
BRANCH   1  18
HETATM   18  C   UNL     1      40.339 -14.152   1.739  1.00  0.00     0.075 A 
HETATM   19  C   UNL     1      40.096 -15.477   1.293  1.00  0.00     0.158 A 
HETATM   20  N   UNL     1      39.631 -15.545   0.052  1.00  0.00    -0.183 NA
HETATM   21  N   UNL     1      39.607 -14.262  -0.352  1.00  0.00    -0.268 N 
HETATM   22  C   UNL     1      39.986 -13.370   0.639  1.00  0.00     0.052 A 
BRANCH  21  23
HETATM   23  C   UNL     1      39.290 -13.963  -1.750  1.00  0.00     0.106 C 
HETATM   24  C   UNL     1      40.523 -13.621  -2.598  1.00  0.00     0.034 C 
BRANCH  23  25
HETATM   25  C   UNL     1      38.185 -12.895  -1.866  1.00  0.00     0.022 C 
HETATM   26  C   UNL     1      37.035 -13.252  -2.800  1.00  0.00     0.007 C 
ENDBRANCH  23  25
ENDBRANCH  21  23
BRANCH  22  27
HETATM   27  C   UNL     1      39.962 -11.849   0.444  1.00  0.00     0.038 A 
HETATM   28  C   UNL     1      40.894 -10.960   1.231  1.00  0.00     0.011 A 
HETATM   29  C   UNL     1      41.095 -11.128  -0.239  1.00  0.00     0.011 A 
ENDBRANCH  22  27
ENDBRANCH   1  18
TORSDOF 10
ENDMDL
