MODEL 1
REMARK VINA RESULT:      -7.8      0.000      0.000
REMARK  3 active torsions:
REMARK  status: ('A' for Active; 'I' for Inactive)
REMARK    1  A    between atoms: C_6  and  C_7 
REMARK       I    between atoms: C_7  and  N_8 
REMARK    2  A    between atoms: N_8  and  C_9 
REMARK    3  A    between atoms: C_12  and  C_13 
REMARK       I    between atoms: C_13  and  N_14 
ROOT
HETATM    1  C   UNL     1      42.750 -14.446   5.840  1.00  0.00     0.257 C 
HETATM    2  N   UNL     1      43.596 -13.396   5.538  1.00  0.00    -0.322 N 
HETATM    3  O   UNL     1      41.986 -14.527   6.791  1.00  0.00    -0.267 OA
HETATM    4  H   UNL     1      44.172 -13.498   4.711  1.00  0.00     0.169 HD
ENDROOT
BRANCH   2   5
HETATM    5  C   UNL     1      43.738 -12.202   6.272  1.00  0.00     0.052 A 
HETATM    6  C   UNL     1      42.746 -11.232   6.421  1.00  0.00     0.147 A 
HETATM    7  N   UNL     1      42.893 -10.089   7.141  1.00  0.00    -0.253 NA
HETATM    8  C   UNL     1      44.101  -9.901   7.738  1.00  0.00     0.124 A 
HETATM    9  C   UNL     1      45.154 -10.801   7.645  1.00  0.00     0.039 A 
HETATM   10  C   UNL     1      44.963 -11.967   6.904  1.00  0.00     0.033 A 
BRANCH   8  11
HETATM   11  C   UNL     1      44.261  -8.644   8.533  1.00  0.00     0.268 C 
HETATM   12  N   UNL     1      43.283  -8.416   9.464  1.00  0.00    -0.365 N 
HETATM   13  H   UNL     1      42.527  -9.086   9.563  1.00  0.00     0.159 HD
HETATM   14  H   UNL     1      43.321  -7.592  10.045  1.00  0.00     0.159 HD
HETATM   15  O   UNL     1      45.199  -7.873   8.373  1.00  0.00    -0.266 OA
ENDBRANCH   8  11
ENDBRANCH   2   5
BRANCH   1  16
HETATM   16  C   UNL     1      42.834 -15.584   4.886  1.00  0.00     0.044 A 
HETATM   17  C   UNL     1      43.792 -16.593   5.117  1.00  0.00    -0.045 A 
HETATM   18  C   UNL     1      43.860 -17.678   4.230  1.00  0.00     0.014 A 
HETATM   19  C   UNL     1      44.718 -16.555   6.304  1.00  0.00     0.049 C 
HETATM   20  C   UNL     1      43.001 -17.765   3.129  1.00  0.00    -0.061 A 
HETATM   21  C   UNL     1      43.108 -18.921   2.177  1.00  0.00     0.048 C 
HETATM   22  C   UNL     1      42.072 -16.743   2.901  1.00  0.00     0.014 A 
HETATM   23  C   UNL     1      41.956 -15.657   3.784  1.00  0.00    -0.045 A 
HETATM   24  C   UNL     1      40.909 -14.612   3.513  1.00  0.00     0.049 C 
ENDBRANCH   1  16
TORSDOF 3
ENDMDL
MODEL 2
REMARK VINA RESULT:      -7.7      0.129      1.905
REMARK  3 active torsions:
REMARK  status: ('A' for Active; 'I' for Inactive)
REMARK    1  A    between atoms: C_6  and  C_7 
REMARK       I    between atoms: C_7  and  N_8 
REMARK    2  A    between atoms: N_8  and  C_9 
REMARK    3  A    between atoms: C_12  and  C_13 
REMARK       I    between atoms: C_13  and  N_14 
ROOT
HETATM    1  C   UNL     1      42.675 -14.372   5.791  1.00  0.00     0.257 C 
HETATM    2  N   UNL     1      43.574 -13.355   5.532  1.00  0.00    -0.322 N 
HETATM    3  O   UNL     1      41.838 -14.406   6.682  1.00  0.00    -0.267 OA
HETATM    4  H   UNL     1      44.209 -13.494   4.755  1.00  0.00     0.169 HD
ENDROOT
BRANCH   2   5
HETATM    5  C   UNL     1      43.697 -12.148   6.248  1.00  0.00     0.052 A 
HETATM    6  C   UNL     1      42.735 -11.137   6.284  1.00  0.00     0.147 A 
HETATM    7  N   UNL     1      42.862  -9.982   6.987  1.00  0.00    -0.253 NA
HETATM    8  C   UNL     1      44.017  -9.824   7.687  1.00  0.00     0.124 A 
HETATM    9  C   UNL     1      45.038 -10.764   7.712  1.00  0.00     0.039 A 
HETATM   10  C   UNL     1      44.868 -11.942   6.984  1.00  0.00     0.033 A 
BRANCH   8  11
HETATM   11  C   UNL     1      44.154  -8.553   8.465  1.00  0.00     0.268 C 
HETATM   12  N   UNL     1      43.112  -8.270   9.306  1.00  0.00    -0.365 N 
HETATM   13  H   UNL     1      42.328  -8.912   9.357  1.00  0.00     0.159 HD
HETATM   14  H   UNL     1      43.131  -7.433   9.869  1.00  0.00     0.159 HD
HETATM   15  O   UNL     1      45.128  -7.817   8.365  1.00  0.00    -0.266 OA
ENDBRANCH   8  11
ENDBRANCH   2   5
BRANCH   1  16
HETATM   16  C   UNL     1      42.796 -15.534   4.872  1.00  0.00     0.044 A 
HETATM   17  C   UNL     1      41.957 -15.594   3.740  1.00  0.00    -0.045 A 
HETATM   18  C   UNL     1      42.084 -16.679   2.859  1.00  0.00     0.014 A 
HETATM   19  C   UNL     1      40.956 -14.512   3.433  1.00  0.00     0.049 C 
HETATM   20  C   UNL     1      43.020 -17.693   3.094  1.00  0.00    -0.061 A 
HETATM   21  C   UNL     1      43.121 -18.859   2.153  1.00  0.00     0.048 C 
HETATM   22  C   UNL     1      43.829 -17.630   4.234  1.00  0.00     0.014 A 
HETATM   23  C   UNL     1      43.749 -16.544   5.122  1.00  0.00    -0.045 A 
HETATM   24  C   UNL     1      44.675 -16.508   6.307  1.00  0.00     0.049 C 
ENDBRANCH   1  16
TORSDOF 3
ENDMDL
MODEL 3
REMARK VINA RESULT:      -7.7      3.745      4.386
REMARK  3 active torsions:
REMARK  status: ('A' for Active; 'I' for Inactive)
REMARK    1  A    between atoms: C_6  and  C_7 
REMARK       I    between atoms: C_7  and  N_8 
REMARK    2  A    between atoms: N_8  and  C_9 
REMARK    3  A    between atoms: C_12  and  C_13 
REMARK       I    between atoms: C_13  and  N_14 
ROOT
HETATM    1  C   UNL     1      42.532 -15.225   4.325  1.00  0.00     0.257 C 
HETATM    2  N   UNL     1      41.166 -15.041   4.419  1.00  0.00    -0.322 N 
HETATM    3  O   UNL     1      43.404 -14.398   4.547  1.00  0.00    -0.267 OA
HETATM    4  H   UNL     1      40.581 -15.835   4.188  1.00  0.00     0.169 HD
ENDROOT
BRANCH   2   5
HETATM    5  C   UNL     1      40.508 -13.854   4.800  1.00  0.00     0.052 A 
HETATM    6  C   UNL     1      40.126 -13.535   6.104  1.00  0.00     0.147 A 
HETATM    7  N   UNL     1      39.502 -12.382   6.459  1.00  0.00    -0.253 NA
HETATM    8  C   UNL     1      39.238 -11.502   5.456  1.00  0.00     0.124 A 
HETATM    9  C   UNL     1      39.571 -11.728   4.127  1.00  0.00     0.039 A 
HETATM   10  C   UNL     1      40.219 -12.919   3.802  1.00  0.00     0.033 A 
BRANCH   8  11
HETATM   11  C   UNL     1      38.554 -10.231   5.849  1.00  0.00     0.268 C 
HETATM   12  N   UNL     1      37.896  -9.587   4.836  1.00  0.00    -0.365 N 
HETATM   13  H   UNL     1      37.906  -9.989   3.904  1.00  0.00     0.159 HD
HETATM   14  H   UNL     1      37.406  -8.725   5.020  1.00  0.00     0.159 HD
HETATM   15  O   UNL     1      38.573  -9.795   6.993  1.00  0.00    -0.266 OA
ENDBRANCH   8  11
ENDBRANCH   2   5
BRANCH   1  16
HETATM   16  C   UNL     1      42.928 -16.587   3.878  1.00  0.00     0.044 A 
HETATM   17  C   UNL     1      42.882 -16.889   2.501  1.00  0.00    -0.045 A 
HETATM   18  C   UNL     1      43.276 -18.166   2.074  1.00  0.00     0.014 A 
HETATM   19  C   UNL     1      42.457 -15.871   1.477  1.00  0.00     0.049 C 
HETATM   20  C   UNL     1      43.703 -19.133   2.991  1.00  0.00    -0.061 A 
HETATM   21  C   UNL     1      44.094 -20.503   2.516  1.00  0.00     0.048 C 
HETATM   22  C   UNL     1      43.721 -18.825   4.356  1.00  0.00     0.014 A 
HETATM   23  C   UNL     1      43.361 -17.547   4.817  1.00  0.00    -0.045 A 
HETATM   24  C   UNL     1      43.442 -17.259   6.291  1.00  0.00     0.049 C 
ENDBRANCH   1  16
TORSDOF 3
ENDMDL
MODEL 4
REMARK VINA RESULT:      -7.7      1.369      1.621
REMARK  3 active torsions:
REMARK  status: ('A' for Active; 'I' for Inactive)
REMARK    1  A    between atoms: C_6  and  C_7 
REMARK       I    between atoms: C_7  and  N_8 
REMARK    2  A    between atoms: N_8  and  C_9 
REMARK    3  A    between atoms: C_12  and  C_13 
REMARK       I    between atoms: C_13  and  N_14 
ROOT
HETATM    1  C   UNL     1      42.285 -15.603   4.961  1.00  0.00     0.257 C 
HETATM    2  N   UNL     1      43.226 -14.592   4.984  1.00  0.00    -0.322 N 
HETATM    3  O   UNL     1      41.207 -15.621   5.537  1.00  0.00    -0.267 OA
HETATM    4  H   UNL     1      44.075 -14.746   4.453  1.00  0.00     0.169 HD
ENDROOT
BRANCH   2   5
HETATM    5  C   UNL     1      43.120 -13.370   5.678  1.00  0.00     0.052 A 
HETATM    6  C   UNL     1      42.164 -12.386   5.423  1.00  0.00     0.147 A 
HETATM    7  N   UNL     1      42.066 -11.216   6.108  1.00  0.00    -0.253 NA
HETATM    8  C   UNL     1      42.980 -11.015   7.095  1.00  0.00     0.124 A 
HETATM    9  C   UNL     1      43.975 -11.927   7.421  1.00  0.00     0.039 A 
HETATM   10  C   UNL     1      44.038 -13.121   6.702  1.00  0.00     0.033 A 
BRANCH   8  11
HETATM   11  C   UNL     1      42.870  -9.728   7.851  1.00  0.00     0.268 C 
HETATM   12  N   UNL     1      41.852  -9.675   8.763  1.00  0.00    -0.365 N 
HETATM   13  H   UNL     1      41.244 -10.480   8.876  1.00  0.00     0.159 HD
HETATM   14  H   UNL     1      41.713  -8.843   9.317  1.00  0.00     0.159 HD
HETATM   15  O   UNL     1      43.636  -8.789   7.674  1.00  0.00    -0.266 OA
ENDBRANCH   8  11
ENDBRANCH   2   5
BRANCH   1  16
HETATM   16  C   UNL     1      42.687 -16.784   4.152  1.00  0.00     0.044 A 
HETATM   17  C   UNL     1      43.495 -17.773   4.751  1.00  0.00    -0.045 A 
HETATM   18  C   UNL     1      43.859 -18.899   3.997  1.00  0.00     0.014 A 
HETATM   19  C   UNL     1      43.948 -17.671   6.183  1.00  0.00     0.049 C 
HETATM   20  C   UNL     1      43.438 -19.045   2.670  1.00  0.00    -0.061 A 
HETATM   21  C   UNL     1      43.861 -20.245   1.873  1.00  0.00     0.048 C 
HETATM   22  C   UNL     1      42.656 -18.044   2.084  1.00  0.00     0.014 A 
HETATM   23  C   UNL     1      42.249 -16.918   2.817  1.00  0.00    -0.045 A 
HETATM   24  C   UNL     1      41.372 -15.895   2.148  1.00  0.00     0.049 C 
ENDBRANCH   1  16
TORSDOF 3
ENDMDL
MODEL 5
REMARK VINA RESULT:      -7.5      3.800      4.121
REMARK  3 active torsions:
REMARK  status: ('A' for Active; 'I' for Inactive)
REMARK    1  A    between atoms: C_6  and  C_7 
REMARK       I    between atoms: C_7  and  N_8 
REMARK    2  A    between atoms: N_8  and  C_9 
REMARK    3  A    between atoms: C_12  and  C_13 
REMARK       I    between atoms: C_13  and  N_14 
ROOT
HETATM    1  C   UNL     1      42.656 -15.479   4.592  1.00  0.00     0.257 C 
HETATM    2  N   UNL     1      41.287 -15.302   4.653  1.00  0.00    -0.322 N 
HETATM    3  O   UNL     1      43.518 -14.630   4.765  1.00  0.00    -0.267 OA
HETATM    4  H   UNL     1      40.713 -16.117   4.473  1.00  0.00     0.169 HD
ENDROOT
BRANCH   2   5
HETATM    5  C   UNL     1      40.614 -14.098   4.937  1.00  0.00     0.052 A 
HETATM    6  C   UNL     1      40.050 -13.768   6.171  1.00  0.00     0.147 A 
HETATM    7  N   UNL     1      39.413 -12.598   6.435  1.00  0.00    -0.253 NA
HETATM    8  C   UNL     1      39.327 -11.711   5.407  1.00  0.00     0.124 A 
HETATM    9  C   UNL     1      39.847 -11.946   4.141  1.00  0.00     0.039 A 
HETATM   10  C   UNL     1      40.502 -13.155   3.911  1.00  0.00     0.033 A 
BRANCH   8  11
HETATM   11  C   UNL     1      38.627 -10.421   5.699  1.00  0.00     0.268 C 
HETATM   12  N   UNL     1      38.002  -9.842   4.628  1.00  0.00    -0.365 N 
HETATM   13  H   UNL     1      38.044 -10.299   3.722  1.00  0.00     0.159 HD
HETATM   14  H   UNL     1      37.505  -8.972   4.743  1.00  0.00     0.159 HD
HETATM   15  O   UNL     1      38.607  -9.917   6.815  1.00  0.00    -0.266 OA
ENDBRANCH   8  11
ENDBRANCH   2   5
BRANCH   1  16
HETATM   16  C   UNL     1      43.071 -16.866   4.251  1.00  0.00     0.044 A 
HETATM   17  C   UNL     1      43.358 -17.765   5.300  1.00  0.00    -0.045 A 
HETATM   18  C   UNL     1      43.729 -19.080   4.983  1.00  0.00     0.014 A 
HETATM   19  C   UNL     1      43.242 -17.363   6.747  1.00  0.00     0.049 C 
HETATM   20  C   UNL     1      43.823 -19.502   3.652  1.00  0.00    -0.061 A 
HETATM   21  C   UNL     1      44.248 -20.907   3.334  1.00  0.00     0.048 C 
HETATM   22  C   UNL     1      43.558 -18.591   2.623  1.00  0.00     0.014 A 
HETATM   23  C   UNL     1      43.156 -17.275   2.904  1.00  0.00    -0.045 A 
HETATM   24  C   UNL     1      42.841 -16.354   1.757  1.00  0.00     0.049 C 
ENDBRANCH   1  16
TORSDOF 3
ENDMDL
MODEL 6
REMARK VINA RESULT:      -7.3      4.678      7.559
REMARK  3 active torsions:
REMARK  status: ('A' for Active; 'I' for Inactive)
REMARK    1  A    between atoms: C_6  and  C_7 
REMARK       I    between atoms: C_7  and  N_8 
REMARK    2  A    between atoms: N_8  and  C_9 
REMARK    3  A    between atoms: C_12  and  C_13 
REMARK       I    between atoms: C_13  and  N_14 
ROOT
HETATM    1  C   UNL     1      42.327 -14.626   2.437  1.00  0.00     0.257 C 
HETATM    2  N   UNL     1      40.958 -14.536   2.276  1.00  0.00    -0.322 N 
HETATM    3  O   UNL     1      43.187 -14.314   1.627  1.00  0.00    -0.267 OA
HETATM    4  H   UNL     1      40.386 -14.850   3.051  1.00  0.00     0.169 HD
ENDROOT
BRANCH   2   5
HETATM    5  C   UNL     1      40.282 -14.056   1.137  1.00  0.00     0.052 A 
HETATM    6  C   UNL     1      39.788 -12.759   0.989  1.00  0.00     0.147 A 
HETATM    7  N   UNL     1      39.147 -12.305  -0.120  1.00  0.00    -0.253 NA
HETATM    8  C   UNL     1      38.984 -13.199  -1.133  1.00  0.00     0.124 A 
HETATM    9  C   UNL     1      39.432 -14.511  -1.081  1.00  0.00     0.039 A 
HETATM   10  C   UNL     1      40.093 -14.938   0.070  1.00  0.00     0.033 A 
BRANCH   8  11
HETATM   11  C   UNL     1      38.281 -12.697  -2.355  1.00  0.00     0.268 C 
HETATM   12  N   UNL     1      38.418 -13.481  -3.468  1.00  0.00    -0.365 N 
HETATM   13  H   UNL     1      38.970 -14.331  -3.411  1.00  0.00     0.159 HD
HETATM   14  H   UNL     1      37.971 -13.214  -4.332  1.00  0.00     0.159 HD
HETATM   15  O   UNL     1      37.624 -11.663  -2.364  1.00  0.00    -0.266 OA
ENDBRANCH   8  11
ENDBRANCH   2   5
BRANCH   1  16
HETATM   16  C   UNL     1      42.746 -15.193   3.747  1.00  0.00     0.044 A 
HETATM   17  C   UNL     1      42.960 -16.583   3.848  1.00  0.00    -0.045 A 
HETATM   18  C   UNL     1      43.375 -17.118   5.077  1.00  0.00     0.014 A 
HETATM   19  C   UNL     1      42.789 -17.502   2.667  1.00  0.00     0.049 C 
HETATM   20  C   UNL     1      43.570 -16.295   6.192  1.00  0.00    -0.061 A 
HETATM   21  C   UNL     1      43.989 -16.892   7.505  1.00  0.00     0.048 C 
HETATM   22  C   UNL     1      43.331 -14.921   6.081  1.00  0.00     0.014 A 
HETATM   23  C   UNL     1      42.943 -14.347   4.860  1.00  0.00    -0.045 A 
HETATM   24  C   UNL     1      42.743 -12.858   4.790  1.00  0.00     0.049 C 
ENDBRANCH   1  16
TORSDOF 3
ENDMDL
MODEL 7
REMARK VINA RESULT:      -7.2      4.683      7.583
REMARK  3 active torsions:
REMARK  status: ('A' for Active; 'I' for Inactive)
REMARK    1  A    between atoms: C_6  and  C_7 
REMARK       I    between atoms: C_7  and  N_8 
REMARK    2  A    between atoms: N_8  and  C_9 
REMARK    3  A    between atoms: C_12  and  C_13 
REMARK       I    between atoms: C_13  and  N_14 
ROOT
HETATM    1  C   UNL     1      42.337 -14.588   2.424  1.00  0.00     0.257 C 
HETATM    2  N   UNL     1      40.967 -14.560   2.248  1.00  0.00    -0.322 N 
HETATM    3  O   UNL     1      43.190 -14.194   1.642  1.00  0.00    -0.267 OA
HETATM    4  H   UNL     1      40.402 -14.938   2.999  1.00  0.00     0.169 HD
ENDROOT
BRANCH   2   5
HETATM    5  C   UNL     1      40.281 -14.062   1.122  1.00  0.00     0.052 A 
HETATM    6  C   UNL     1      39.759 -12.772   1.011  1.00  0.00     0.147 A 
HETATM    7  N   UNL     1      39.109 -12.300  -0.085  1.00  0.00    -0.253 NA
HETATM    8  C   UNL     1      38.966 -13.168  -1.123  1.00  0.00     0.124 A 
HETATM    9  C   UNL     1      39.442 -14.471  -1.109  1.00  0.00     0.039 A 
HETATM   10  C   UNL     1      40.112 -14.917   0.030  1.00  0.00     0.033 A 
BRANCH   8  11
HETATM   11  C   UNL     1      38.252 -12.646  -2.331  1.00  0.00     0.268 C 
HETATM   12  N   UNL     1      38.296 -13.461  -3.430  1.00  0.00    -0.365 N 
HETATM   13  H   UNL     1      38.793 -14.344  -3.372  1.00  0.00     0.159 HD
HETATM   14  H   UNL     1      37.836 -13.183  -4.283  1.00  0.00     0.159 HD
HETATM   15  O   UNL     1      37.665 -11.571  -2.341  1.00  0.00    -0.266 OA
ENDBRANCH   8  11
ENDBRANCH   2   5
BRANCH   1  16
HETATM   16  C   UNL     1      42.768 -15.193   3.713  1.00  0.00     0.044 A 
HETATM   17  C   UNL     1      42.905 -14.359   4.841  1.00  0.00    -0.045 A 
HETATM   18  C   UNL     1      43.290 -14.930   6.064  1.00  0.00     0.014 A 
HETATM   19  C   UNL     1      42.616 -12.883   4.780  1.00  0.00     0.049 C 
HETATM   20  C   UNL     1      43.543 -16.303   6.170  1.00  0.00    -0.061 A 
HETATM   21  C   UNL     1      43.980 -16.889   7.481  1.00  0.00     0.048 C 
HETATM   22  C   UNL     1      43.425 -17.113   5.035  1.00  0.00     0.014 A 
HETATM   23  C   UNL     1      43.013 -16.580   3.803  1.00  0.00    -0.045 A 
HETATM   24  C   UNL     1      42.861 -17.507   2.628  1.00  0.00     0.049 C 
ENDBRANCH   1  16
TORSDOF 3
ENDMDL
MODEL 8
REMARK VINA RESULT:      -7.2      4.182      5.225
REMARK  3 active torsions:
REMARK  status: ('A' for Active; 'I' for Inactive)
REMARK    1  A    between atoms: C_6  and  C_7 
REMARK       I    between atoms: C_7  and  N_8 
REMARK    2  A    between atoms: N_8  and  C_9 
REMARK    3  A    between atoms: C_12  and  C_13 
REMARK       I    between atoms: C_13  and  N_14 
ROOT
HETATM    1  C   UNL     1      42.443 -14.945   4.056  1.00  0.00     0.257 C 
HETATM    2  N   UNL     1      41.092 -14.874   3.776  1.00  0.00    -0.322 N 
HETATM    3  O   UNL     1      43.242 -14.021   4.074  1.00  0.00    -0.267 OA
HETATM    4  H   UNL     1      40.575 -15.745   3.796  1.00  0.00     0.169 HD
ENDROOT
BRANCH   2   5
HETATM    5  C   UNL     1      40.366 -13.708   3.462  1.00  0.00     0.052 A 
HETATM    6  C   UNL     1      39.894 -13.378   2.190  1.00  0.00     0.147 A 
HETATM    7  N   UNL     1      39.185 -12.255   1.903  1.00  0.00    -0.253 NA
HETATM    8  C   UNL     1      38.942 -11.412   2.942  1.00  0.00     0.124 A 
HETATM    9  C   UNL     1      39.373 -11.644   4.241  1.00  0.00     0.039 A 
HETATM   10  C   UNL     1      40.090 -12.812   4.499  1.00  0.00     0.033 A 
BRANCH   8  11
HETATM   11  C   UNL     1      38.158 -10.177   2.625  1.00  0.00     0.268 C 
HETATM   12  N   UNL     1      37.924  -9.348   3.689  1.00  0.00    -0.365 N 
HETATM   13  H   UNL     1      38.279  -9.603   4.605  1.00  0.00     0.159 HD
HETATM   14  H   UNL     1      37.406  -8.492   3.558  1.00  0.00     0.159 HD
HETATM   15  O   UNL     1      37.757  -9.918   1.498  1.00  0.00    -0.266 OA
ENDBRANCH   8  11
ENDBRANCH   2   5
BRANCH   1  16
HETATM   16  C   UNL     1      42.930 -16.323   4.335  1.00  0.00     0.044 A 
HETATM   17  C   UNL     1      43.355 -17.123   3.254  1.00  0.00    -0.045 A 
HETATM   18  C   UNL     1      43.835 -18.416   3.516  1.00  0.00     0.014 A 
HETATM   19  C   UNL     1      43.341 -16.619   1.836  1.00  0.00     0.049 C 
HETATM   20  C   UNL     1      43.889 -18.914   4.823  1.00  0.00    -0.061 A 
HETATM   21  C   UNL     1      44.382 -20.309   5.078  1.00  0.00     0.048 C 
HETATM   22  C   UNL     1      43.443 -18.115   5.881  1.00  0.00     0.014 A 
HETATM   23  C   UNL     1      42.983 -16.806   5.659  1.00  0.00    -0.045 A 
HETATM   24  C   UNL     1      42.557 -15.978   6.840  1.00  0.00     0.049 C 
ENDBRANCH   1  16
TORSDOF 3
ENDMDL
MODEL 9
REMARK VINA RESULT:      -7.1      2.109      3.052
REMARK  3 active torsions:
REMARK  status: ('A' for Active; 'I' for Inactive)
REMARK    1  A    between atoms: C_6  and  C_7 
REMARK       I    between atoms: C_7  and  N_8 
REMARK    2  A    between atoms: N_8  and  C_9 
REMARK    3  A    between atoms: C_12  and  C_13 
REMARK       I    between atoms: C_13  and  N_14 
ROOT
HETATM    1  C   UNL     1      42.140 -15.413   4.602  1.00  0.00     0.257 C 
HETATM    2  N   UNL     1      42.855 -14.282   4.258  1.00  0.00    -0.322 N 
HETATM    3  O   UNL     1      41.195 -15.481   5.375  1.00  0.00    -0.267 OA
HETATM    4  H   UNL     1      43.619 -14.406   3.604  1.00  0.00     0.169 HD
ENDROOT
BRANCH   2   5
HETATM    5  C   UNL     1      42.627 -12.974   4.731  1.00  0.00     0.052 A 
HETATM    6  C   UNL     1      42.338 -12.643   6.056  1.00  0.00     0.147 A 
HETATM    7  N   UNL     1      42.131 -11.376   6.501  1.00  0.00    -0.253 NA
HETATM    8  C   UNL     1      42.209 -10.387   5.570  1.00  0.00     0.124 A 
HETATM    9  C   UNL     1      42.484 -10.612   4.229  1.00  0.00     0.039 A 
HETATM   10  C   UNL     1      42.699 -11.925   3.810  1.00  0.00     0.033 A 
BRANCH   8  11
HETATM   11  C   UNL     1      41.984  -8.992   6.063  1.00  0.00     0.268 C 
HETATM   12  N   UNL     1      41.145  -8.232   5.294  1.00  0.00    -0.365 N 
HETATM   13  H   UNL     1      40.735  -8.637   4.458  1.00  0.00     0.159 HD
HETATM   14  H   UNL     1      40.939  -7.281   5.560  1.00  0.00     0.159 HD
HETATM   15  O   UNL     1      42.505  -8.557   7.082  1.00  0.00    -0.266 OA
ENDBRANCH   8  11
ENDBRANCH   2   5
BRANCH   1  16
HETATM   16  C   UNL     1      42.628 -16.657   3.950  1.00  0.00     0.044 A 
HETATM   17  C   UNL     1      42.040 -17.062   2.734  1.00  0.00    -0.045 A 
HETATM   18  C   UNL     1      42.513 -18.224   2.107  1.00  0.00     0.014 A 
HETATM   19  C   UNL     1      40.945 -16.265   2.076  1.00  0.00     0.049 C 
HETATM   20  C   UNL     1      43.546 -18.980   2.672  1.00  0.00    -0.061 A 
HETATM   21  C   UNL     1      44.019 -20.235   1.997  1.00  0.00     0.048 C 
HETATM   22  C   UNL     1      44.104 -18.577   3.890  1.00  0.00     0.014 A 
HETATM   23  C   UNL     1      43.675 -17.403   4.532  1.00  0.00    -0.045 A 
HETATM   24  C   UNL     1      44.342 -16.996   5.818  1.00  0.00     0.049 C 
ENDBRANCH   1  16
TORSDOF 3
ENDMDL
MODEL 10
REMARK VINA RESULT:      -6.8      4.396      7.964
REMARK  3 active torsions:
REMARK  status: ('A' for Active; 'I' for Inactive)
REMARK    1  A    between atoms: C_6  and  C_7 
REMARK       I    between atoms: C_7  and  N_8 
REMARK    2  A    between atoms: N_8  and  C_9 
REMARK    3  A    between atoms: C_12  and  C_13 
REMARK       I    between atoms: C_13  and  N_14 
ROOT
HETATM    1  C   UNL     1      41.631 -14.773   2.705  1.00  0.00     0.257 C 
HETATM    2  N   UNL     1      42.782 -15.469   2.387  1.00  0.00    -0.322 N 
HETATM    3  O   UNL     1      40.687 -15.174   3.370  1.00  0.00    -0.267 OA
HETATM    4  H   UNL     1      43.464 -14.986   1.815  1.00  0.00     0.169 HD
ENDROOT
BRANCH   2   5
HETATM    5  C   UNL     1      43.094 -16.786   2.778  1.00  0.00     0.052 A 
HETATM    6  C   UNL     1      42.867 -17.925   2.004  1.00  0.00     0.147 A 
HETATM    7  N   UNL     1      43.184 -19.189   2.389  1.00  0.00    -0.253 NA
HETATM    8  C   UNL     1      43.752 -19.323   3.618  1.00  0.00     0.124 A 
HETATM    9  C   UNL     1      44.012 -18.256   4.466  1.00  0.00     0.039 A 
HETATM   10  C   UNL     1      43.681 -16.972   4.033  1.00  0.00     0.033 A 
BRANCH   8  11
HETATM   11  C   UNL     1      44.103 -20.715   4.040  1.00  0.00     0.268 C 
HETATM   12  N   UNL     1      44.422 -20.859   5.363  1.00  0.00    -0.365 N 
HETATM   13  H   UNL     1      44.406 -20.045   5.969  1.00  0.00     0.159 HD
HETATM   14  H   UNL     1      44.666 -21.767   5.727  1.00  0.00     0.159 HD
HETATM   15  O   UNL     1      44.103 -21.662   3.263  1.00  0.00    -0.266 OA
ENDBRANCH   8  11
ENDBRANCH   2   5
BRANCH   1  16
HETATM   16  C   UNL     1      41.577 -13.402   2.131  1.00  0.00     0.044 A 
HETATM   17  C   UNL     1      42.162 -12.341   2.854  1.00  0.00    -0.045 A 
HETATM   18  C   UNL     1      42.131 -11.050   2.306  1.00  0.00     0.014 A 
HETATM   19  C   UNL     1      42.846 -12.561   4.177  1.00  0.00     0.049 C 
HETATM   20  C   UNL     1      41.528 -10.806   1.067  1.00  0.00    -0.061 A 
HETATM   21  C   UNL     1      41.483  -9.412   0.512  1.00  0.00     0.048 C 
HETATM   22  C   UNL     1      40.932 -11.866   0.374  1.00  0.00     0.014 A 
HETATM   23  C   UNL     1      40.969 -13.176   0.879  1.00  0.00    -0.045 A 
HETATM   24  C   UNL     1      40.351 -14.282   0.068  1.00  0.00     0.049 C 
ENDBRANCH   1  16
TORSDOF 3
ENDMDL
