MODEL 1
REMARK VINA RESULT:      -9.9      0.000      0.000
REMARK  13 active torsions:
REMARK  status: ('A' for Active; 'I' for Inactive)
REMARK    1  A    between atoms: O_2  and  C_3 
REMARK    2  A    between atoms: C_6  and  C_7 
REMARK    3  A    between atoms: C_7  and  C_8 
REMARK    4  A    between atoms: C_9  and  C_10 
REMARK    5  A    between atoms: N_17  and  C_18 
REMARK    6  A    between atoms: C_18  and  C_19 
REMARK    7  A    between atoms: C_19  and  O_20 
REMARK    8  A    between atoms: C_19  and  C_21 
REMARK    9  A    between atoms: C_21  and  N_22 
REMARK   10  A    between atoms: N_22  and  C_25 
REMARK   11  A    between atoms: C_25  and  C_26 
REMARK   12  A    between atoms: C_26  and  C_27 
REMARK   13  A    between atoms: C_32  and  O_33 
ROOT
HETATM    1  C   UNL     1      43.676 -17.962   6.750  1.00  0.00     0.162 C 
ENDROOT
BRANCH   1   2
HETATM    2  N   UNL     1      43.561 -17.723   5.320  1.00  0.00    -0.353 N 
HETATM    3  C   UNL     1      43.624 -18.681   4.330  1.00  0.00     0.045 A 
HETATM    4  C   UNL     1      43.333 -18.035   3.121  1.00  0.00     0.002 A 
HETATM    5  C   UNL     1      43.899 -20.057   4.387  1.00  0.00     0.030 A 
HETATM    6  C   UNL     1      43.182 -16.644   3.413  1.00  0.00    -0.008 A 
HETATM    7  C   UNL     1      43.254 -18.818   1.946  1.00  0.00     0.014 A 
HETATM    8  C   UNL     1      43.306 -16.490   4.777  1.00  0.00     0.103 A 
HETATM    9  C   UNL     1      43.510 -20.191   2.001  1.00  0.00     0.001 A 
HETATM   10  C   UNL     1      43.841 -20.798   3.204  1.00  0.00     0.002 A 
BRANCH   6  11
HETATM   11  C   UNL     1      42.947 -15.545   2.531  1.00  0.00     0.018 C 
HETATM   12  C   UNL     1      42.142 -14.503   2.802  1.00  0.00     0.056 C 
BRANCH  12  13
HETATM   13  C   UNL     1      41.982 -13.401   1.818  1.00  0.00     0.182 C 
HETATM   14  O   UNL     1      42.563 -12.330   1.977  1.00  0.00    -0.288 OA
BRANCH  13  15
HETATM   15  C   UNL     1      41.056 -13.592   0.658  1.00  0.00     0.014 A 
HETATM   16  C   UNL     1      40.431 -14.809   0.349  1.00  0.00     0.018 A 
HETATM   17  C   UNL     1      39.524 -14.896  -0.717  1.00  0.00     0.037 A 
HETATM   18  C   UNL     1      39.235 -13.774  -1.492  1.00  0.00     0.068 A 
HETATM   19  C   UNL     1      39.887 -12.573  -1.215  1.00  0.00     0.037 A 
HETATM   20  C   UNL     1      40.787 -12.479  -0.149  1.00  0.00     0.018 A 
BRANCH  18  21
HETATM   21  O   UNL     1      38.359 -13.730  -2.540  1.00  0.00    -0.356 OA
HETATM   22  C   UNL     1      38.302 -14.881  -3.375  1.00  0.00     0.210 C 
ENDBRANCH  18  21
ENDBRANCH  13  15
ENDBRANCH  12  13
ENDBRANCH   6  11
ENDBRANCH   1   2
BRANCH   1  23
HETATM   23  C   UNL     1      43.782 -16.683   7.602  1.00  0.00     0.162 C 
BRANCH  23  24
HETATM   24  O   UNL     1      44.150 -16.949   8.971  1.00  0.00    -0.392 OA
HETATM   25  H   UNL     1      44.812 -16.282   9.245  1.00  0.00     0.210 HD
ENDBRANCH  23  24
BRANCH  23  26
HETATM   26  C   UNL     1      42.500 -15.827   7.638  1.00  0.00     0.265 C 
BRANCH  26  27
HETATM   27  N   UNL     1      42.925 -14.380   7.648  1.00  0.00    -0.072 N 
HETATM   28  H   UNL     1      42.052 -13.833   7.539  1.00  0.00     0.277 HD
HETATM   29  H   UNL     1      43.258 -14.133   8.588  1.00  0.00     0.277 HD
BRANCH  27  30
HETATM   30  C   UNL     1      43.954 -13.974   6.646  1.00  0.00     0.237 C 
BRANCH  30  31
HETATM   31  C   UNL     1      43.773 -12.531   6.174  1.00  0.00     0.068 C 
BRANCH  31  32
HETATM   32  C   UNL     1      44.754 -11.627   6.844  1.00  0.00    -0.029 A 
HETATM   33  C   UNL     1      44.558 -10.934   8.082  1.00  0.00     0.001 A 
HETATM   34  C   UNL     1      45.700 -10.173   8.321  1.00  0.00     0.043 A 
HETATM   35  C   UNL     1      43.507 -10.875   9.020  1.00  0.00     0.051 A 
HETATM   36  C   UNL     1      45.836  -9.351   9.445  1.00  0.00     0.033 A 
HETATM   37  N   UNL     1      46.574 -10.415   7.287  1.00  0.00    -0.365 N 
HETATM   38  C   UNL     1      44.772  -9.304  10.355  1.00  0.00     0.039 A 
HETATM   39  C   UNL     1      43.618 -10.058  10.154  1.00  0.00     0.069 A 
HETATM   40  H   UNL     1      47.497 -10.007   7.211  1.00  0.00     0.165 HD
HETATM   41  C   UNL     1      46.010 -11.282   6.387  1.00  0.00     0.096 A 
BRANCH  39  42
HETATM   42  O   UNL     1      42.521 -10.087  10.971  1.00  0.00    -0.356 OA
HETATM   43  C   UNL     1      42.765 -10.151  12.373  1.00  0.00     0.210 C 
ENDBRANCH  39  42
ENDBRANCH  31  32
ENDBRANCH  30  31
ENDBRANCH  27  30
ENDBRANCH  26  27
ENDBRANCH  23  26
ENDBRANCH   1  23
TORSDOF 13
ENDMDL
MODEL 2
REMARK VINA RESULT:      -9.6      1.567      2.413
REMARK  13 active torsions:
REMARK  status: ('A' for Active; 'I' for Inactive)
REMARK    1  A    between atoms: O_2  and  C_3 
REMARK    2  A    between atoms: C_6  and  C_7 
REMARK    3  A    between atoms: C_7  and  C_8 
REMARK    4  A    between atoms: C_9  and  C_10 
REMARK    5  A    between atoms: N_17  and  C_18 
REMARK    6  A    between atoms: C_18  and  C_19 
REMARK    7  A    between atoms: C_19  and  O_20 
REMARK    8  A    between atoms: C_19  and  C_21 
REMARK    9  A    between atoms: C_21  and  N_22 
REMARK   10  A    between atoms: N_22  and  C_25 
REMARK   11  A    between atoms: C_25  and  C_26 
REMARK   12  A    between atoms: C_26  and  C_27 
REMARK   13  A    between atoms: C_32  and  O_33 
ROOT
HETATM    1  C   UNL     1      44.266 -16.447   5.938  1.00  0.00     0.162 C 
ENDROOT
BRANCH   1   2
HETATM    2  N   UNL     1      43.781 -16.746   4.600  1.00  0.00    -0.353 N 
HETATM    3  C   UNL     1      43.774 -17.988   3.999  1.00  0.00     0.045 A 
HETATM    4  C   UNL     1      43.102 -17.844   2.778  1.00  0.00     0.002 A 
HETATM    5  C   UNL     1      44.286 -19.226   4.422  1.00  0.00     0.030 A 
HETATM    6  C   UNL     1      42.788 -16.457   2.632  1.00  0.00    -0.008 A 
HETATM    7  C   UNL     1      42.886 -19.000   1.993  1.00  0.00     0.014 A 
HETATM    8  C   UNL     1      43.199 -15.815   3.780  1.00  0.00     0.103 A 
HETATM    9  C   UNL     1      43.379 -20.237   2.417  1.00  0.00     0.001 A 
HETATM   10  C   UNL     1      44.080 -20.344   3.610  1.00  0.00     0.002 A 
BRANCH   6  11
HETATM   11  C   UNL     1      42.169 -15.770   1.543  1.00  0.00     0.018 C 
HETATM   12  C   UNL     1      40.955 -15.195   1.591  1.00  0.00     0.056 C 
BRANCH  12  13
HETATM   13  C   UNL     1      40.410 -14.488   0.402  1.00  0.00     0.182 C 
HETATM   14  O   UNL     1      39.695 -15.078  -0.404  1.00  0.00    -0.288 OA
BRANCH  13  15
HETATM   15  C   UNL     1      40.794 -13.061   0.167  1.00  0.00     0.014 A 
HETATM   16  C   UNL     1      40.752 -12.437  -1.088  1.00  0.00     0.018 A 
HETATM   17  C   UNL     1      41.064 -11.076  -1.221  1.00  0.00     0.037 A 
HETATM   18  C   UNL     1      41.429 -10.324  -0.105  1.00  0.00     0.068 A 
HETATM   19  C   UNL     1      41.515 -10.951   1.138  1.00  0.00     0.037 A 
HETATM   20  C   UNL     1      41.197 -12.306   1.275  1.00  0.00     0.018 A 
BRANCH  18  21
HETATM   21  O   UNL     1      41.737  -8.992  -0.105  1.00  0.00    -0.356 OA
HETATM   22  C   UNL     1      42.510  -8.514  -1.199  1.00  0.00     0.210 C 
ENDBRANCH  18  21
ENDBRANCH  13  15
ENDBRANCH  12  13
ENDBRANCH   6  11
ENDBRANCH   1   2
BRANCH   1  23
HETATM   23  C   UNL     1      43.166 -16.390   7.015  1.00  0.00     0.162 C 
BRANCH  23  24
HETATM   24  O   UNL     1      41.858 -16.704   6.497  1.00  0.00    -0.392 OA
HETATM   25  H   UNL     1      41.954 -16.960   5.557  1.00  0.00     0.210 HD
ENDBRANCH  23  24
BRANCH  23  26
HETATM   26  C   UNL     1      43.050 -15.037   7.744  1.00  0.00     0.265 C 
BRANCH  26  27
HETATM   27  N   UNL     1      43.689 -13.993   6.860  1.00  0.00    -0.072 N 
HETATM   28  H   UNL     1      44.388 -13.515   7.457  1.00  0.00     0.277 HD
HETATM   29  H   UNL     1      44.253 -14.461   6.141  1.00  0.00     0.277 HD
BRANCH  27  30
HETATM   30  C   UNL     1      42.772 -13.018   6.201  1.00  0.00     0.237 C 
BRANCH  30  31
HETATM   31  C   UNL     1      43.528 -11.891   5.496  1.00  0.00     0.068 C 
BRANCH  31  32
HETATM   32  C   UNL     1      44.557 -11.296   6.399  1.00  0.00    -0.029 A 
HETATM   33  C   UNL     1      44.304 -10.567   7.606  1.00  0.00     0.001 A 
HETATM   34  C   UNL     1      45.535 -10.159   8.114  1.00  0.00     0.043 A 
HETATM   35  C   UNL     1      43.137 -10.208   8.311  1.00  0.00     0.051 A 
HETATM   36  C   UNL     1      45.654  -9.401   9.284  1.00  0.00     0.033 A 
HETATM   37  N   UNL     1      46.505 -10.645   7.269  1.00  0.00    -0.365 N 
HETATM   38  C   UNL     1      44.477  -9.048   9.958  1.00  0.00     0.039 A 
HETATM   39  C   UNL     1      43.229  -9.447   9.485  1.00  0.00     0.069 A 
HETATM   40  H   UNL     1      47.500 -10.515   7.405  1.00  0.00     0.165 HD
HETATM   41  C   UNL     1      45.926 -11.323   6.227  1.00  0.00     0.096 A 
BRANCH  39  42
HETATM   42  O   UNL     1      42.020  -9.160  10.058  1.00  0.00    -0.356 OA
HETATM   43  C   UNL     1      41.834  -9.574  11.408  1.00  0.00     0.210 C 
ENDBRANCH  39  42
ENDBRANCH  31  32
ENDBRANCH  30  31
ENDBRANCH  27  30
ENDBRANCH  26  27
ENDBRANCH  23  26
ENDBRANCH   1  23
TORSDOF 13
ENDMDL
MODEL 3
REMARK VINA RESULT:      -9.3      2.932      8.773
REMARK  13 active torsions:
REMARK  status: ('A' for Active; 'I' for Inactive)
REMARK    1  A    between atoms: O_2  and  C_3 
REMARK    2  A    between atoms: C_6  and  C_7 
REMARK    3  A    between atoms: C_7  and  C_8 
REMARK    4  A    between atoms: C_9  and  C_10 
REMARK    5  A    between atoms: N_17  and  C_18 
REMARK    6  A    between atoms: C_18  and  C_19 
REMARK    7  A    between atoms: C_19  and  O_20 
REMARK    8  A    between atoms: C_19  and  C_21 
REMARK    9  A    between atoms: C_21  and  N_22 
REMARK   10  A    between atoms: N_22  and  C_25 
REMARK   11  A    between atoms: C_25  and  C_26 
REMARK   12  A    between atoms: C_26  and  C_27 
REMARK   13  A    between atoms: C_32  and  O_33 
ROOT
HETATM    1  C   UNL     1      41.000  -9.799   7.370  1.00  0.00     0.162 C 
ENDROOT
BRANCH   1   2
HETATM    2  N   UNL     1      42.137 -10.466   6.756  1.00  0.00    -0.353 N 
HETATM    3  C   UNL     1      43.451 -10.372   7.165  1.00  0.00     0.045 A 
HETATM    4  C   UNL     1      44.186 -11.274   6.384  1.00  0.00     0.002 A 
HETATM    5  C   UNL     1      44.059  -9.586   8.158  1.00  0.00     0.030 A 
HETATM    6  C   UNL     1      43.279 -11.843   5.435  1.00  0.00    -0.008 A 
HETATM    7  C   UNL     1      45.563 -11.431   6.660  1.00  0.00     0.014 A 
HETATM    8  C   UNL     1      42.025 -11.342   5.707  1.00  0.00     0.103 A 
HETATM    9  C   UNL     1      46.169 -10.663   7.658  1.00  0.00     0.001 A 
HETATM   10  C   UNL     1      45.428  -9.745   8.387  1.00  0.00     0.002 A 
BRANCH   6  11
HETATM   11  C   UNL     1      43.529 -12.763   4.371  1.00  0.00     0.018 C 
HETATM   12  C   UNL     1      42.706 -13.763   4.014  1.00  0.00     0.056 C 
BRANCH  12  13
HETATM   13  C   UNL     1      43.056 -14.654   2.876  1.00  0.00     0.182 C 
HETATM   14  O   UNL     1      43.135 -14.209   1.734  1.00  0.00    -0.288 OA
BRANCH  13  15
HETATM   15  C   UNL     1      43.253 -16.115   3.132  1.00  0.00     0.014 A 
HETATM   16  C   UNL     1      43.095 -17.108   2.154  1.00  0.00     0.018 A 
HETATM   17  C   UNL     1      43.360 -18.453   2.451  1.00  0.00     0.037 A 
HETATM   18  C   UNL     1      43.780 -18.824   3.727  1.00  0.00     0.068 A 
HETATM   19  C   UNL     1      43.897 -17.845   4.715  1.00  0.00     0.037 A 
HETATM   20  C   UNL     1      43.639 -16.503   4.421  1.00  0.00     0.018 A 
BRANCH  18  21
HETATM   21  O   UNL     1      44.086 -20.093   4.131  1.00  0.00    -0.356 OA
HETATM   22  C   UNL     1      43.993 -20.361   5.526  1.00  0.00     0.210 C 
ENDBRANCH  18  21
ENDBRANCH  13  15
ENDBRANCH  12  13
ENDBRANCH   6  11
ENDBRANCH   1   2
BRANCH   1  23
HETATM   23  C   UNL     1      40.744  -8.371   6.853  1.00  0.00     0.162 C 
BRANCH  23  24
HETATM   24  O   UNL     1      40.581  -7.410   7.916  1.00  0.00    -0.392 OA
HETATM   25  H   UNL     1      41.134  -6.630   7.710  1.00  0.00     0.210 HD
ENDBRANCH  23  24
BRANCH  23  26
HETATM   26  C   UNL     1      39.520  -8.233   5.927  1.00  0.00     0.265 C 
BRANCH  26  27
HETATM   27  N   UNL     1      39.004  -9.624   5.652  1.00  0.00    -0.072 N 
HETATM   28  H   UNL     1      39.759 -10.265   5.958  1.00  0.00     0.277 HD
HETATM   29  H   UNL     1      38.228  -9.827   6.293  1.00  0.00     0.277 HD
BRANCH  27  30
HETATM   30  C   UNL     1      38.570  -9.916   4.255  1.00  0.00     0.237 C 
BRANCH  30  31
HETATM   31  C   UNL     1      39.742 -10.284   3.344  1.00  0.00     0.068 C 
BRANCH  31  32
HETATM   32  C   UNL     1      39.641 -11.705   2.898  1.00  0.00    -0.029 A 
HETATM   33  C   UNL     1      40.002 -12.215   1.609  1.00  0.00     0.001 A 
HETATM   34  C   UNL     1      39.713 -13.578   1.603  1.00  0.00     0.043 A 
HETATM   35  C   UNL     1      40.540 -11.641   0.440  1.00  0.00     0.051 A 
HETATM   36  C   UNL     1      39.926 -14.389   0.483  1.00  0.00     0.033 A 
HETATM   37  N   UNL     1      39.224 -13.896   2.849  1.00  0.00    -0.365 N 
HETATM   38  C   UNL     1      40.452 -13.789  -0.669  1.00  0.00     0.039 A 
HETATM   39  C   UNL     1      40.762 -12.431  -0.696  1.00  0.00     0.069 A 
HETATM   40  H   UNL     1      38.948 -14.827   3.135  1.00  0.00     0.165 HD
HETATM   41  C   UNL     1      39.168 -12.773   3.633  1.00  0.00     0.096 A 
BRANCH  39  42
HETATM   42  O   UNL     1      41.276 -11.742  -1.762  1.00  0.00    -0.356 OA
HETATM   43  C   UNL     1      41.142 -12.350  -3.043  1.00  0.00     0.210 C 
ENDBRANCH  39  42
ENDBRANCH  31  32
ENDBRANCH  30  31
ENDBRANCH  27  30
ENDBRANCH  26  27
ENDBRANCH  23  26
ENDBRANCH   1  23
TORSDOF 13
ENDMDL
MODEL 4
REMARK VINA RESULT:      -9.2      4.577      9.080
REMARK  13 active torsions:
REMARK  status: ('A' for Active; 'I' for Inactive)
REMARK    1  A    between atoms: O_2  and  C_3 
REMARK    2  A    between atoms: C_6  and  C_7 
REMARK    3  A    between atoms: C_7  and  C_8 
REMARK    4  A    between atoms: C_9  and  C_10 
REMARK    5  A    between atoms: N_17  and  C_18 
REMARK    6  A    between atoms: C_18  and  C_19 
REMARK    7  A    between atoms: C_19  and  O_20 
REMARK    8  A    between atoms: C_19  and  C_21 
REMARK    9  A    between atoms: C_21  and  N_22 
REMARK   10  A    between atoms: N_22  and  C_25 
REMARK   11  A    between atoms: C_25  and  C_26 
REMARK   12  A    between atoms: C_26  and  C_27 
REMARK   13  A    between atoms: C_32  and  O_33 
ROOT
HETATM    1  C   UNL     1      39.937 -13.391  -3.016  1.00  0.00     0.162 C 
ENDROOT
BRANCH   1   2
HETATM    2  N   UNL     1      40.495 -13.067  -1.712  1.00  0.00    -0.353 N 
HETATM    3  C   UNL     1      40.904 -11.818  -1.291  1.00  0.00     0.045 A 
HETATM    4  C   UNL     1      41.243 -11.936   0.063  1.00  0.00     0.002 A 
HETATM    5  C   UNL     1      40.995 -10.593  -1.974  1.00  0.00     0.030 A 
HETATM    6  C   UNL     1      41.107 -13.316   0.411  1.00  0.00    -0.008 A 
HETATM    7  C   UNL     1      41.623 -10.768   0.762  1.00  0.00     0.014 A 
HETATM    8  C   UNL     1      40.625 -13.979  -0.696  1.00  0.00     0.103 A 
HETATM    9  C   UNL     1      41.700  -9.544   0.091  1.00  0.00     0.001 A 
HETATM   10  C   UNL     1      41.401  -9.463  -1.261  1.00  0.00     0.002 A 
BRANCH   6  11
HETATM   11  C   UNL     1      41.394 -13.980   1.644  1.00  0.00     0.018 C 
HETATM   12  C   UNL     1      42.625 -14.313   2.067  1.00  0.00     0.056 C 
BRANCH  12  13
HETATM   13  C   UNL     1      42.812 -14.988   3.378  1.00  0.00     0.182 C 
HETATM   14  O   UNL     1      42.774 -14.346   4.424  1.00  0.00    -0.288 OA
BRANCH  13  15
HETATM   15  C   UNL     1      43.107 -16.455   3.403  1.00  0.00     0.014 A 
HETATM   16  C   UNL     1      42.970 -17.299   2.293  1.00  0.00     0.018 A 
HETATM   17  C   UNL     1      43.327 -18.653   2.374  1.00  0.00     0.037 A 
HETATM   18  C   UNL     1      43.818 -19.182   3.567  1.00  0.00     0.068 A 
HETATM   19  C   UNL     1      43.914 -18.356   4.687  1.00  0.00     0.037 A 
HETATM   20  C   UNL     1      43.566 -17.004   4.607  1.00  0.00     0.018 A 
BRANCH  18  21
HETATM   21  O   UNL     1      44.215 -20.475   3.764  1.00  0.00    -0.356 OA
HETATM   22  C   UNL     1      44.324 -20.911   5.115  1.00  0.00     0.210 C 
ENDBRANCH  18  21
ENDBRANCH  13  15
ENDBRANCH  12  13
ENDBRANCH   6  11
ENDBRANCH   1   2
BRANCH   1  23
HETATM   23  C   UNL     1      38.640 -14.219  -2.964  1.00  0.00     0.162 C 
BRANCH  23  24
HETATM   24  O   UNL     1      38.258 -14.743  -4.252  1.00  0.00    -0.392 OA
HETATM   25  H   UNL     1      37.287 -14.870  -4.255  1.00  0.00     0.210 HD
ENDBRANCH  23  24
BRANCH  23  26
HETATM   26  C   UNL     1      37.418 -13.465  -2.403  1.00  0.00     0.265 C 
BRANCH  26  27
HETATM   27  N   UNL     1      37.446 -12.071  -2.979  1.00  0.00    -0.072 N 
HETATM   28  H   UNL     1      38.360 -11.988  -3.461  1.00  0.00     0.277 HD
HETATM   29  H   UNL     1      36.757 -12.007  -3.737  1.00  0.00     0.277 HD
BRANCH  27  30
HETATM   30  C   UNL     1      37.226 -10.945  -2.025  1.00  0.00     0.237 C 
BRANCH  30  31
HETATM   31  C   UNL     1      37.431 -11.365  -0.569  1.00  0.00     0.068 C 
BRANCH  31  32
HETATM   32  C   UNL     1      37.872 -10.205   0.261  1.00  0.00    -0.029 A 
HETATM   33  C   UNL     1      38.319 -10.258   1.620  1.00  0.00     0.001 A 
HETATM   34  C   UNL     1      38.594  -8.952   2.021  1.00  0.00     0.043 A 
HETATM   35  C   UNL     1      38.507 -11.298   2.553  1.00  0.00     0.051 A 
HETATM   36  C   UNL     1      39.037  -8.638   3.311  1.00  0.00     0.033 A 
HETATM   37  N   UNL     1      38.355  -8.136   0.941  1.00  0.00    -0.365 N 
HETATM   38  C   UNL     1      39.205  -9.690   4.221  1.00  0.00     0.039 A 
HETATM   39  C   UNL     1      38.949 -11.009   3.852  1.00  0.00     0.069 A 
HETATM   40  H   UNL     1      38.491  -7.133   0.941  1.00  0.00     0.165 HD
HETATM   41  C   UNL     1      37.910  -8.879  -0.122  1.00  0.00     0.096 A 
BRANCH  39  42
HETATM   42  O   UNL     1      39.075 -12.110   4.655  1.00  0.00    -0.356 OA
HETATM   43  C   UNL     1      40.294 -12.239   5.381  1.00  0.00     0.210 C 
ENDBRANCH  39  42
ENDBRANCH  31  32
ENDBRANCH  30  31
ENDBRANCH  27  30
ENDBRANCH  26  27
ENDBRANCH  23  26
ENDBRANCH   1  23
TORSDOF 13
ENDMDL
MODEL 5
REMARK VINA RESULT:      -9.0      3.173      6.143
REMARK  13 active torsions:
REMARK  status: ('A' for Active; 'I' for Inactive)
REMARK    1  A    between atoms: O_2  and  C_3 
REMARK    2  A    between atoms: C_6  and  C_7 
REMARK    3  A    between atoms: C_7  and  C_8 
REMARK    4  A    between atoms: C_9  and  C_10 
REMARK    5  A    between atoms: N_17  and  C_18 
REMARK    6  A    between atoms: C_18  and  C_19 
REMARK    7  A    between atoms: C_19  and  O_20 
REMARK    8  A    between atoms: C_19  and  C_21 
REMARK    9  A    between atoms: C_21  and  N_22 
REMARK   10  A    between atoms: N_22  and  C_25 
REMARK   11  A    between atoms: C_25  and  C_26 
REMARK   12  A    between atoms: C_26  and  C_27 
REMARK   13  A    between atoms: C_32  and  O_33 
ROOT
HETATM    1  C   UNL     1      42.196 -14.921   6.073  1.00  0.00     0.162 C 
ENDROOT
BRANCH   1   2
HETATM    2  N   UNL     1      42.192 -15.477   4.728  1.00  0.00    -0.353 N 
HETATM    3  C   UNL     1      42.911 -16.573   4.301  1.00  0.00     0.045 A 
HETATM    4  C   UNL     1      42.507 -16.837   2.985  1.00  0.00     0.002 A 
HETATM    5  C   UNL     1      43.871 -17.365   4.954  1.00  0.00     0.030 A 
HETATM    6  C   UNL     1      41.588 -15.807   2.614  1.00  0.00    -0.008 A 
HETATM    7  C   UNL     1      43.043 -17.972   2.336  1.00  0.00     0.014 A 
HETATM    8  C   UNL     1      41.400 -15.001   3.715  1.00  0.00     0.103 A 
HETATM    9  C   UNL     1      43.986 -18.772   2.987  1.00  0.00     0.001 A 
HETATM   10  C   UNL     1      44.402 -18.463   4.274  1.00  0.00     0.002 A 
BRANCH   6  11
HETATM   11  C   UNL     1      40.937 -15.570   1.364  1.00  0.00     0.018 C 
HETATM   12  C   UNL     1      40.650 -14.355   0.868  1.00  0.00     0.056 C 
BRANCH  12  13
HETATM   13  C   UNL     1      39.984 -14.221  -0.455  1.00  0.00     0.182 C 
HETATM   14  O   UNL     1      39.352 -15.159  -0.935  1.00  0.00    -0.288 OA
BRANCH  13  15
HETATM   15  C   UNL     1      40.141 -12.946  -1.221  1.00  0.00     0.014 A 
HETATM   16  C   UNL     1      39.379 -12.614  -2.350  1.00  0.00     0.018 A 
HETATM   17  C   UNL     1      39.537 -11.370  -2.979  1.00  0.00     0.037 A 
HETATM   18  C   UNL     1      40.463 -10.448  -2.496  1.00  0.00     0.068 A 
HETATM   19  C   UNL     1      41.255 -10.792  -1.400  1.00  0.00     0.037 A 
HETATM   20  C   UNL     1      41.095 -12.027  -0.765  1.00  0.00     0.018 A 
BRANCH  18  21
HETATM   21  O   UNL     1      40.695  -9.203  -3.010  1.00  0.00    -0.356 OA
HETATM   22  C   UNL     1      40.758  -9.098  -4.428  1.00  0.00     0.210 C 
ENDBRANCH  18  21
ENDBRANCH  13  15
ENDBRANCH  12  13
ENDBRANCH   6  11
ENDBRANCH   1   2
BRANCH   1  23
HETATM   23  C   UNL     1      43.116 -13.698   6.252  1.00  0.00     0.162 C 
BRANCH  23  24
HETATM   24  O   UNL     1      43.501 -13.483   7.625  1.00  0.00    -0.392 OA
HETATM   25  H   UNL     1      43.975 -12.629   7.679  1.00  0.00     0.210 HD
ENDBRANCH  23  24
BRANCH  23  26
HETATM   26  C   UNL     1      42.527 -12.371   5.734  1.00  0.00     0.265 C 
BRANCH  26  27
HETATM   27  N   UNL     1      41.157 -12.217   6.348  1.00  0.00    -0.072 N 
HETATM   28  H   UNL     1      41.006 -13.075   6.908  1.00  0.00     0.277 HD
HETATM   29  H   UNL     1      41.184 -11.464   7.045  1.00  0.00     0.277 HD
BRANCH  27  30
HETATM   30  C   UNL     1      40.024 -11.969   5.408  1.00  0.00     0.237 C 
BRANCH  30  31
HETATM   31  C   UNL     1      40.466 -11.232   4.143  1.00  0.00     0.068 C 
BRANCH  31  32
HETATM   32  C   UNL     1      39.465 -11.410   3.049  1.00  0.00    -0.029 A 
HETATM   33  C   UNL     1      39.174 -10.471   2.008  1.00  0.00     0.001 A 
HETATM   34  C   UNL     1      38.154 -11.013   1.229  1.00  0.00     0.043 A 
HETATM   35  C   UNL     1      39.678  -9.201   1.660  1.00  0.00     0.051 A 
HETATM   36  C   UNL     1      37.610 -10.343   0.128  1.00  0.00     0.033 A 
HETATM   37  N   UNL     1      37.855 -12.249   1.753  1.00  0.00    -0.365 N 
HETATM   38  C   UNL     1      38.122  -9.077  -0.188  1.00  0.00     0.039 A 
HETATM   39  C   UNL     1      39.148  -8.508   0.563  1.00  0.00     0.069 A 
HETATM   40  H   UNL     1      37.160 -12.878   1.373  1.00  0.00     0.165 HD
HETATM   41  C   UNL     1      38.633 -12.493   2.856  1.00  0.00     0.096 A 
BRANCH  39  42
HETATM   42  O   UNL     1      39.721  -7.284   0.347  1.00  0.00    -0.356 OA
HETATM   43  C   UNL     1      40.658  -6.834   1.320  1.00  0.00     0.210 C 
ENDBRANCH  39  42
ENDBRANCH  31  32
ENDBRANCH  30  31
ENDBRANCH  27  30
ENDBRANCH  26  27
ENDBRANCH  23  26
ENDBRANCH   1  23
TORSDOF 13
ENDMDL
MODEL 6
REMARK VINA RESULT:      -8.9      3.458     11.715
REMARK  13 active torsions:
REMARK  status: ('A' for Active; 'I' for Inactive)
REMARK    1  A    between atoms: O_2  and  C_3 
REMARK    2  A    between atoms: C_6  and  C_7 
REMARK    3  A    between atoms: C_7  and  C_8 
REMARK    4  A    between atoms: C_9  and  C_10 
REMARK    5  A    between atoms: N_17  and  C_18 
REMARK    6  A    between atoms: C_18  and  C_19 
REMARK    7  A    between atoms: C_19  and  O_20 
REMARK    8  A    between atoms: C_19  and  C_21 
REMARK    9  A    between atoms: C_21  and  N_22 
REMARK   10  A    between atoms: N_22  and  C_25 
REMARK   11  A    between atoms: C_25  and  C_26 
REMARK   12  A    between atoms: C_26  and  C_27 
REMARK   13  A    between atoms: C_32  and  O_33 
ROOT
HETATM    1  C   UNL     1      42.227 -10.015   6.187  1.00  0.00     0.162 C 
ENDROOT
BRANCH   1   2
HETATM    2  N   UNL     1      42.467  -9.855   7.613  1.00  0.00    -0.353 N 
HETATM    3  C   UNL     1      43.701  -9.791   8.226  1.00  0.00     0.045 A 
HETATM    4  C   UNL     1      43.469  -9.499   9.577  1.00  0.00     0.002 A 
HETATM    5  C   UNL     1      45.000  -9.951   7.715  1.00  0.00     0.030 A 
HETATM    6  C   UNL     1      42.052  -9.479   9.765  1.00  0.00    -0.008 A 
HETATM    7  C   UNL     1      44.587  -9.299  10.420  1.00  0.00     0.014 A 
HETATM    8  C   UNL     1      41.467  -9.679   8.534  1.00  0.00     0.103 A 
HETATM    9  C   UNL     1      45.881  -9.441   9.912  1.00  0.00     0.001 A 
HETATM   10  C   UNL     1      46.082  -9.775   8.580  1.00  0.00     0.002 A 
BRANCH   6  11
HETATM   11  C   UNL     1      41.292  -9.297  10.961  1.00  0.00     0.018 C 
HETATM   12  C   UNL     1      41.478  -9.985  12.099  1.00  0.00     0.056 C 
BRANCH  12  13
HETATM   13  C   UNL     1      40.639  -9.703  13.294  1.00  0.00     0.182 C 
HETATM   14  O   UNL     1      39.728 -10.463  13.613  1.00  0.00    -0.288 OA
BRANCH  13  15
HETATM   15  C   UNL     1      40.882  -8.448  14.072  1.00  0.00     0.014 A 
HETATM   16  C   UNL     1      42.047  -8.201  14.812  1.00  0.00     0.018 A 
HETATM   17  C   UNL     1      42.233  -6.973  15.464  1.00  0.00     0.037 A 
HETATM   18  C   UNL     1      41.256  -5.981  15.392  1.00  0.00     0.068 A 
HETATM   19  C   UNL     1      40.077  -6.240  14.694  1.00  0.00     0.037 A 
HETATM   20  C   UNL     1      39.891  -7.460  14.036  1.00  0.00     0.018 A 
BRANCH  18  21
HETATM   21  O   UNL     1      41.330  -4.743  15.966  1.00  0.00    -0.356 OA
HETATM   22  C   UNL     1      40.147  -3.953  15.936  1.00  0.00     0.210 C 
ENDBRANCH  18  21
ENDBRANCH  13  15
ENDBRANCH  12  13
ENDBRANCH   6  11
ENDBRANCH   1   2
BRANCH   1  23
HETATM   23  C   UNL     1      41.911 -11.460   5.755  1.00  0.00     0.162 C 
BRANCH  23  24
HETATM   24  O   UNL     1      40.801 -12.031   6.476  1.00  0.00    -0.392 OA
HETATM   25  H   UNL     1      40.107 -11.346   6.561  1.00  0.00     0.210 HD
ENDBRANCH  23  24
BRANCH  23  26
HETATM   26  C   UNL     1      43.090 -12.443   5.889  1.00  0.00     0.265 C 
BRANCH  26  27
HETATM   27  N   UNL     1      42.899 -13.201   7.180  1.00  0.00    -0.072 N 
HETATM   28  H   UNL     1      43.532 -12.748   7.864  1.00  0.00     0.277 HD
HETATM   29  H   UNL     1      41.958 -13.011   7.545  1.00  0.00     0.277 HD
BRANCH  27  30
HETATM   30  C   UNL     1      43.113 -14.677   7.130  1.00  0.00     0.237 C 
BRANCH  30  31
HETATM   31  C   UNL     1      41.822 -15.445   6.841  1.00  0.00     0.068 C 
BRANCH  31  32
HETATM   32  C   UNL     1      41.697 -15.743   5.384  1.00  0.00    -0.029 A 
HETATM   33  C   UNL     1      42.394 -16.769   4.667  1.00  0.00     0.001 A 
HETATM   34  C   UNL     1      42.017 -16.675   3.329  1.00  0.00     0.043 A 
HETATM   35  C   UNL     1      43.322 -17.765   5.032  1.00  0.00     0.051 A 
HETATM   36  C   UNL     1      42.530 -17.521   2.341  1.00  0.00     0.033 A 
HETATM   37  N   UNL     1      41.101 -15.653   3.236  1.00  0.00    -0.365 N 
HETATM   38  C   UNL     1      43.459 -18.496   2.730  1.00  0.00     0.039 A 
HETATM   39  C   UNL     1      43.852 -18.625   4.060  1.00  0.00     0.069 A 
HETATM   40  H   UNL     1      40.642 -15.373   2.378  1.00  0.00     0.165 HD
HETATM   41  C   UNL     1      40.908 -15.079   4.466  1.00  0.00     0.096 A 
BRANCH  39  42
HETATM   42  O   UNL     1      44.749 -19.535   4.550  1.00  0.00    -0.356 OA
HETATM   43  C   UNL     1      44.213 -20.655   5.247  1.00  0.00     0.210 C 
ENDBRANCH  39  42
ENDBRANCH  31  32
ENDBRANCH  30  31
ENDBRANCH  27  30
ENDBRANCH  26  27
ENDBRANCH  23  26
ENDBRANCH   1  23
TORSDOF 13
ENDMDL
MODEL 7
REMARK VINA RESULT:      -8.9      3.777      8.383
REMARK  13 active torsions:
REMARK  status: ('A' for Active; 'I' for Inactive)
REMARK    1  A    between atoms: O_2  and  C_3 
REMARK    2  A    between atoms: C_6  and  C_7 
REMARK    3  A    between atoms: C_7  and  C_8 
REMARK    4  A    between atoms: C_9  and  C_10 
REMARK    5  A    between atoms: N_17  and  C_18 
REMARK    6  A    between atoms: C_18  and  C_19 
REMARK    7  A    between atoms: C_19  and  O_20 
REMARK    8  A    between atoms: C_19  and  C_21 
REMARK    9  A    between atoms: C_21  and  N_22 
REMARK   10  A    between atoms: N_22  and  C_25 
REMARK   11  A    between atoms: C_25  and  C_26 
REMARK   12  A    between atoms: C_26  and  C_27 
REMARK   13  A    between atoms: C_32  and  O_33 
ROOT
HETATM    1  C   UNL     1      39.788 -13.692  -2.107  1.00  0.00     0.162 C 
ENDROOT
BRANCH   1   2
HETATM    2  N   UNL     1      39.825 -13.385  -0.686  1.00  0.00    -0.353 N 
HETATM    3  C   UNL     1      38.986 -12.513  -0.023  1.00  0.00     0.045 A 
HETATM    4  C   UNL     1      39.283 -12.624   1.343  1.00  0.00     0.002 A 
HETATM    5  C   UNL     1      37.986 -11.647  -0.496  1.00  0.00     0.030 A 
HETATM    6  C   UNL     1      40.387 -13.524   1.461  1.00  0.00    -0.008 A 
HETATM    7  C   UNL     1      38.501 -11.884   2.259  1.00  0.00     0.014 A 
HETATM    8  C   UNL     1      40.680 -13.991   0.198  1.00  0.00     0.103 A 
HETATM    9  C   UNL     1      37.494 -11.033   1.794  1.00  0.00     0.001 A 
HETATM   10  C   UNL     1      37.250 -10.909   0.434  1.00  0.00     0.002 A 
BRANCH   6  11
HETATM   11  C   UNL     1      41.117 -13.928   2.621  1.00  0.00     0.018 C 
HETATM   12  C   UNL     1      40.605 -14.638   3.640  1.00  0.00     0.056 C 
BRANCH  12  13
HETATM   13  C   UNL     1      41.460 -15.021   4.794  1.00  0.00     0.182 C 
HETATM   14  O   UNL     1      41.541 -14.293   5.781  1.00  0.00    -0.288 OA
BRANCH  13  15
HETATM   15  C   UNL     1      42.267 -16.278   4.715  1.00  0.00     0.014 A 
HETATM   16  C   UNL     1      42.717 -16.843   3.513  1.00  0.00     0.018 A 
HETATM   17  C   UNL     1      43.525 -17.989   3.520  1.00  0.00     0.037 A 
HETATM   18  C   UNL     1      43.888 -18.590   4.725  1.00  0.00     0.068 A 
HETATM   19  C   UNL     1      43.406 -18.056   5.921  1.00  0.00     0.037 A 
HETATM   20  C   UNL     1      42.606 -16.909   5.918  1.00  0.00     0.018 A 
BRANCH  18  21
HETATM   21  O   UNL     1      44.682 -19.693   4.861  1.00  0.00    -0.356 OA
HETATM   22  C   UNL     1      44.029 -20.916   5.181  1.00  0.00     0.210 C 
ENDBRANCH  18  21
ENDBRANCH  13  15
ENDBRANCH  12  13
ENDBRANCH   6  11
ENDBRANCH   1   2
BRANCH   1  23
HETATM   23  C   UNL     1      40.749 -12.847  -2.965  1.00  0.00     0.162 C 
BRANCH  23  24
HETATM   24  O   UNL     1      41.794 -13.631  -3.575  1.00  0.00    -0.392 OA
HETATM   25  H   UNL     1      41.664 -13.613  -4.544  1.00  0.00     0.210 HD
ENDBRANCH  23  24
BRANCH  23  26
HETATM   26  C   UNL     1      41.433 -11.690  -2.212  1.00  0.00     0.265 C 
BRANCH  26  27
HETATM   27  N   UNL     1      40.671 -10.428  -2.535  1.00  0.00    -0.072 N 
HETATM   28  H   UNL     1      41.058 -10.093  -3.436  1.00  0.00     0.277 HD
HETATM   29  H   UNL     1      39.698 -10.671  -2.756  1.00  0.00     0.277 HD
BRANCH  27  30
HETATM   30  C   UNL     1      40.680  -9.353  -1.500  1.00  0.00     0.237 C 
BRANCH  30  31
HETATM   31  C   UNL     1      41.550  -9.711  -0.294  1.00  0.00     0.068 C 
BRANCH  31  32
HETATM   32  C   UNL     1      40.922  -9.236   0.974  1.00  0.00    -0.029 A 
HETATM   33  C   UNL     1      41.259  -9.665   2.298  1.00  0.00     0.001 A 
HETATM   34  C   UNL     1      40.407  -9.004   3.181  1.00  0.00     0.043 A 
HETATM   35  C   UNL     1      42.205 -10.564   2.829  1.00  0.00     0.051 A 
HETATM   36  C   UNL     1      40.451  -9.208   4.564  1.00  0.00     0.033 A 
HETATM   37  N   UNL     1      39.602  -8.180   2.430  1.00  0.00    -0.365 N 
HETATM   38  C   UNL     1      41.395 -10.115   5.063  1.00  0.00     0.039 A 
HETATM   39  C   UNL     1      42.269 -10.786   4.212  1.00  0.00     0.069 A 
HETATM   40  H   UNL     1      38.897  -7.564   2.814  1.00  0.00     0.165 HD
HETATM   41  C   UNL     1      39.898  -8.319   1.098  1.00  0.00     0.096 A 
BRANCH  39  42
HETATM   42  O   UNL     1      43.224 -11.692   4.587  1.00  0.00    -0.356 OA
HETATM   43  C   UNL     1      43.864 -11.469   5.839  1.00  0.00     0.210 C 
ENDBRANCH  39  42
ENDBRANCH  31  32
ENDBRANCH  30  31
ENDBRANCH  27  30
ENDBRANCH  26  27
ENDBRANCH  23  26
ENDBRANCH   1  23
TORSDOF 13
ENDMDL
MODEL 8
REMARK VINA RESULT:      -8.8      3.319      6.689
REMARK  13 active torsions:
REMARK  status: ('A' for Active; 'I' for Inactive)
REMARK    1  A    between atoms: O_2  and  C_3 
REMARK    2  A    between atoms: C_6  and  C_7 
REMARK    3  A    between atoms: C_7  and  C_8 
REMARK    4  A    between atoms: C_9  and  C_10 
REMARK    5  A    between atoms: N_17  and  C_18 
REMARK    6  A    between atoms: C_18  and  C_19 
REMARK    7  A    between atoms: C_19  and  O_20 
REMARK    8  A    between atoms: C_19  and  C_21 
REMARK    9  A    between atoms: C_21  and  N_22 
REMARK   10  A    between atoms: N_22  and  C_25 
REMARK   11  A    between atoms: C_25  and  C_26 
REMARK   12  A    between atoms: C_26  and  C_27 
REMARK   13  A    between atoms: C_32  and  O_33 
ROOT
HETATM    1  C   UNL     1      42.432 -14.369   5.741  1.00  0.00     0.162 C 
ENDROOT
BRANCH   1   2
HETATM    2  N   UNL     1      42.228 -15.050   4.472  1.00  0.00    -0.353 N 
HETATM    3  C   UNL     1      42.819 -16.233   4.082  1.00  0.00     0.045 A 
HETATM    4  C   UNL     1      42.242 -16.591   2.856  1.00  0.00     0.002 A 
HETATM    5  C   UNL     1      43.800 -17.028   4.699  1.00  0.00     0.030 A 
HETATM    6  C   UNL     1      41.352 -15.535   2.487  1.00  0.00    -0.008 A 
HETATM    7  C   UNL     1      42.621 -17.821   2.272  1.00  0.00     0.014 A 
HETATM    8  C   UNL     1      41.350 -14.615   3.512  1.00  0.00     0.103 A 
HETATM    9  C   UNL     1      43.584 -18.623   2.890  1.00  0.00     0.001 A 
HETATM   10  C   UNL     1      44.173 -18.224   4.082  1.00  0.00     0.002 A 
BRANCH   6  11
HETATM   11  C   UNL     1      40.569 -15.372   1.303  1.00  0.00     0.018 C 
HETATM   12  C   UNL     1      40.686 -14.346   0.443  1.00  0.00     0.056 C 
BRANCH  12  13
HETATM   13  C   UNL     1      39.831 -14.282  -0.772  1.00  0.00     0.182 C 
HETATM   14  O   UNL     1      39.177 -15.259  -1.129  1.00  0.00    -0.288 OA
BRANCH  13  15
HETATM   15  C   UNL     1      39.822 -13.029  -1.589  1.00  0.00     0.014 A 
HETATM   16  C   UNL     1      40.982 -12.367  -2.017  1.00  0.00     0.018 A 
HETATM   17  C   UNL     1      40.896 -11.231  -2.835  1.00  0.00     0.037 A 
HETATM   18  C   UNL     1      39.654 -10.738  -3.230  1.00  0.00     0.068 A 
HETATM   19  C   UNL     1      38.497 -11.367  -2.771  1.00  0.00     0.037 A 
HETATM   20  C   UNL     1      38.578 -12.504  -1.960  1.00  0.00     0.018 A 
BRANCH  18  21
HETATM   21  O   UNL     1      39.443  -9.655  -4.037  1.00  0.00    -0.356 OA
HETATM   22  C   UNL     1      38.089  -9.279  -4.261  1.00  0.00     0.210 C 
ENDBRANCH  18  21
ENDBRANCH  13  15
ENDBRANCH  12  13
ENDBRANCH   6  11
ENDBRANCH   1   2
BRANCH   1  23
HETATM   23  C   UNL     1      43.511 -13.271   5.707  1.00  0.00     0.162 C 
BRANCH  23  24
HETATM   24  O   UNL     1      44.313 -13.236   6.905  1.00  0.00    -0.392 OA
HETATM   25  H   UNL     1      45.244 -13.406   6.655  1.00  0.00     0.210 HD
ENDBRANCH  23  24
BRANCH  23  26
HETATM   26  C   UNL     1      42.970 -11.845   5.484  1.00  0.00     0.265 C 
BRANCH  26  27
HETATM   27  N   UNL     1      43.202 -11.497   4.035  1.00  0.00    -0.072 N 
HETATM   28  H   UNL     1      44.102 -10.984   4.013  1.00  0.00     0.277 HD
HETATM   29  H   UNL     1      43.391 -12.358   3.508  1.00  0.00     0.277 HD
BRANCH  27  30
HETATM   30  C   UNL     1      42.120 -10.734   3.345  1.00  0.00     0.237 C 
BRANCH  30  31
HETATM   31  C   UNL     1      41.889 -11.215   1.912  1.00  0.00     0.068 C 
BRANCH  31  32
HETATM   32  C   UNL     1      40.631 -10.635   1.354  1.00  0.00    -0.029 A 
HETATM   33  C   UNL     1      40.540  -9.557   0.416  1.00  0.00     0.001 A 
HETATM   34  C   UNL     1      39.187  -9.308   0.195  1.00  0.00     0.043 A 
HETATM   35  C   UNL     1      41.486  -8.761  -0.261  1.00  0.00     0.051 A 
HETATM   36  C   UNL     1      38.738  -8.297  -0.661  1.00  0.00     0.033 A 
HETATM   37  N   UNL     1      38.479 -10.218   0.944  1.00  0.00    -0.365 N 
HETATM   38  C   UNL     1      39.700  -7.514  -1.313  1.00  0.00     0.039 A 
HETATM   39  C   UNL     1      41.061  -7.740  -1.123  1.00  0.00     0.069 A 
HETATM   40  H   UNL     1      37.469 -10.281   0.962  1.00  0.00     0.165 HD
HETATM   41  C   UNL     1      39.339 -11.016   1.654  1.00  0.00     0.096 A 
BRANCH  39  42
HETATM   42  O   UNL     1      42.083  -7.039  -1.703  1.00  0.00    -0.356 OA
HETATM   43  C   UNL     1      42.368  -7.330  -3.068  1.00  0.00     0.210 C 
ENDBRANCH  39  42
ENDBRANCH  31  32
ENDBRANCH  30  31
ENDBRANCH  27  30
ENDBRANCH  26  27
ENDBRANCH  23  26
ENDBRANCH   1  23
TORSDOF 13
ENDMDL
MODEL 9
REMARK VINA RESULT:      -8.8      3.711      7.819
REMARK  13 active torsions:
REMARK  status: ('A' for Active; 'I' for Inactive)
REMARK    1  A    between atoms: O_2  and  C_3 
REMARK    2  A    between atoms: C_6  and  C_7 
REMARK    3  A    between atoms: C_7  and  C_8 
REMARK    4  A    between atoms: C_9  and  C_10 
REMARK    5  A    between atoms: N_17  and  C_18 
REMARK    6  A    between atoms: C_18  and  C_19 
REMARK    7  A    between atoms: C_19  and  O_20 
REMARK    8  A    between atoms: C_19  and  C_21 
REMARK    9  A    between atoms: C_21  and  N_22 
REMARK   10  A    between atoms: N_22  and  C_25 
REMARK   11  A    between atoms: C_25  and  C_26 
REMARK   12  A    between atoms: C_26  and  C_27 
REMARK   13  A    between atoms: C_32  and  O_33 
ROOT
HETATM    1  C   UNL     1      41.289  -8.409   8.123  1.00  0.00     0.162 C 
ENDROOT
BRANCH   1   2
HETATM    2  N   UNL     1      42.090  -9.412   7.438  1.00  0.00    -0.353 N 
HETATM    3  C   UNL     1      43.428  -9.667   7.654  1.00  0.00     0.045 A 
HETATM    4  C   UNL     1      43.756 -10.792   6.885  1.00  0.00     0.002 A 
HETATM    5  C   UNL     1      44.377  -9.020   8.463  1.00  0.00     0.030 A 
HETATM    6  C   UNL     1      42.590 -11.143   6.137  1.00  0.00    -0.008 A 
HETATM    7  C   UNL     1      45.065 -11.314   6.989  1.00  0.00     0.014 A 
HETATM    8  C   UNL     1      41.579 -10.289   6.517  1.00  0.00     0.103 A 
HETATM    9  C   UNL     1      46.009 -10.684   7.805  1.00  0.00     0.001 A 
HETATM   10  C   UNL     1      45.670  -9.545   8.522  1.00  0.00     0.002 A 
BRANCH   6  11
HETATM   11  C   UNL     1      42.407 -12.167   5.156  1.00  0.00     0.018 C 
HETATM   12  C   UNL     1      42.737 -13.458   5.326  1.00  0.00     0.056 C 
BRANCH  12  13
HETATM   13  C   UNL     1      42.488 -14.447   4.244  1.00  0.00     0.182 C 
HETATM   14  O   UNL     1      41.774 -14.159   3.286  1.00  0.00    -0.288 OA
BRANCH  13  15
HETATM   15  C   UNL     1      43.071 -15.819   4.365  1.00  0.00     0.014 A 
HETATM   16  C   UNL     1      43.540 -16.365   5.569  1.00  0.00     0.018 A 
HETATM   17  C   UNL     1      44.015 -17.684   5.618  1.00  0.00     0.037 A 
HETATM   18  C   UNL     1      44.036 -18.470   4.468  1.00  0.00     0.068 A 
HETATM   19  C   UNL     1      43.611 -17.917   3.260  1.00  0.00     0.037 A 
HETATM   20  C   UNL     1      43.130 -16.605   3.208  1.00  0.00     0.018 A 
BRANCH  18  21
HETATM   21  O   UNL     1      44.456 -19.769   4.394  1.00  0.00    -0.356 OA
HETATM   22  C   UNL     1      43.982 -20.652   5.405  1.00  0.00     0.210 C 
ENDBRANCH  18  21
ENDBRANCH  13  15
ENDBRANCH  12  13
ENDBRANCH   6  11
ENDBRANCH   1   2
BRANCH   1  23
HETATM   23  C   UNL     1      39.863  -8.869   8.479  1.00  0.00     0.162 C 
BRANCH  23  24
HETATM   24  O   UNL     1      39.021  -9.033   7.320  1.00  0.00    -0.392 OA
HETATM   25  H   UNL     1      39.067  -9.969   7.039  1.00  0.00     0.210 HD
ENDBRANCH  23  24
BRANCH  23  26
HETATM   26  C   UNL     1      39.113  -7.940   9.454  1.00  0.00     0.265 C 
BRANCH  26  27
HETATM   27  N   UNL     1      38.722  -8.767  10.654  1.00  0.00    -0.072 N 
HETATM   28  H   UNL     1      38.942  -8.180  11.479  1.00  0.00     0.277 HD
HETATM   29  H   UNL     1      37.700  -8.861  10.679  1.00  0.00     0.277 HD
BRANCH  27  30
HETATM   30  C   UNL     1      39.337 -10.122  10.765  1.00  0.00     0.237 C 
BRANCH  30  31
HETATM   31  C   UNL     1      39.961 -10.369  12.140  1.00  0.00     0.068 C 
BRANCH  31  32
HETATM   32  C   UNL     1      41.223  -9.588  12.298  1.00  0.00    -0.029 A 
HETATM   33  C   UNL     1      41.565  -8.748  13.405  1.00  0.00     0.001 A 
HETATM   34  C   UNL     1      42.808  -8.180  13.132  1.00  0.00     0.043 A 
HETATM   35  C   UNL     1      40.927  -8.407  14.615  1.00  0.00     0.051 A 
HETATM   36  C   UNL     1      43.435  -7.283  14.003  1.00  0.00     0.033 A 
HETATM   37  N   UNL     1      43.224  -8.678  11.919  1.00  0.00    -0.365 N 
HETATM   38  C   UNL     1      42.773  -6.955  15.194  1.00  0.00     0.039 A 
HETATM   39  C   UNL     1      41.534  -7.510  15.505  1.00  0.00     0.069 A 
HETATM   40  H   UNL     1      44.107  -8.449  11.480  1.00  0.00     0.165 HD
HETATM   41  C   UNL     1      42.273  -9.520  11.404  1.00  0.00     0.096 A 
BRANCH  39  42
HETATM   42  O   UNL     1      40.798  -7.260  16.632  1.00  0.00    -0.356 OA
HETATM   43  C   UNL     1      41.525  -7.011  17.831  1.00  0.00     0.210 C 
ENDBRANCH  39  42
ENDBRANCH  31  32
ENDBRANCH  30  31
ENDBRANCH  27  30
ENDBRANCH  26  27
ENDBRANCH  23  26
ENDBRANCH   1  23
TORSDOF 13
ENDMDL
MODEL 10
REMARK VINA RESULT:      -8.8      3.404      7.547
REMARK  13 active torsions:
REMARK  status: ('A' for Active; 'I' for Inactive)
REMARK    1  A    between atoms: O_2  and  C_3 
REMARK    2  A    between atoms: C_6  and  C_7 
REMARK    3  A    between atoms: C_7  and  C_8 
REMARK    4  A    between atoms: C_9  and  C_10 
REMARK    5  A    between atoms: N_17  and  C_18 
REMARK    6  A    between atoms: C_18  and  C_19 
REMARK    7  A    between atoms: C_19  and  O_20 
REMARK    8  A    between atoms: C_19  and  C_21 
REMARK    9  A    between atoms: C_21  and  N_22 
REMARK   10  A    between atoms: N_22  and  C_25 
REMARK   11  A    between atoms: C_25  and  C_26 
REMARK   12  A    between atoms: C_26  and  C_27 
REMARK   13  A    between atoms: C_32  and  O_33 
ROOT
HETATM    1  C   UNL     1      41.280  -9.243   7.590  1.00  0.00     0.162 C 
ENDROOT
BRANCH   1   2
HETATM    2  N   UNL     1      42.313 -10.038   6.945  1.00  0.00    -0.353 N 
HETATM    3  C   UNL     1      43.645 -10.080   7.301  1.00  0.00     0.045 A 
HETATM    4  C   UNL     1      44.246 -11.068   6.510  1.00  0.00     0.002 A 
HETATM    5  C   UNL     1      44.374  -9.347   8.253  1.00  0.00     0.030 A 
HETATM    6  C   UNL     1      43.247 -11.551   5.610  1.00  0.00    -0.008 A 
HETATM    7  C   UNL     1      45.609 -11.367   6.735  1.00  0.00     0.014 A 
HETATM    8  C   UNL     1      42.065 -10.914   5.920  1.00  0.00     0.103 A 
HETATM    9  C   UNL     1      46.335 -10.653   7.693  1.00  0.00     0.001 A 
HETATM   10  C   UNL     1      45.726  -9.648   8.432  1.00  0.00     0.002 A 
BRANCH   6  11
HETATM   11  C   UNL     1      43.353 -12.509   4.555  1.00  0.00     0.018 C 
HETATM   12  C   UNL     1      42.582 -13.603   4.433  1.00  0.00     0.056 C 
BRANCH  12  13
HETATM   13  C   UNL     1      42.765 -14.528   3.284  1.00  0.00     0.182 C 
HETATM   14  O   UNL     1      42.532 -14.155   2.137  1.00  0.00    -0.288 OA
BRANCH  13  15
HETATM   15  C   UNL     1      43.183 -15.941   3.548  1.00  0.00     0.014 A 
HETATM   16  C   UNL     1      43.230 -16.938   2.564  1.00  0.00     0.018 A 
HETATM   17  C   UNL     1      43.695 -18.225   2.872  1.00  0.00     0.037 A 
HETATM   18  C   UNL     1      44.110 -18.534   4.166  1.00  0.00     0.068 A 
HETATM   19  C   UNL     1      44.023 -17.557   5.158  1.00  0.00     0.037 A 
HETATM   20  C   UNL     1      43.568 -16.271   4.853  1.00  0.00     0.018 A 
BRANCH  18  21
HETATM   21  O   UNL     1      44.597 -19.741   4.583  1.00  0.00    -0.356 OA
HETATM   22  C   UNL     1      43.848 -20.423   5.583  1.00  0.00     0.210 C 
ENDBRANCH  18  21
ENDBRANCH  13  15
ENDBRANCH  12  13
ENDBRANCH   6  11
ENDBRANCH   1   2
BRANCH   1  23
HETATM   23  C   UNL     1      40.604  -8.210   6.669  1.00  0.00     0.162 C 
BRANCH  23  24
HETATM   24  O   UNL     1      41.320  -6.960   6.609  1.00  0.00    -0.392 OA
HETATM   25  H   UNL     1      40.900  -6.399   5.926  1.00  0.00     0.210 HD
ENDBRANCH  23  24
BRANCH  23  26
HETATM   26  C   UNL     1      39.145  -7.878   7.036  1.00  0.00     0.265 C 
BRANCH  26  27
HETATM   27  N   UNL     1      39.083  -7.722   8.536  1.00  0.00    -0.072 N 
HETATM   28  H   UNL     1      38.327  -8.358   8.850  1.00  0.00     0.277 HD
HETATM   29  H   UNL     1      39.934  -8.121   8.951  1.00  0.00     0.277 HD
BRANCH  27  30
HETATM   30  C   UNL     1      38.889  -6.338   9.060  1.00  0.00     0.237 C 
BRANCH  30  31
HETATM   31  C   UNL     1      39.374  -6.187  10.502  1.00  0.00     0.068 C 
BRANCH  31  32
HETATM   32  C   UNL     1      40.751  -6.743  10.660  1.00  0.00    -0.029 A 
HETATM   33  C   UNL     1      41.113  -7.907  11.412  1.00  0.00     0.001 A 
HETATM   34  C   UNL     1      42.496  -8.046  11.327  1.00  0.00     0.043 A 
HETATM   35  C   UNL     1      40.390  -8.853  12.167  1.00  0.00     0.051 A 
HETATM   36  C   UNL     1      43.190  -9.077  11.969  1.00  0.00     0.033 A 
HETATM   37  N   UNL     1      42.960  -7.026  10.529  1.00  0.00    -0.365 N 
HETATM   38  C   UNL     1      42.448  -9.997  12.722  1.00  0.00     0.039 A 
HETATM   39  C   UNL     1      41.063  -9.895  12.821  1.00  0.00     0.069 A 
HETATM   40  H   UNL     1      43.931  -6.892  10.280  1.00  0.00     0.165 HD
HETATM   41  C   UNL     1      41.917  -6.230  10.130  1.00  0.00     0.096 A 
BRANCH  39  42
HETATM   42  O   UNL     1      40.241 -10.731  13.528  1.00  0.00    -0.356 OA
HETATM   43  C   UNL     1      39.101 -11.241  12.843  1.00  0.00     0.210 C 
ENDBRANCH  39  42
ENDBRANCH  31  32
ENDBRANCH  30  31
ENDBRANCH  27  30
ENDBRANCH  26  27
ENDBRANCH  23  26
ENDBRANCH   1  23
TORSDOF 13
ENDMDL
