MODEL 1
REMARK VINA RESULT:      -7.8      0.000      0.000
REMARK  10 active torsions:
REMARK  status: ('A' for Active; 'I' for Inactive)
REMARK    1  A    between atoms: C_2  and  C_3 
REMARK    2  A    between atoms: C_3  and  N_4 
REMARK    3  A    between atoms: C_10  and  C_11 
REMARK    4  A    between atoms: C_11  and  C_12 
REMARK    5  A    between atoms: C_12  and  S_13 
REMARK    6  A    between atoms: S_13  and  C_14 
REMARK    7  A    between atoms: N_15  and  C_16 
REMARK    8  A    between atoms: C_23  and  C_24 
REMARK    9  A    between atoms: C_24  and  N_25 
REMARK   10  A    between atoms: C_33  and  N_34 
ROOT
HETATM    1  S   UNL     1      43.459 -11.864   3.584  1.00  0.00    -0.082 SA
ENDROOT
BRANCH   1   2
HETATM    2  C   UNL     1      42.808 -10.659   4.782  1.00  0.00     0.166 C 
BRANCH   2   3
HETATM    3  C   UNL     1      42.555 -11.328   6.129  1.00  0.00     0.177 C 
HETATM    4  O   UNL     1      42.851 -10.784   7.202  1.00  0.00    -0.291 OA
BRANCH   3   5
HETATM    5  C   UNL     1      41.877 -12.664   6.133  1.00  0.00     0.117 A 
HETATM    6  C   UNL     1      40.462 -12.770   5.733  1.00  0.00     0.266 A 
HETATM    7  N   UNL     1      39.882 -13.987   5.871  1.00  0.00    -0.274 N 
HETATM    8  O   UNL     1      39.848 -11.807   5.285  1.00  0.00    -0.267 OA
HETATM    9  C   UNL     1      40.511 -15.123   6.280  1.00  0.00     0.330 A 
HETATM   10  H   UNL     1      38.912 -14.084   5.610  1.00  0.00     0.173 HD
HETATM   11  N   UNL     1      41.863 -14.996   6.595  1.00  0.00    -0.289 N 
HETATM   12  O   UNL     1      39.870 -16.169   6.347  1.00  0.00    -0.246 OA
HETATM   13  C   UNL     1      42.546 -13.776   6.526  1.00  0.00     0.103 A 
BRANCH  11  14
HETATM   14  C   UNL     1      42.528 -16.211   7.091  1.00  0.00     0.135 C 
BRANCH  14  15
HETATM   15  C   UNL     1      42.971 -17.175   5.983  1.00  0.00     0.016 C 
HETATM   16  C   UNL     1      44.397 -16.933   5.511  1.00  0.00     0.006 C 
ENDBRANCH  14  15
ENDBRANCH  11  14
BRANCH  13  17
HETATM   17  N   UNL     1      43.894 -13.718   6.872  1.00  0.00    -0.287 NA
HETATM   18  H   UNL     1      44.134 -14.401   7.600  1.00  0.00     0.125 HD
HETATM   19  H   UNL     1      44.179 -12.791   7.178  1.00  0.00     0.125 HD
ENDBRANCH  13  17
ENDBRANCH   3   5
ENDBRANCH   2   3
ENDBRANCH   1   2
BRANCH   1  20
HETATM   20  C   UNL     1      42.242 -11.787   2.354  1.00  0.00     0.196 A 
HETATM   21  N   UNL     1      41.763 -12.874   1.645  1.00  0.00    -0.274 N 
HETATM   22  C   UNL     1      40.940 -12.306   0.672  1.00  0.00     0.166 A 
HETATM   23  N   UNL     1      40.967 -10.993   0.798  1.00  0.00    -0.131 NA
HETATM   24  N   UNL     1      41.777 -10.670   1.844  1.00  0.00    -0.122 NA
BRANCH  21  25
HETATM   25  C   UNL     1      42.012 -14.251   1.873  1.00  0.00     0.043 A 
HETATM   26  C   UNL     1      41.051 -15.032   2.530  1.00  0.00     0.032 A 
HETATM   27  C   UNL     1      41.284 -16.393   2.743  1.00  0.00     0.026 A 
HETATM   28  C   UNL     1      42.473 -16.969   2.308  1.00  0.00     0.034 A 
HETATM   29 CL   UNL     1      42.759 -18.644   2.570  1.00  0.00    -0.084 Cl
HETATM   30  C   UNL     1      43.438 -16.195   1.664  1.00  0.00     0.026 A 
HETATM   31  C   UNL     1      43.212 -14.832   1.444  1.00  0.00     0.032 A 
ENDBRANCH  21  25
BRANCH  22  32
HETATM   32  C   UNL     1      40.062 -13.047  -0.294  1.00  0.00     0.254 C 
HETATM   33  C   UNL     1      38.731 -12.328  -0.536  1.00  0.00     0.049 C 
BRANCH  32  34
HETATM   34  N   UNL     1      40.712 -13.353  -1.667  1.00  0.00    -0.068 N 
HETATM   35  H   UNL     1      41.565 -13.885  -1.461  1.00  0.00     0.279 HD
HETATM   36  C   UNL     1      39.898 -14.221  -2.596  1.00  0.00     0.270 C 
HETATM   37  C   UNL     1      41.166 -12.102  -2.377  1.00  0.00     0.270 C 
ENDBRANCH  32  34
ENDBRANCH  22  32
ENDBRANCH   1  20
TORSDOF 10
ENDMDL
MODEL 2
REMARK VINA RESULT:      -7.2      2.656      4.379
REMARK  10 active torsions:
REMARK  status: ('A' for Active; 'I' for Inactive)
REMARK    1  A    between atoms: C_2  and  C_3 
REMARK    2  A    between atoms: C_3  and  N_4 
REMARK    3  A    between atoms: C_10  and  C_11 
REMARK    4  A    between atoms: C_11  and  C_12 
REMARK    5  A    between atoms: C_12  and  S_13 
REMARK    6  A    between atoms: S_13  and  C_14 
REMARK    7  A    between atoms: N_15  and  C_16 
REMARK    8  A    between atoms: C_23  and  C_24 
REMARK    9  A    between atoms: C_24  and  N_25 
REMARK   10  A    between atoms: C_33  and  N_34 
ROOT
HETATM    1  S   UNL     1      40.786 -12.721   4.642  1.00  0.00    -0.082 SA
ENDROOT
BRANCH   1   2
HETATM    2  C   UNL     1      42.552 -12.278   4.623  1.00  0.00     0.166 C 
BRANCH   2   3
HETATM    3  C   UNL     1      42.756 -10.869   5.169  1.00  0.00     0.177 C 
HETATM    4  O   UNL     1      42.274  -9.871   4.616  1.00  0.00    -0.291 OA
BRANCH   3   5
HETATM    5  C   UNL     1      43.523 -10.715   6.447  1.00  0.00     0.117 A 
HETATM    6  C   UNL     1      44.973 -10.976   6.469  1.00  0.00     0.266 A 
HETATM    7  N   UNL     1      45.581 -10.930   7.679  1.00  0.00    -0.274 N 
HETATM    8  O   UNL     1      45.599 -11.208   5.439  1.00  0.00    -0.267 OA
HETATM    9  C   UNL     1      44.979 -10.600   8.856  1.00  0.00     0.330 A 
HETATM   10  H   UNL     1      46.572 -11.112   7.721  1.00  0.00     0.173 HD
HETATM   11  N   UNL     1      43.619 -10.303   8.787  1.00  0.00    -0.289 N 
HETATM   12  O   UNL     1      45.650 -10.581   9.884  1.00  0.00    -0.246 OA
HETATM   13  C   UNL     1      42.890 -10.361   7.593  1.00  0.00     0.103 A 
BRANCH  11  14
HETATM   14  C   UNL     1      42.957 -10.001  10.066  1.00  0.00     0.135 C 
BRANCH  14  15
HETATM   15  C   UNL     1      43.167  -8.562  10.551  1.00  0.00     0.016 C 
HETATM   16  C   UNL     1      43.549  -8.473  12.021  1.00  0.00     0.006 C 
ENDBRANCH  14  15
ENDBRANCH  11  14
BRANCH  13  17
HETATM   17  N   UNL     1      41.528 -10.069   7.599  1.00  0.00    -0.287 NA
HETATM   18  H   UNL     1      41.170  -9.925   8.552  1.00  0.00     0.125 HD
HETATM   19  H   UNL     1      40.972 -10.785   7.140  1.00  0.00     0.125 HD
ENDBRANCH  13  17
ENDBRANCH   3   5
ENDBRANCH   2   3
ENDBRANCH   1   2
BRANCH   1  20
HETATM   20  C   UNL     1      40.383 -12.511   2.971  1.00  0.00     0.196 A 
HETATM   21  N   UNL     1      40.806 -13.336   1.945  1.00  0.00    -0.274 N 
HETATM   22  C   UNL     1      40.379 -12.683   0.788  1.00  0.00     0.166 A 
HETATM   23  N   UNL     1      39.782 -11.556   1.125  1.00  0.00    -0.131 NA
HETATM   24  N   UNL     1      39.785 -11.449   2.484  1.00  0.00    -0.122 NA
BRANCH  21  25
HETATM   25  C   UNL     1      41.479 -14.581   2.038  1.00  0.00     0.043 A 
HETATM   26  C   UNL     1      42.845 -14.658   1.733  1.00  0.00     0.032 A 
HETATM   27  C   UNL     1      43.517 -15.878   1.837  1.00  0.00     0.026 A 
HETATM   28  C   UNL     1      42.826 -17.017   2.240  1.00  0.00     0.034 A 
HETATM   29 CL   UNL     1      43.653 -18.518   2.370  1.00  0.00    -0.084 Cl
HETATM   30  C   UNL     1      41.464 -16.949   2.536  1.00  0.00     0.026 A 
HETATM   31  C   UNL     1      40.785 -15.731   2.436  1.00  0.00     0.032 A 
ENDBRANCH  21  25
BRANCH  22  32
HETATM   32  C   UNL     1      40.465 -13.209  -0.615  1.00  0.00     0.254 C 
HETATM   33  C   UNL     1      39.583 -14.444  -0.824  1.00  0.00     0.049 C 
BRANCH  32  34
HETATM   34  N   UNL     1      40.137 -12.178  -1.723  1.00  0.00    -0.068 N 
HETATM   35  H   UNL     1      39.432 -11.549  -1.322  1.00  0.00     0.279 HD
HETATM   36  C   UNL     1      41.282 -11.294  -2.153  1.00  0.00     0.270 C 
HETATM   37  C   UNL     1      39.484 -12.817  -2.924  1.00  0.00     0.270 C 
ENDBRANCH  32  34
ENDBRANCH  22  32
ENDBRANCH   1  20
TORSDOF 10
ENDMDL
MODEL 3
REMARK VINA RESULT:      -7.0      3.524      5.051
REMARK  10 active torsions:
REMARK  status: ('A' for Active; 'I' for Inactive)
REMARK    1  A    between atoms: C_2  and  C_3 
REMARK    2  A    between atoms: C_3  and  N_4 
REMARK    3  A    between atoms: C_10  and  C_11 
REMARK    4  A    between atoms: C_11  and  C_12 
REMARK    5  A    between atoms: C_12  and  S_13 
REMARK    6  A    between atoms: S_13  and  C_14 
REMARK    7  A    between atoms: N_15  and  C_16 
REMARK    8  A    between atoms: C_23  and  C_24 
REMARK    9  A    between atoms: C_24  and  N_25 
REMARK   10  A    between atoms: C_33  and  N_34 
ROOT
HETATM    1  S   UNL     1      40.404 -12.508   4.395  1.00  0.00    -0.082 SA
ENDROOT
BRANCH   1   2
HETATM    2  C   UNL     1      40.725 -14.095   5.226  1.00  0.00     0.166 C 
BRANCH   2   3
HETATM    3  C   UNL     1      42.221 -14.384   5.270  1.00  0.00     0.177 C 
HETATM    4  O   UNL     1      43.066 -13.480   5.326  1.00  0.00    -0.291 OA
BRANCH   3   5
HETATM    5  C   UNL     1      42.659 -15.816   5.300  1.00  0.00     0.117 A 
HETATM    6  C   UNL     1      42.617 -16.572   6.565  1.00  0.00     0.266 A 
HETATM    7  N   UNL     1      43.134 -17.824   6.543  1.00  0.00    -0.274 N 
HETATM    8  O   UNL     1      42.124 -16.092   7.582  1.00  0.00    -0.267 OA
HETATM    9  C   UNL     1      43.623 -18.459   5.442  1.00  0.00     0.330 A 
HETATM   10  H   UNL     1      43.124 -18.358   7.399  1.00  0.00     0.173 HD
HETATM   11  N   UNL     1      43.593 -17.735   4.252  1.00  0.00    -0.289 N 
HETATM   12  O   UNL     1      44.051 -19.606   5.557  1.00  0.00    -0.246 OA
HETATM   13  C   UNL     1      43.117 -16.421   4.176  1.00  0.00     0.103 A 
BRANCH  11  14
HETATM   14  C   UNL     1      44.173 -18.402   3.075  1.00  0.00     0.135 C 
BRANCH  14  15
HETATM   15  C   UNL     1      43.146 -19.144   2.211  1.00  0.00     0.016 C 
HETATM   16  C   UNL     1      43.608 -20.529   1.784  1.00  0.00     0.006 C 
ENDBRANCH  14  15
ENDBRANCH  11  14
BRANCH  13  17
HETATM   17  N   UNL     1      43.133 -15.749   2.955  1.00  0.00    -0.287 NA
HETATM   18  H   UNL     1      42.966 -16.384   2.165  1.00  0.00     0.125 HD
HETATM   19  H   UNL     1      44.000 -15.245   2.798  1.00  0.00     0.125 HD
ENDBRANCH  13  17
ENDBRANCH   3   5
ENDBRANCH   2   3
ENDBRANCH   1   2
BRANCH   1  20
HETATM   20  C   UNL     1      40.248 -13.030   2.751  1.00  0.00     0.196 A 
HETATM   21  N   UNL     1      39.808 -12.237   1.707  1.00  0.00    -0.274 N 
HETATM   22  C   UNL     1      39.690 -13.123   0.635  1.00  0.00     0.166 A 
HETATM   23  N   UNL     1      40.011 -14.336   1.043  1.00  0.00    -0.131 NA
HETATM   24  N   UNL     1      40.357 -14.278   2.359  1.00  0.00    -0.122 NA
BRANCH  21  25
HETATM   25  C   UNL     1      39.571 -10.839   1.705  1.00  0.00     0.043 A 
HETATM   26  C   UNL     1      38.283 -10.351   1.969  1.00  0.00     0.032 A 
HETATM   27  C   UNL     1      38.046  -8.975   1.982  1.00  0.00     0.026 A 
HETATM   28  C   UNL     1      39.090  -8.089   1.728  1.00  0.00     0.034 A 
HETATM   29 CL   UNL     1      38.799  -6.395   1.747  1.00  0.00    -0.084 Cl
HETATM   30  C   UNL     1      40.371  -8.569   1.454  1.00  0.00     0.026 A 
HETATM   31  C   UNL     1      40.617  -9.945   1.441  1.00  0.00     0.032 A 
ENDBRANCH  21  25
BRANCH  22  32
HETATM   32  C   UNL     1      39.369 -12.764  -0.786  1.00  0.00     0.254 C 
HETATM   33  C   UNL     1      40.629 -12.619  -1.645  1.00  0.00     0.049 C 
BRANCH  32  34
HETATM   34  N   UNL     1      38.394 -13.731  -1.502  1.00  0.00    -0.068 N 
HETATM   35  H   UNL     1      37.927 -14.261  -0.758  1.00  0.00     0.279 HD
HETATM   36  C   UNL     1      37.291 -13.077  -2.299  1.00  0.00     0.270 C 
HETATM   37  C   UNL     1      39.118 -14.753  -2.344  1.00  0.00     0.270 C 
ENDBRANCH  32  34
ENDBRANCH  22  32
ENDBRANCH   1  20
TORSDOF 10
ENDMDL
MODEL 4
REMARK VINA RESULT:      -7.0      3.310      7.009
REMARK  10 active torsions:
REMARK  status: ('A' for Active; 'I' for Inactive)
REMARK    1  A    between atoms: C_2  and  C_3 
REMARK    2  A    between atoms: C_3  and  N_4 
REMARK    3  A    between atoms: C_10  and  C_11 
REMARK    4  A    between atoms: C_11  and  C_12 
REMARK    5  A    between atoms: C_12  and  S_13 
REMARK    6  A    between atoms: S_13  and  C_14 
REMARK    7  A    between atoms: N_15  and  C_16 
REMARK    8  A    between atoms: C_23  and  C_24 
REMARK    9  A    between atoms: C_24  and  N_25 
REMARK   10  A    between atoms: C_33  and  N_34 
ROOT
HETATM    1  S   UNL     1      40.170 -11.058   4.036  1.00  0.00    -0.082 SA
ENDROOT
BRANCH   1   2
HETATM    2  C   UNL     1      40.979 -10.388   2.549  1.00  0.00     0.166 C 
BRANCH   2   3
HETATM    3  C   UNL     1      39.990 -10.308   1.391  1.00  0.00     0.177 C 
HETATM    4  O   UNL     1      38.983  -9.589   1.433  1.00  0.00    -0.291 OA
BRANCH   3   5
HETATM    5  C   UNL     1      40.295 -11.092   0.152  1.00  0.00     0.117 A 
HETATM    6  C   UNL     1      41.358 -10.637  -0.763  1.00  0.00     0.266 A 
HETATM    7  N   UNL     1      41.502 -11.328  -1.919  1.00  0.00    -0.274 N 
HETATM    8  O   UNL     1      42.084  -9.688  -0.481  1.00  0.00    -0.267 OA
HETATM    9  C   UNL     1      40.797 -12.439  -2.271  1.00  0.00     0.330 A 
HETATM   10  H   UNL     1      42.218 -11.031  -2.565  1.00  0.00     0.173 HD
HETATM   11  N   UNL     1      39.840 -12.874  -1.356  1.00  0.00    -0.289 N 
HETATM   12  O   UNL     1      41.038 -12.981  -3.347  1.00  0.00    -0.246 OA
HETATM   13  C   UNL     1      39.586 -12.207  -0.151  1.00  0.00     0.103 A 
BRANCH  11  14
HETATM   14  C   UNL     1      39.041 -14.041  -1.761  1.00  0.00     0.135 C 
BRANCH  14  15
HETATM   15  C   UNL     1      38.075 -13.762  -2.920  1.00  0.00     0.016 C 
HETATM   16  C   UNL     1      37.084 -12.647  -2.621  1.00  0.00     0.006 C 
ENDBRANCH  14  15
ENDBRANCH  11  14
BRANCH  13  17
HETATM   17  N   UNL     1      38.602 -12.688   0.711  1.00  0.00    -0.287 NA
HETATM   18  H   UNL     1      38.478 -13.704   0.624  1.00  0.00     0.125 HD
HETATM   19  H   UNL     1      37.705 -12.231   0.573  1.00  0.00     0.125 HD
ENDBRANCH  13  17
ENDBRANCH   3   5
ENDBRANCH   2   3
ENDBRANCH   1   2
BRANCH   1  20
HETATM   20  C   UNL     1      40.530 -12.743   3.869  1.00  0.00     0.196 A 
HETATM   21  N   UNL     1      41.717 -13.340   4.253  1.00  0.00    -0.274 N 
HETATM   22  C   UNL     1      41.609 -14.647   3.774  1.00  0.00     0.166 A 
HETATM   23  N   UNL     1      40.460 -14.779   3.140  1.00  0.00    -0.131 NA
HETATM   24  N   UNL     1      39.789 -13.594   3.199  1.00  0.00    -0.122 NA
BRANCH  21  25
HETATM   25  C   UNL     1      42.784 -12.777   4.998  1.00  0.00     0.043 A 
HETATM   26  C   UNL     1      43.743 -11.985   4.351  1.00  0.00     0.032 A 
HETATM   27  C   UNL     1      44.788 -11.415   5.081  1.00  0.00     0.026 A 
HETATM   28  C   UNL     1      44.878 -11.639   6.453  1.00  0.00     0.034 A 
HETATM   29 CL   UNL     1      46.162 -10.936   7.352  1.00  0.00    -0.084 Cl
HETATM   30  C   UNL     1      43.933 -12.434   7.100  1.00  0.00     0.026 A 
HETATM   31  C   UNL     1      42.882 -13.007   6.376  1.00  0.00     0.032 A 
ENDBRANCH  21  25
BRANCH  22  32
HETATM   32  C   UNL     1      42.572 -15.770   4.026  1.00  0.00     0.254 C 
HETATM   33  C   UNL     1      42.181 -16.602   5.252  1.00  0.00     0.049 C 
BRANCH  32  34
HETATM   34  N   UNL     1      42.788 -16.729   2.830  1.00  0.00    -0.068 N 
HETATM   35  H   UNL     1      41.855 -17.071   2.572  1.00  0.00     0.279 HD
HETATM   36  C   UNL     1      43.358 -16.100   1.582  1.00  0.00     0.270 C 
HETATM   37  C   UNL     1      43.583 -17.953   3.213  1.00  0.00     0.270 C 
ENDBRANCH  32  34
ENDBRANCH  22  32
ENDBRANCH   1  20
TORSDOF 10
ENDMDL
MODEL 5
REMARK VINA RESULT:      -7.0      2.738      3.752
REMARK  10 active torsions:
REMARK  status: ('A' for Active; 'I' for Inactive)
REMARK    1  A    between atoms: C_2  and  C_3 
REMARK    2  A    between atoms: C_3  and  N_4 
REMARK    3  A    between atoms: C_10  and  C_11 
REMARK    4  A    between atoms: C_11  and  C_12 
REMARK    5  A    between atoms: C_12  and  S_13 
REMARK    6  A    between atoms: S_13  and  C_14 
REMARK    7  A    between atoms: N_15  and  C_16 
REMARK    8  A    between atoms: C_23  and  C_24 
REMARK    9  A    between atoms: C_24  and  N_25 
REMARK   10  A    between atoms: C_33  and  N_34 
ROOT
HETATM    1  S   UNL     1      39.954 -12.716   4.373  1.00  0.00    -0.082 SA
ENDROOT
BRANCH   1   2
HETATM    2  C   UNL     1      39.538 -11.018   4.881  1.00  0.00     0.166 C 
BRANCH   2   3
HETATM    3  C   UNL     1      40.710 -10.078   4.619  1.00  0.00     0.177 C 
HETATM    4  O   UNL     1      40.566  -8.983   4.061  1.00  0.00    -0.291 OA
BRANCH   3   5
HETATM    5  C   UNL     1      42.064 -10.492   5.110  1.00  0.00     0.117 A 
HETATM    6  C   UNL     1      43.070 -10.994   4.156  1.00  0.00     0.266 A 
HETATM    7  N   UNL     1      44.229 -11.457   4.683  1.00  0.00    -0.274 N 
HETATM    8  O   UNL     1      42.870 -10.978   2.945  1.00  0.00    -0.267 OA
HETATM    9  C   UNL     1      44.564 -11.434   6.003  1.00  0.00     0.330 A 
HETATM   10  H   UNL     1      44.930 -11.813   4.051  1.00  0.00     0.173 HD
HETATM   11  N   UNL     1      43.611 -10.899   6.869  1.00  0.00    -0.289 N 
HETATM   12  O   UNL     1      45.658 -11.874   6.348  1.00  0.00    -0.246 OA
HETATM   13  C   UNL     1      42.367 -10.432   6.430  1.00  0.00     0.103 A 
BRANCH  11  14
HETATM   14  C   UNL     1      43.951 -10.926   8.300  1.00  0.00     0.135 C 
BRANCH  14  15
HETATM   15  C   UNL     1      44.764  -9.714   8.770  1.00  0.00     0.016 C 
HETATM   16  C   UNL     1      45.252  -9.837  10.206  1.00  0.00     0.006 C 
ENDBRANCH  14  15
ENDBRANCH  11  14
BRANCH  13  17
HETATM   17  N   UNL     1      41.455  -9.925   7.354  1.00  0.00    -0.287 NA
HETATM   18  H   UNL     1      40.802  -9.259   6.923  1.00  0.00     0.125 HD
HETATM   19  H   UNL     1      41.909  -9.479   8.146  1.00  0.00     0.125 HD
ENDBRANCH  13  17
ENDBRANCH   3   5
ENDBRANCH   2   3
ENDBRANCH   1   2
BRANCH   1  20
HETATM   20  C   UNL     1      39.685 -12.617   2.665  1.00  0.00     0.196 A 
HETATM   21  N   UNL     1      40.328 -13.392   1.717  1.00  0.00    -0.274 N 
HETATM   22  C   UNL     1      39.917 -12.846   0.499  1.00  0.00     0.166 A 
HETATM   23  N   UNL     1      39.122 -11.820   0.734  1.00  0.00    -0.131 NA
HETATM   24  N   UNL     1      38.979 -11.677   2.082  1.00  0.00    -0.122 NA
BRANCH  21  25
HETATM   25  C   UNL     1      41.174 -14.511   1.922  1.00  0.00     0.043 A 
HETATM   26  C   UNL     1      40.617 -15.754   2.255  1.00  0.00     0.032 A 
HETATM   27  C   UNL     1      41.445 -16.863   2.444  1.00  0.00     0.026 A 
HETATM   28  C   UNL     1      42.824 -16.730   2.306  1.00  0.00     0.034 A 
HETATM   29 CL   UNL     1      43.842 -18.095   2.537  1.00  0.00    -0.084 Cl
HETATM   30  C   UNL     1      43.385 -15.494   1.985  1.00  0.00     0.026 A 
HETATM   31  C   UNL     1      42.563 -14.379   1.792  1.00  0.00     0.032 A 
ENDBRANCH  21  25
BRANCH  22  32
HETATM   32  C   UNL     1      40.218 -13.390  -0.867  1.00  0.00     0.254 C 
HETATM   33  C   UNL     1      39.410 -14.654  -1.177  1.00  0.00     0.049 C 
BRANCH  32  34
HETATM   34  N   UNL     1      40.024 -12.385  -2.029  1.00  0.00    -0.068 N 
HETATM   35  H   UNL     1      39.905 -11.466  -1.589  1.00  0.00     0.279 HD
HETATM   36  C   UNL     1      41.195 -12.242  -2.972  1.00  0.00     0.270 C 
HETATM   37  C   UNL     1      38.754 -12.641  -2.802  1.00  0.00     0.270 C 
ENDBRANCH  32  34
ENDBRANCH  22  32
ENDBRANCH   1  20
TORSDOF 10
ENDMDL
MODEL 6
REMARK VINA RESULT:      -6.9      4.014      5.837
REMARK  10 active torsions:
REMARK  status: ('A' for Active; 'I' for Inactive)
REMARK    1  A    between atoms: C_2  and  C_3 
REMARK    2  A    between atoms: C_3  and  N_4 
REMARK    3  A    between atoms: C_10  and  C_11 
REMARK    4  A    between atoms: C_11  and  C_12 
REMARK    5  A    between atoms: C_12  and  S_13 
REMARK    6  A    between atoms: S_13  and  C_14 
REMARK    7  A    between atoms: N_15  and  C_16 
REMARK    8  A    between atoms: C_23  and  C_24 
REMARK    9  A    between atoms: C_24  and  N_25 
REMARK   10  A    between atoms: C_33  and  N_34 
ROOT
HETATM    1  S   UNL     1      44.400 -12.206   6.729  1.00  0.00    -0.082 SA
ENDROOT
BRANCH   1   2
HETATM    2  C   UNL     1      44.511 -10.448   7.190  1.00  0.00     0.166 C 
BRANCH   2   3
HETATM    3  C   UNL     1      44.892 -10.304   8.660  1.00  0.00     0.177 C 
HETATM    4  O   UNL     1      45.889 -10.858   9.140  1.00  0.00    -0.291 OA
BRANCH   3   5
HETATM    5  C   UNL     1      44.046  -9.414   9.520  1.00  0.00     0.117 A 
HETATM    6  C   UNL     1      44.052  -7.957   9.298  1.00  0.00     0.266 A 
HETATM    7  N   UNL     1      43.355  -7.205  10.184  1.00  0.00    -0.274 N 
HETATM    8  O   UNL     1      44.647  -7.455   8.349  1.00  0.00    -0.267 OA
HETATM    9  C   UNL     1      42.603  -7.686  11.212  1.00  0.00     0.330 A 
HETATM   10  H   UNL     1      43.350  -6.204  10.058  1.00  0.00     0.173 HD
HETATM   11  N   UNL     1      42.575  -9.072  11.355  1.00  0.00    -0.289 N 
HETATM   12  O   UNL     1      42.006  -6.893  11.936  1.00  0.00    -0.246 OA
HETATM   13  C   UNL     1      43.292  -9.935  10.519  1.00  0.00     0.103 A 
BRANCH  11  14
HETATM   14  C   UNL     1      41.807  -9.588  12.500  1.00  0.00     0.135 C 
BRANCH  14  15
HETATM   15  C   UNL     1      40.309  -9.757  12.220  1.00  0.00     0.016 C 
HETATM   16  C   UNL     1      39.646 -10.801  13.105  1.00  0.00     0.006 C 
ENDBRANCH  14  15
ENDBRANCH  11  14
BRANCH  13  17
HETATM   17  N   UNL     1      43.232 -11.311  10.730  1.00  0.00    -0.287 NA
HETATM   18  H   UNL     1      44.083 -11.669  11.179  1.00  0.00     0.125 HD
HETATM   19  H   UNL     1      43.065 -11.831   9.873  1.00  0.00     0.125 HD
ENDBRANCH  13  17
ENDBRANCH   3   5
ENDBRANCH   2   3
ENDBRANCH   1   2
BRANCH   1  20
HETATM   20  C   UNL     1      43.022 -12.178   5.680  1.00  0.00     0.196 A 
HETATM   21  N   UNL     1      42.400 -13.300   5.162  1.00  0.00    -0.274 N 
HETATM   22  C   UNL     1      41.469 -12.782   4.259  1.00  0.00     0.166 A 
HETATM   23  N   UNL     1      41.571 -11.467   4.242  1.00  0.00    -0.131 NA
HETATM   24  N   UNL     1      42.538 -11.092   5.125  1.00  0.00    -0.122 NA
BRANCH  21  25
HETATM   25  C   UNL     1      42.618 -14.660   5.496  1.00  0.00     0.043 A 
HETATM   26  C   UNL     1      43.299 -15.496   4.600  1.00  0.00     0.032 A 
HETATM   27  C   UNL     1      43.531 -16.833   4.930  1.00  0.00     0.026 A 
HETATM   28  C   UNL     1      43.080 -17.335   6.148  1.00  0.00     0.034 A 
HETATM   29 CL   UNL     1      43.366 -18.980   6.554  1.00  0.00    -0.084 Cl
HETATM   30  C   UNL     1      42.392 -16.511   7.039  1.00  0.00     0.026 A 
HETATM   31  C   UNL     1      42.158 -15.170   6.717  1.00  0.00     0.032 A 
ENDBRANCH  21  25
BRANCH  22  32
HETATM   32  C   UNL     1      40.430 -13.562   3.508  1.00  0.00     0.254 C 
HETATM   33  C   UNL     1      39.196 -12.716   3.180  1.00  0.00     0.049 C 
BRANCH  32  34
HETATM   34  N   UNL     1      40.928 -14.230   2.202  1.00  0.00    -0.068 N 
HETATM   35  H   UNL     1      41.936 -14.378   2.330  1.00  0.00     0.279 HD
HETATM   36  C   UNL     1      40.347 -15.589   1.900  1.00  0.00     0.270 C 
HETATM   37  C   UNL     1      40.793 -13.320   1.006  1.00  0.00     0.270 C 
ENDBRANCH  32  34
ENDBRANCH  22  32
ENDBRANCH   1  20
TORSDOF 10
ENDMDL
MODEL 7
REMARK VINA RESULT:      -6.7      4.243      6.547
REMARK  10 active torsions:
REMARK  status: ('A' for Active; 'I' for Inactive)
REMARK    1  A    between atoms: C_2  and  C_3 
REMARK    2  A    between atoms: C_3  and  N_4 
REMARK    3  A    between atoms: C_10  and  C_11 
REMARK    4  A    between atoms: C_11  and  C_12 
REMARK    5  A    between atoms: C_12  and  S_13 
REMARK    6  A    between atoms: S_13  and  C_14 
REMARK    7  A    between atoms: N_15  and  C_16 
REMARK    8  A    between atoms: C_23  and  C_24 
REMARK    9  A    between atoms: C_24  and  N_25 
REMARK   10  A    between atoms: C_33  and  N_34 
ROOT
HETATM    1  S   UNL     1      40.185 -10.728   4.849  1.00  0.00    -0.082 SA
ENDROOT
BRANCH   1   2
HETATM    2  C   UNL     1      39.394 -10.854   6.483  1.00  0.00     0.166 C 
BRANCH   2   3
HETATM    3  C   UNL     1      39.462  -9.518   7.215  1.00  0.00     0.177 C 
HETATM    4  O   UNL     1      38.777  -8.544   6.876  1.00  0.00    -0.291 OA
BRANCH   3   5
HETATM    5  C   UNL     1      40.355  -9.420   8.415  1.00  0.00     0.117 A 
HETATM    6  C   UNL     1      41.809  -9.258   8.238  1.00  0.00     0.266 A 
HETATM    7  N   UNL     1      42.566  -9.292   9.361  1.00  0.00    -0.274 N 
HETATM    8  O   UNL     1      42.305  -9.087   7.128  1.00  0.00    -0.267 OA
HETATM    9  C   UNL     1      42.091  -9.395  10.633  1.00  0.00     0.330 A 
HETATM   10  H   UNL     1      43.565  -9.192   9.265  1.00  0.00     0.173 HD
HETATM   11  N   UNL     1      40.706  -9.489  10.765  1.00  0.00    -0.289 N 
HETATM   12  O   UNL     1      42.888  -9.400  11.569  1.00  0.00    -0.246 OA
HETATM   13  C   UNL     1      39.839  -9.503   9.667  1.00  0.00     0.103 A 
BRANCH  11  14
HETATM   14  C   UNL     1      40.198  -9.656  12.136  1.00  0.00     0.135 C 
BRANCH  14  15
HETATM   15  C   UNL     1      40.095  -8.346  12.927  1.00  0.00     0.016 C 
HETATM   16  C   UNL     1      38.729  -7.684  12.819  1.00  0.00     0.006 C 
ENDBRANCH  14  15
ENDBRANCH  11  14
BRANCH  13  17
HETATM   17  N   UNL     1      38.466  -9.616   9.871  1.00  0.00    -0.287 NA
HETATM   18  H   UNL     1      38.235  -9.752  10.863  1.00  0.00     0.125 HD
HETATM   19  H   UNL     1      38.050 -10.366   9.327  1.00  0.00     0.125 HD
ENDBRANCH  13  17
ENDBRANCH   3   5
ENDBRANCH   2   3
ENDBRANCH   1   2
BRANCH   1  20
HETATM   20  C   UNL     1      40.550 -12.392   4.538  1.00  0.00     0.196 A 
HETATM   21  N   UNL     1      41.777 -12.988   4.765  1.00  0.00    -0.274 N 
HETATM   22  C   UNL     1      41.640 -14.264   4.214  1.00  0.00     0.166 A 
HETATM   23  N   UNL     1      40.435 -14.378   3.688  1.00  0.00    -0.131 NA
HETATM   24  N   UNL     1      39.758 -13.213   3.889  1.00  0.00    -0.122 NA
BRANCH  21  25
HETATM   25  C   UNL     1      42.904 -12.453   5.438  1.00  0.00     0.043 A 
HETATM   26  C   UNL     1      43.897 -11.784   4.709  1.00  0.00     0.032 A 
HETATM   27  C   UNL     1      45.003 -11.241   5.368  1.00  0.00     0.026 A 
HETATM   28  C   UNL     1      45.118 -11.370   6.749  1.00  0.00     0.034 A 
HETATM   29 CL   UNL     1      46.478 -10.701   7.561  1.00  0.00    -0.084 Cl
HETATM   30  C   UNL     1      44.139 -12.044   7.479  1.00  0.00     0.026 A 
HETATM   31  C   UNL     1      43.028 -12.589   6.827  1.00  0.00     0.032 A 
ENDBRANCH  21  25
BRANCH  22  32
HETATM   32  C   UNL     1      42.637 -15.382   4.298  1.00  0.00     0.254 C 
HETATM   33  C   UNL     1      42.061 -16.622   4.988  1.00  0.00     0.049 C 
BRANCH  32  34
HETATM   34  N   UNL     1      43.251 -15.815   2.943  1.00  0.00    -0.068 N 
HETATM   35  H   UNL     1      44.196 -16.155   3.159  1.00  0.00     0.279 HD
HETATM   36  C   UNL     1      42.552 -16.955   2.243  1.00  0.00     0.270 C 
HETATM   37  C   UNL     1      43.437 -14.652   2.000  1.00  0.00     0.270 C 
ENDBRANCH  32  34
ENDBRANCH  22  32
ENDBRANCH   1  20
TORSDOF 10
ENDMDL
MODEL 8
REMARK VINA RESULT:      -6.7      4.196      6.262
REMARK  10 active torsions:
REMARK  status: ('A' for Active; 'I' for Inactive)
REMARK    1  A    between atoms: C_2  and  C_3 
REMARK    2  A    between atoms: C_3  and  N_4 
REMARK    3  A    between atoms: C_10  and  C_11 
REMARK    4  A    between atoms: C_11  and  C_12 
REMARK    5  A    between atoms: C_12  and  S_13 
REMARK    6  A    between atoms: S_13  and  C_14 
REMARK    7  A    between atoms: N_15  and  C_16 
REMARK    8  A    between atoms: C_23  and  C_24 
REMARK    9  A    between atoms: C_24  and  N_25 
REMARK   10  A    between atoms: C_33  and  N_34 
ROOT
HETATM    1  S   UNL     1      40.278 -10.637   5.090  1.00  0.00    -0.082 SA
ENDROOT
BRANCH   1   2
HETATM    2  C   UNL     1      39.244 -10.817   6.577  1.00  0.00     0.166 C 
BRANCH   2   3
HETATM    3  C   UNL     1      39.283  -9.542   7.413  1.00  0.00     0.177 C 
HETATM    4  O   UNL     1      38.882  -8.455   6.977  1.00  0.00    -0.291 OA
BRANCH   3   5
HETATM    5  C   UNL     1      39.775  -9.644   8.824  1.00  0.00     0.117 A 
HETATM    6  C   UNL     1      39.021 -10.439   9.810  1.00  0.00     0.266 A 
HETATM    7  N   UNL     1      39.460 -10.393  11.092  1.00  0.00    -0.274 N 
HETATM    8  O   UNL     1      38.054 -11.120   9.481  1.00  0.00    -0.267 OA
HETATM    9  C   UNL     1      40.569  -9.732  11.526  1.00  0.00     0.330 A 
HETATM   10  H   UNL     1      38.956 -10.923  11.786  1.00  0.00     0.173 HD
HETATM   11  N   UNL     1      41.289  -9.039  10.555  1.00  0.00    -0.289 N 
HETATM   12  O   UNL     1      40.865  -9.784  12.717  1.00  0.00    -0.246 OA
HETATM   13  C   UNL     1      40.898  -8.989   9.212  1.00  0.00     0.103 A 
BRANCH  11  14
HETATM   14  C   UNL     1      42.455  -8.280  11.034  1.00  0.00     0.135 C 
BRANCH  14  15
HETATM   15  C   UNL     1      43.697  -9.142  11.292  1.00  0.00     0.016 C 
HETATM   16  C   UNL     1      44.633  -9.221  10.096  1.00  0.00     0.006 C 
ENDBRANCH  14  15
ENDBRANCH  11  14
BRANCH  13  17
HETATM   17  N   UNL     1      41.656  -8.262   8.297  1.00  0.00    -0.287 NA
HETATM   18  H   UNL     1      41.917  -8.826   7.479  1.00  0.00     0.125 HD
HETATM   19  H   UNL     1      42.497  -7.870   8.712  1.00  0.00     0.125 HD
ENDBRANCH  13  17
ENDBRANCH   3   5
ENDBRANCH   2   3
ENDBRANCH   1   2
BRANCH   1  20
HETATM   20  C   UNL     1      40.621 -12.296   4.731  1.00  0.00     0.196 A 
HETATM   21  N   UNL     1      41.853 -12.902   4.894  1.00  0.00    -0.274 N 
HETATM   22  C   UNL     1      41.686 -14.166   4.325  1.00  0.00     0.166 A 
HETATM   23  N   UNL     1      40.459 -14.265   3.849  1.00  0.00    -0.131 NA
HETATM   24  N   UNL     1      39.797 -13.101   4.102  1.00  0.00    -0.122 NA
BRANCH  21  25
HETATM   25  C   UNL     1      43.011 -12.384   5.527  1.00  0.00     0.043 A 
HETATM   26  C   UNL     1      44.038 -11.826   4.753  1.00  0.00     0.032 A 
HETATM   27  C   UNL     1      45.174 -11.300   5.372  1.00  0.00     0.026 A 
HETATM   28  C   UNL     1      45.287 -11.337   6.759  1.00  0.00     0.034 A 
HETATM   29 CL   UNL     1      46.685 -10.690   7.521  1.00  0.00    -0.084 Cl
HETATM   30  C   UNL     1      44.274 -11.901   7.534  1.00  0.00     0.026 A 
HETATM   31  C   UNL     1      43.132 -12.427   6.922  1.00  0.00     0.032 A 
ENDBRANCH  21  25
BRANCH  22  32
HETATM   32  C   UNL     1      42.681 -15.289   4.344  1.00  0.00     0.254 C 
HETATM   33  C   UNL     1      42.165 -16.506   5.119  1.00  0.00     0.049 C 
BRANCH  32  34
HETATM   34  N   UNL     1      43.162 -15.762   2.950  1.00  0.00    -0.068 N 
HETATM   35  H   UNL     1      44.094 -16.167   3.098  1.00  0.00     0.279 HD
HETATM   36  C   UNL     1      42.336 -16.850   2.308  1.00  0.00     0.270 C 
HETATM   37  C   UNL     1      43.358 -14.614   1.992  1.00  0.00     0.270 C 
ENDBRANCH  32  34
ENDBRANCH  22  32
ENDBRANCH   1  20
TORSDOF 10
ENDMDL
MODEL 9
REMARK VINA RESULT:      -6.6      3.309      4.790
REMARK  10 active torsions:
REMARK  status: ('A' for Active; 'I' for Inactive)
REMARK    1  A    between atoms: C_2  and  C_3 
REMARK    2  A    between atoms: C_3  and  N_4 
REMARK    3  A    between atoms: C_10  and  C_11 
REMARK    4  A    between atoms: C_11  and  C_12 
REMARK    5  A    between atoms: C_12  and  S_13 
REMARK    6  A    between atoms: S_13  and  C_14 
REMARK    7  A    between atoms: N_15  and  C_16 
REMARK    8  A    between atoms: C_23  and  C_24 
REMARK    9  A    between atoms: C_24  and  N_25 
REMARK   10  A    between atoms: C_33  and  N_34 
ROOT
HETATM    1  S   UNL     1      39.935 -13.317   3.608  1.00  0.00    -0.082 SA
ENDROOT
BRANCH   1   2
HETATM    2  C   UNL     1      41.462 -12.336   3.738  1.00  0.00     0.166 C 
BRANCH   2   3
HETATM    3  C   UNL     1      42.688 -13.230   3.586  1.00  0.00     0.177 C 
HETATM    4  O   UNL     1      43.485 -13.102   2.647  1.00  0.00    -0.291 OA
BRANCH   3   5
HETATM    5  C   UNL     1      42.945 -14.255   4.648  1.00  0.00     0.117 A 
HETATM    6  C   UNL     1      43.319 -13.826   6.008  1.00  0.00     0.266 A 
HETATM    7  N   UNL     1      43.649 -14.806   6.885  1.00  0.00    -0.274 N 
HETATM    8  O   UNL     1      43.318 -12.642   6.330  1.00  0.00    -0.267 OA
HETATM    9  C   UNL     1      43.597 -16.143   6.634  1.00  0.00     0.330 A 
HETATM   10  H   UNL     1      43.916 -14.537   7.819  1.00  0.00     0.173 HD
HETATM   11  N   UNL     1      43.184 -16.512   5.355  1.00  0.00    -0.289 N 
HETATM   12  O   UNL     1      43.909 -16.929   7.525  1.00  0.00    -0.246 OA
HETATM   13  C   UNL     1      42.860 -15.578   4.364  1.00  0.00     0.103 A 
BRANCH  11  14
HETATM   14  C   UNL     1      43.182 -17.956   5.068  1.00  0.00     0.135 C 
BRANCH  14  15
HETATM   15  C   UNL     1      44.372 -18.424   4.222  1.00  0.00     0.016 C 
HETATM   16  C   UNL     1      43.964 -19.272   3.027  1.00  0.00     0.006 C 
ENDBRANCH  14  15
ENDBRANCH  11  14
BRANCH  13  17
HETATM   17  N   UNL     1      42.470 -16.018   3.101  1.00  0.00    -0.287 NA
HETATM   18  H   UNL     1      41.462 -16.211   3.055  1.00  0.00     0.125 HD
HETATM   19  H   UNL     1      42.980 -16.843   2.800  1.00  0.00     0.125 HD
ENDBRANCH  13  17
ENDBRANCH   3   5
ENDBRANCH   2   3
ENDBRANCH   1   2
BRANCH   1  20
HETATM   20  C   UNL     1      39.961 -13.733   1.927  1.00  0.00     0.196 A 
HETATM   21  N   UNL     1      39.467 -12.939   0.908  1.00  0.00    -0.274 N 
HETATM   22  C   UNL     1      39.553 -13.750  -0.225  1.00  0.00     0.166 A 
HETATM   23  N   UNL     1      40.034 -14.928   0.125  1.00  0.00    -0.131 NA
HETATM   24  N   UNL     1      40.287 -14.917   1.464  1.00  0.00    -0.122 NA
BRANCH  21  25
HETATM   25  C   UNL     1      39.017 -11.596   0.979  1.00  0.00     0.043 A 
HETATM   26  C   UNL     1      39.927 -10.546   0.798  1.00  0.00     0.032 A 
HETATM   27  C   UNL     1      39.487  -9.222   0.852  1.00  0.00     0.026 A 
HETATM   28  C   UNL     1      38.143  -8.947   1.090  1.00  0.00     0.034 A 
HETATM   29 CL   UNL     1      37.600  -7.318   1.155  1.00  0.00    -0.084 Cl
HETATM   30  C   UNL     1      37.234  -9.988   1.281  1.00  0.00     0.026 A 
HETATM   31  C   UNL     1      37.666 -11.317   1.227  1.00  0.00     0.032 A 
ENDBRANCH  21  25
BRANCH  22  32
HETATM   32  C   UNL     1      39.267 -13.338  -1.639  1.00  0.00     0.254 C 
HETATM   33  C   UNL     1      40.451 -13.610  -2.573  1.00  0.00     0.049 C 
BRANCH  32  34
HETATM   34  N   UNL     1      37.996 -13.968  -2.261  1.00  0.00    -0.068 N 
HETATM   35  H   UNL     1      37.559 -14.516  -1.511  1.00  0.00     0.279 HD
HETATM   36  C   UNL     1      36.943 -12.993  -2.728  1.00  0.00     0.270 C 
HETATM   37  C   UNL     1      38.323 -14.955  -3.355  1.00  0.00     0.270 C 
ENDBRANCH  32  34
ENDBRANCH  22  32
ENDBRANCH   1  20
TORSDOF 10
ENDMDL
MODEL 10
REMARK VINA RESULT:      -6.5      2.895      4.115
REMARK  10 active torsions:
REMARK  status: ('A' for Active; 'I' for Inactive)
REMARK    1  A    between atoms: C_2  and  C_3 
REMARK    2  A    between atoms: C_3  and  N_4 
REMARK    3  A    between atoms: C_10  and  C_11 
REMARK    4  A    between atoms: C_11  and  C_12 
REMARK    5  A    between atoms: C_12  and  S_13 
REMARK    6  A    between atoms: S_13  and  C_14 
REMARK    7  A    between atoms: N_15  and  C_16 
REMARK    8  A    between atoms: C_23  and  C_24 
REMARK    9  A    between atoms: C_24  and  N_25 
REMARK   10  A    between atoms: C_33  and  N_34 
ROOT
HETATM    1  S   UNL     1      39.809 -12.842   4.515  1.00  0.00    -0.082 SA
ENDROOT
BRANCH   1   2
HETATM    2  C   UNL     1      41.124 -11.620   4.818  1.00  0.00     0.166 C 
BRANCH   2   3
HETATM    3  C   UNL     1      40.532 -10.315   5.340  1.00  0.00     0.177 C 
HETATM    4  O   UNL     1      40.108  -9.433   4.582  1.00  0.00    -0.291 OA
BRANCH   3   5
HETATM    5  C   UNL     1      40.420 -10.139   6.824  1.00  0.00     0.117 A 
HETATM    6  C   UNL     1      39.174 -10.513   7.516  1.00  0.00     0.266 A 
HETATM    7  N   UNL     1      39.101 -10.220   8.838  1.00  0.00    -0.274 N 
HETATM    8  O   UNL     1      38.255 -11.074   6.926  1.00  0.00    -0.267 OA
HETATM    9  C   UNL     1      40.102  -9.677   9.584  1.00  0.00     0.330 A 
HETATM   10  H   UNL     1      38.255 -10.459   9.332  1.00  0.00     0.173 HD
HETATM   11  N   UNL     1      41.286  -9.390   8.907  1.00  0.00    -0.289 N 
HETATM   12  O   UNL     1      39.911  -9.475  10.781  1.00  0.00    -0.246 OA
HETATM   13  C   UNL     1      41.449  -9.616   7.536  1.00  0.00     0.103 A 
BRANCH  11  14
HETATM   14  C   UNL     1      42.347  -8.751   9.703  1.00  0.00     0.135 C 
BRANCH  14  15
HETATM   15  C   UNL     1      43.275  -9.743  10.415  1.00  0.00     0.016 C 
HETATM   16  C   UNL     1      44.751  -9.442  10.206  1.00  0.00     0.006 C 
ENDBRANCH  14  15
ENDBRANCH  11  14
BRANCH  13  17
HETATM   17  N   UNL     1      42.655  -9.290   6.919  1.00  0.00    -0.287 NA
HETATM   18  H   UNL     1      43.265 -10.109   6.811  1.00  0.00     0.125 HD
HETATM   19  H   UNL     1      43.162  -8.561   7.415  1.00  0.00     0.125 HD
ENDBRANCH  13  17
ENDBRANCH   3   5
ENDBRANCH   2   3
ENDBRANCH   1   2
BRANCH   1  20
HETATM   20  C   UNL     1      39.588 -12.662   2.807  1.00  0.00     0.196 A 
HETATM   21  N   UNL     1      40.260 -13.390   1.842  1.00  0.00    -0.274 N 
HETATM   22  C   UNL     1      39.882 -12.787   0.641  1.00  0.00     0.166 A 
HETATM   23  N   UNL     1      39.078 -11.774   0.902  1.00  0.00    -0.131 NA
HETATM   24  N   UNL     1      38.896 -11.696   2.250  1.00  0.00    -0.122 NA
BRANCH  21  25
HETATM   25  C   UNL     1      41.104 -14.516   2.017  1.00  0.00     0.043 A 
HETATM   26  C   UNL     1      42.493 -14.368   1.903  1.00  0.00     0.032 A 
HETATM   27  C   UNL     1      43.331 -15.470   2.090  1.00  0.00     0.026 A 
HETATM   28  C   UNL     1      42.782 -16.716   2.385  1.00  0.00     0.034 A 
HETATM   29 CL   UNL     1      43.813 -18.071   2.616  1.00  0.00    -0.084 Cl
HETATM   30  C   UNL     1      41.400 -16.870   2.490  1.00  0.00     0.026 A 
HETATM   31  C   UNL     1      40.555 -15.772   2.306  1.00  0.00     0.032 A 
ENDBRANCH  21  25
BRANCH  22  32
HETATM   32  C   UNL     1      40.223 -13.264  -0.741  1.00  0.00     0.254 C 
HETATM   33  C   UNL     1      39.449 -14.529  -1.124  1.00  0.00     0.049 C 
BRANCH  32  34
HETATM   34  N   UNL     1      40.033 -12.213  -1.863  1.00  0.00    -0.068 N 
HETATM   35  H   UNL     1      39.916 -11.312  -1.386  1.00  0.00     0.279 HD
HETATM   36  C   UNL     1      41.204 -12.037  -2.798  1.00  0.00     0.270 C 
HETATM   37  C   UNL     1      38.762 -12.434  -2.645  1.00  0.00     0.270 C 
ENDBRANCH  32  34
ENDBRANCH  22  32
ENDBRANCH   1  20
TORSDOF 10
ENDMDL
