MODEL 1
REMARK VINA RESULT:      -8.8      0.000      0.000
REMARK  10 active torsions:
REMARK  status: ('A' for Active; 'I' for Inactive)
REMARK    1  A    between atoms: C_2  and  O_3 
REMARK    2  A    between atoms: O_3  and  C_4 
REMARK    3  A    between atoms: C_7  and  C_8 
REMARK    4  A    between atoms: C_8  and  C_9 
REMARK    5  A    between atoms: C_10  and  C_11 
REMARK    6  A    between atoms: C_13  and  N_14 
REMARK    7  A    between atoms: N_20  and  C_21 
REMARK    8  A    between atoms: C_21  and  C_22 
REMARK    9  A    between atoms: C_22  and  N_23 
REMARK   10  A    between atoms: C_34  and  O_35 
ROOT
HETATM    1  C   UNL     1      41.984 -13.603   6.120  1.00  0.00     0.059 C 
HETATM    2  C   UNL     1      42.755 -12.491   5.496  1.00  0.00     0.161 C 
HETATM    3  N   UNL     1      41.683 -11.579   5.133  1.00  0.00    -0.332 N 
HETATM    4  C   UNL     1      40.448 -12.202   5.244  1.00  0.00     0.278 C 
HETATM    5  O   UNL     1      39.447 -11.840   4.646  1.00  0.00    -0.265 OA
HETATM    6  C   UNL     1      40.657 -13.441   6.028  1.00  0.00     0.146 C 
ENDROOT
BRANCH   1   7
HETATM    7  C   UNL     1      42.557 -14.879   6.586  1.00  0.00     0.193 C 
HETATM    8  O   UNL     1      42.438 -15.245   7.745  1.00  0.00    -0.287 OA
BRANCH   7   9
HETATM    9  C   UNL     1      43.068 -15.769   5.529  1.00  0.00     0.015 A 
HETATM   10  C   UNL     1      42.430 -15.864   4.292  1.00  0.00     0.018 A 
HETATM   11  C   UNL     1      42.808 -16.874   3.401  1.00  0.00     0.038 A 
HETATM   12  C   UNL     1      43.822 -17.770   3.748  1.00  0.00     0.069 A 
HETATM   13  C   UNL     1      44.511 -17.607   4.954  1.00  0.00     0.038 A 
HETATM   14  C   UNL     1      44.131 -16.615   5.854  1.00  0.00     0.018 A 
BRANCH  12  15
HETATM   15  O   UNL     1      44.261 -18.806   2.976  1.00  0.00    -0.347 OA
BRANCH  15  16
HETATM   16  C   UNL     1      43.438 -19.977   2.886  1.00  0.00     0.120 C 
HETATM   17  C   UNL     1      43.912 -21.026   3.892  1.00  0.00     0.040 C 
HETATM   18  C   UNL     1      43.593 -20.511   1.465  1.00  0.00     0.040 C 
ENDBRANCH  15  16
ENDBRANCH  12  15
ENDBRANCH   7   9
ENDBRANCH   1   7
BRANCH   2  19
HETATM   19  C   UNL     1      43.818 -11.805   6.322  1.00  0.00    -0.028 A 
HETATM   20  C   UNL     1      43.484 -11.373   7.618  1.00  0.00     0.045 A 
HETATM   21  C   UNL     1      44.452 -10.786   8.447  1.00  0.00     0.103 A 
HETATM   22  C   UNL     1      45.756 -10.596   7.992  1.00  0.00     0.036 A 
HETATM   23  C   UNL     1      46.092 -11.016   6.704  1.00  0.00     0.003 A 
HETATM   24  C   UNL     1      45.137 -11.626   5.879  1.00  0.00     0.010 A 
BRANCH  21  25
HETATM   25  N   UNL     1      44.079 -10.415   9.815  1.00  0.00    -0.116 N 
HETATM   26  O   UNL     1      44.857 -10.763  10.720  1.00  0.00    -0.532 OA
HETATM   27  O   UNL     1      43.037  -9.774   9.979  1.00  0.00    -0.532 OA
ENDBRANCH  21  25
ENDBRANCH   2  19
BRANCH   6  28
HETATM   28  O   UNL     1      39.666 -14.307   6.381  1.00  0.00    -0.355 OA
HETATM   29  H   UNL     1      39.303 -14.017   7.251  1.00  0.00     0.218 HD
ENDBRANCH   6  28
BRANCH   3  30
HETATM   30  C   UNL     1      41.860 -10.419   4.280  1.00  0.00     0.155 C 
BRANCH  30  31
HETATM   31  C   UNL     1      42.012 -10.813   2.799  1.00  0.00     0.254 C 
BRANCH  31  32
HETATM   32  N   UNL     1      40.727 -10.609   1.999  1.00  0.00    -0.066 N 
HETATM   33  H   UNL     1      40.002 -10.367   2.697  1.00  0.00     0.280 HD
HETATM   34  C   UNL     1      40.220 -11.876   1.282  1.00  0.00     0.262 C 
HETATM   35  C   UNL     1      41.051 -12.203   0.016  1.00  0.00     0.260 C 
HETATM   36  N   UNL     1      41.153 -10.992  -0.892  1.00  0.00    -0.072 N 
HETATM   37  H   UNL     1      40.249 -10.821  -1.364  1.00  0.00     0.277 HD
HETATM   38  H   UNL     1      41.794 -11.227  -1.671  1.00  0.00     0.277 HD
HETATM   39  C   UNL     1      41.647  -9.739  -0.214  1.00  0.00     0.260 C 
HETATM   40  C   UNL     1      40.806  -9.414   1.045  1.00  0.00     0.262 C 
ENDBRANCH  31  32
ENDBRANCH  30  31
ENDBRANCH   3  30
TORSDOF 10
ENDMDL
MODEL 2
REMARK VINA RESULT:      -8.6      2.643      5.365
REMARK  10 active torsions:
REMARK  status: ('A' for Active; 'I' for Inactive)
REMARK    1  A    between atoms: C_2  and  O_3 
REMARK    2  A    between atoms: O_3  and  C_4 
REMARK    3  A    between atoms: C_7  and  C_8 
REMARK    4  A    between atoms: C_8  and  C_9 
REMARK    5  A    between atoms: C_10  and  C_11 
REMARK    6  A    between atoms: C_13  and  N_14 
REMARK    7  A    between atoms: N_20  and  C_21 
REMARK    8  A    between atoms: C_21  and  C_22 
REMARK    9  A    between atoms: C_22  and  N_23 
REMARK   10  A    between atoms: C_34  and  O_35 
ROOT
HETATM    1  C   UNL     1      41.019 -12.106   3.362  1.00  0.00     0.059 C 
HETATM    2  C   UNL     1      41.646 -12.266   4.705  1.00  0.00     0.161 C 
HETATM    3  N   UNL     1      40.975 -11.216   5.452  1.00  0.00    -0.332 N 
HETATM    4  C   UNL     1      40.286 -10.367   4.598  1.00  0.00     0.278 C 
HETATM    5  O   UNL     1      39.983  -9.218   4.880  1.00  0.00    -0.265 OA
HETATM    6  C   UNL     1      40.200 -11.048   3.286  1.00  0.00     0.146 C 
ENDROOT
BRANCH   1   7
HETATM    7  C   UNL     1      41.403 -12.851   2.149  1.00  0.00     0.193 C 
HETATM    8  O   UNL     1      41.589 -12.280   1.085  1.00  0.00    -0.287 OA
BRANCH   7   9
HETATM    9  C   UNL     1      41.764 -14.263   2.358  1.00  0.00     0.015 A 
HETATM   10  C   UNL     1      43.079 -14.703   2.211  1.00  0.00     0.018 A 
HETATM   11  C   UNL     1      43.346 -16.076   2.200  1.00  0.00     0.038 A 
HETATM   12  C   UNL     1      42.302 -16.994   2.344  1.00  0.00     0.069 A 
HETATM   13  C   UNL     1      41.002 -16.536   2.579  1.00  0.00     0.038 A 
HETATM   14  C   UNL     1      40.724 -15.170   2.576  1.00  0.00     0.018 A 
BRANCH  12  15
HETATM   15  O   UNL     1      42.433 -18.351   2.326  1.00  0.00    -0.347 OA
BRANCH  15  16
HETATM   16  C   UNL     1      43.726 -18.909   2.598  1.00  0.00     0.120 C 
HETATM   17  C   UNL     1      43.793 -20.346   2.084  1.00  0.00     0.040 C 
HETATM   18  C   UNL     1      43.899 -18.889   4.114  1.00  0.00     0.040 C 
ENDBRANCH  15  16
ENDBRANCH  12  15
ENDBRANCH   7   9
ENDBRANCH   1   7
BRANCH   2  19
HETATM   19  C   UNL     1      41.532 -13.605   5.393  1.00  0.00    -0.028 A 
HETATM   20  C   UNL     1      42.714 -14.307   5.693  1.00  0.00     0.045 A 
HETATM   21  C   UNL     1      42.665 -15.525   6.386  1.00  0.00     0.103 A 
HETATM   22  C   UNL     1      41.443 -16.079   6.766  1.00  0.00     0.036 A 
HETATM   23  C   UNL     1      40.266 -15.391   6.464  1.00  0.00     0.003 A 
HETATM   24  C   UNL     1      40.309 -14.160   5.795  1.00  0.00     0.010 A 
BRANCH  21  25
HETATM   25  N   UNL     1      43.925 -16.188   6.740  1.00  0.00    -0.116 N 
HETATM   26  O   UNL     1      44.863 -16.070   5.933  1.00  0.00    -0.532 OA
HETATM   27  O   UNL     1      43.978 -16.798   7.811  1.00  0.00    -0.532 OA
ENDBRANCH  21  25
ENDBRANCH   2  19
BRANCH   6  28
HETATM   28  O   UNL     1      39.559 -10.542   2.195  1.00  0.00    -0.355 OA
HETATM   29  H   UNL     1      38.938 -11.231   1.860  1.00  0.00     0.218 HD
ENDBRANCH   6  28
BRANCH   3  30
HETATM   30  C   UNL     1      41.378 -10.779   6.776  1.00  0.00     0.155 C 
BRANCH  30  31
HETATM   31  C   UNL     1      42.830 -10.267   6.793  1.00  0.00     0.254 C 
BRANCH  31  32
HETATM   32  N   UNL     1      43.708 -11.015   7.794  1.00  0.00    -0.066 N 
HETATM   33  H   UNL     1      43.061 -11.615   8.336  1.00  0.00     0.280 HD
HETATM   34  C   UNL     1      44.408 -10.107   8.824  1.00  0.00     0.262 C 
HETATM   35  C   UNL     1      45.613  -9.350   8.213  1.00  0.00     0.260 C 
HETATM   36  N   UNL     1      46.555 -10.308   7.510  1.00  0.00    -0.072 N 
HETATM   37  H   UNL     1      47.083 -10.864   8.204  1.00  0.00     0.277 HD
HETATM   38  H   UNL     1      47.288  -9.751   7.036  1.00  0.00     0.277 HD
HETATM   39  C   UNL     1      45.894 -11.208   6.496  1.00  0.00     0.260 C 
HETATM   40  C   UNL     1      44.697 -11.969   7.118  1.00  0.00     0.262 C 
ENDBRANCH  31  32
ENDBRANCH  30  31
ENDBRANCH   3  30
TORSDOF 10
ENDMDL
MODEL 3
REMARK VINA RESULT:      -8.5      1.887      3.072
REMARK  10 active torsions:
REMARK  status: ('A' for Active; 'I' for Inactive)
REMARK    1  A    between atoms: C_2  and  O_3 
REMARK    2  A    between atoms: O_3  and  C_4 
REMARK    3  A    between atoms: C_7  and  C_8 
REMARK    4  A    between atoms: C_8  and  C_9 
REMARK    5  A    between atoms: C_10  and  C_11 
REMARK    6  A    between atoms: C_13  and  N_14 
REMARK    7  A    between atoms: N_20  and  C_21 
REMARK    8  A    between atoms: C_21  and  C_22 
REMARK    9  A    between atoms: C_22  and  N_23 
REMARK   10  A    between atoms: C_34  and  O_35 
ROOT
HETATM    1  C   UNL     1      42.019 -13.665   6.215  1.00  0.00     0.059 C 
HETATM    2  C   UNL     1      42.767 -12.519   5.625  1.00  0.00     0.161 C 
HETATM    3  N   UNL     1      41.675 -11.631   5.263  1.00  0.00    -0.332 N 
HETATM    4  C   UNL     1      40.457 -12.291   5.342  1.00  0.00     0.278 C 
HETATM    5  O   UNL     1      39.455 -11.946   4.736  1.00  0.00    -0.265 OA
HETATM    6  C   UNL     1      40.690 -13.539   6.105  1.00  0.00     0.146 C 
ENDROOT
BRANCH   1   7
HETATM    7  C   UNL     1      42.622 -14.933   6.664  1.00  0.00     0.193 C 
HETATM    8  O   UNL     1      42.533 -15.303   7.825  1.00  0.00    -0.287 OA
BRANCH   7   9
HETATM    9  C   UNL     1      43.123 -15.813   5.594  1.00  0.00     0.015 A 
HETATM   10  C   UNL     1      42.503 -15.858   4.346  1.00  0.00     0.018 A 
HETATM   11  C   UNL     1      42.866 -16.857   3.435  1.00  0.00     0.038 A 
HETATM   12  C   UNL     1      43.846 -17.792   3.777  1.00  0.00     0.069 A 
HETATM   13  C   UNL     1      44.519 -17.680   4.997  1.00  0.00     0.038 A 
HETATM   14  C   UNL     1      44.154 -16.698   5.916  1.00  0.00     0.018 A 
BRANCH  12  15
HETATM   15  O   UNL     1      44.266 -18.822   2.987  1.00  0.00    -0.347 OA
BRANCH  15  16
HETATM   16  C   UNL     1      43.444 -19.994   2.911  1.00  0.00     0.120 C 
HETATM   17  C   UNL     1      43.947 -21.049   3.897  1.00  0.00     0.040 C 
HETATM   18  C   UNL     1      43.561 -20.518   1.483  1.00  0.00     0.040 C 
ENDBRANCH  15  16
ENDBRANCH  12  15
ENDBRANCH   7   9
ENDBRANCH   1   7
BRANCH   2  19
HETATM   19  C   UNL     1      43.797 -11.820   6.480  1.00  0.00    -0.028 A 
HETATM   20  C   UNL     1      43.424 -11.401   7.770  1.00  0.00     0.045 A 
HETATM   21  C   UNL     1      44.360 -10.802   8.626  1.00  0.00     0.103 A 
HETATM   22  C   UNL     1      45.672 -10.587   8.205  1.00  0.00     0.036 A 
HETATM   23  C   UNL     1      46.047 -10.994   6.923  1.00  0.00     0.003 A 
HETATM   24  C   UNL     1      45.123 -11.616   6.071  1.00  0.00     0.010 A 
BRANCH  21  25
HETATM   25  N   UNL     1      43.947 -10.445   9.987  1.00  0.00    -0.116 N 
HETATM   26  O   UNL     1      42.928  -9.741  10.093  1.00  0.00    -0.532 OA
HETATM   27  O   UNL     1      44.619 -10.873  10.928  1.00  0.00    -0.532 OA
ENDBRANCH  21  25
ENDBRANCH   2  19
BRANCH   6  28
HETATM   28  O   UNL     1      39.718 -14.440   6.426  1.00  0.00    -0.355 OA
HETATM   29  H   UNL     1      39.648 -15.088   5.687  1.00  0.00     0.218 HD
ENDBRANCH   6  28
BRANCH   3  30
HETATM   30  C   UNL     1      41.831 -10.449   4.435  1.00  0.00     0.155 C 
BRANCH  30  31
HETATM   31  C   UNL     1      41.583  -9.155   5.230  1.00  0.00     0.254 C 
BRANCH  31  32
HETATM   32  N   UNL     1      40.292  -9.201   6.045  1.00  0.00    -0.066 N 
HETATM   33  H   UNL     1      39.927 -10.162   5.931  1.00  0.00     0.280 HD
HETATM   34  C   UNL     1      39.184  -8.262   5.529  1.00  0.00     0.262 C 
HETATM   35  C   UNL     1      39.455  -6.781   5.893  1.00  0.00     0.260 C 
HETATM   36  N   UNL     1      39.734  -6.631   7.376  1.00  0.00    -0.072 N 
HETATM   37  H   UNL     1      38.861  -6.746   7.918  1.00  0.00     0.277 HD
HETATM   38  H   UNL     1      40.004  -5.647   7.556  1.00  0.00     0.277 HD
HETATM   39  C   UNL     1      40.815  -7.538   7.907  1.00  0.00     0.260 C 
HETATM   40  C   UNL     1      40.532  -9.018   7.546  1.00  0.00     0.262 C 
ENDBRANCH  31  32
ENDBRANCH  30  31
ENDBRANCH   3  30
TORSDOF 10
ENDMDL
MODEL 4
REMARK VINA RESULT:      -8.4      2.852      5.239
REMARK  10 active torsions:
REMARK  status: ('A' for Active; 'I' for Inactive)
REMARK    1  A    between atoms: C_2  and  O_3 
REMARK    2  A    between atoms: O_3  and  C_4 
REMARK    3  A    between atoms: C_7  and  C_8 
REMARK    4  A    between atoms: C_8  and  C_9 
REMARK    5  A    between atoms: C_10  and  C_11 
REMARK    6  A    between atoms: C_13  and  N_14 
REMARK    7  A    between atoms: N_20  and  C_21 
REMARK    8  A    between atoms: C_21  and  C_22 
REMARK    9  A    between atoms: C_22  and  N_23 
REMARK   10  A    between atoms: C_34  and  O_35 
ROOT
HETATM    1  C   UNL     1      40.030 -12.828   0.609  1.00  0.00     0.059 C 
HETATM    2  C   UNL     1      40.995 -11.917   1.285  1.00  0.00     0.161 C 
HETATM    3  N   UNL     1      40.250 -10.668   1.280  1.00  0.00    -0.332 N 
HETATM    4  C   UNL     1      39.144 -10.759   0.448  1.00  0.00     0.278 C 
HETATM    5  O   UNL     1      38.588  -9.794  -0.054  1.00  0.00    -0.265 OA
HETATM    6  C   UNL     1      38.937 -12.197   0.157  1.00  0.00     0.146 C 
ENDROOT
BRANCH   1   7
HETATM    7  C   UNL     1      40.299 -14.228   0.235  1.00  0.00     0.193 C 
HETATM    8  O   UNL     1      40.326 -14.581  -0.935  1.00  0.00    -0.287 OA
BRANCH   7   9
HETATM    9  C   UNL     1      40.753 -15.102   1.331  1.00  0.00     0.015 A 
HETATM   10  C   UNL     1      39.888 -15.488   2.354  1.00  0.00     0.018 A 
HETATM   11  C   UNL     1      40.405 -16.130   3.484  1.00  0.00     0.038 A 
HETATM   12  C   UNL     1      41.775 -16.386   3.578  1.00  0.00     0.069 A 
HETATM   13  C   UNL     1      42.616 -16.072   2.506  1.00  0.00     0.038 A 
HETATM   14  C   UNL     1      42.113 -15.419   1.383  1.00  0.00     0.018 A 
BRANCH  12  15
HETATM   15  O   UNL     1      42.399 -16.982   4.635  1.00  0.00    -0.347 OA
BRANCH  15  16
HETATM   16  C   UNL     1      43.826 -17.120   4.587  1.00  0.00     0.120 C 
HETATM   17  C   UNL     1      44.205 -18.599   4.532  1.00  0.00     0.040 C 
HETATM   18  C   UNL     1      44.368 -16.490   5.867  1.00  0.00     0.040 C 
ENDBRANCH  15  16
ENDBRANCH  12  15
ENDBRANCH   7   9
ENDBRANCH   1   7
BRANCH   2  19
HETATM   19  C   UNL     1      41.471 -12.280   2.672  1.00  0.00    -0.028 A 
HETATM   20  C   UNL     1      40.509 -12.506   3.672  1.00  0.00     0.045 A 
HETATM   21  C   UNL     1      40.897 -12.905   4.960  1.00  0.00     0.103 A 
HETATM   22  C   UNL     1      42.245 -13.058   5.281  1.00  0.00     0.036 A 
HETATM   23  C   UNL     1      43.206 -12.828   4.294  1.00  0.00     0.003 A 
HETATM   24  C   UNL     1      42.824 -12.454   2.998  1.00  0.00     0.010 A 
BRANCH  21  25
HETATM   25  N   UNL     1      39.857 -13.198   5.952  1.00  0.00    -0.116 N 
HETATM   26  O   UNL     1      38.976 -12.336   6.108  1.00  0.00    -0.532 OA
HETATM   27  O   UNL     1      39.914 -14.276   6.550  1.00  0.00    -0.532 OA
ENDBRANCH  21  25
ENDBRANCH   2  19
BRANCH   6  28
HETATM   28  O   UNL     1      37.918 -12.692  -0.601  1.00  0.00    -0.355 OA
HETATM   29  H   UNL     1      37.407 -13.327  -0.047  1.00  0.00     0.218 HD
ENDBRANCH   6  28
BRANCH   3  30
HETATM   30  C   UNL     1      40.825  -9.381   1.622  1.00  0.00     0.155 C 
BRANCH  30  31
HETATM   31  C   UNL     1      40.317  -8.868   2.981  1.00  0.00     0.254 C 
BRANCH  31  32
HETATM   32  N   UNL     1      41.443  -8.369   3.883  1.00  0.00    -0.066 N 
HETATM   33  H   UNL     1      42.281  -8.320   3.278  1.00  0.00     0.280 HD
HETATM   34  C   UNL     1      41.807  -9.331   5.032  1.00  0.00     0.262 C 
HETATM   35  C   UNL     1      40.766  -9.292   6.178  1.00  0.00     0.260 C 
HETATM   36  N   UNL     1      40.516  -7.868   6.636  1.00  0.00    -0.072 N 
HETATM   37  H   UNL     1      41.326  -7.519   7.177  1.00  0.00     0.277 HD
HETATM   38  H   UNL     1      39.748  -7.882   7.330  1.00  0.00     0.277 HD
HETATM   39  C   UNL     1      40.158  -6.907   5.530  1.00  0.00     0.260 C 
HETATM   40  C   UNL     1      41.209  -6.945   4.393  1.00  0.00     0.262 C 
ENDBRANCH  31  32
ENDBRANCH  30  31
ENDBRANCH   3  30
TORSDOF 10
ENDMDL
MODEL 5
REMARK VINA RESULT:      -8.2      2.683      5.664
REMARK  10 active torsions:
REMARK  status: ('A' for Active; 'I' for Inactive)
REMARK    1  A    between atoms: C_2  and  O_3 
REMARK    2  A    between atoms: O_3  and  C_4 
REMARK    3  A    between atoms: C_7  and  C_8 
REMARK    4  A    between atoms: C_8  and  C_9 
REMARK    5  A    between atoms: C_10  and  C_11 
REMARK    6  A    between atoms: C_13  and  N_14 
REMARK    7  A    between atoms: N_20  and  C_21 
REMARK    8  A    between atoms: C_21  and  C_22 
REMARK    9  A    between atoms: C_22  and  N_23 
REMARK   10  A    between atoms: C_34  and  O_35 
ROOT
HETATM    1  C   UNL     1      41.275 -11.346   3.714  1.00  0.00     0.059 C 
HETATM    2  C   UNL     1      41.953 -11.417   5.039  1.00  0.00     0.161 C 
HETATM    3  N   UNL     1      41.032 -10.653   5.864  1.00  0.00    -0.332 N 
HETATM    4  C   UNL     1      40.114  -9.973   5.076  1.00  0.00     0.278 C 
HETATM    5  O   UNL     1      39.508  -8.978   5.443  1.00  0.00    -0.265 OA
HETATM    6  C   UNL     1      40.191 -10.558   3.717  1.00  0.00     0.146 C 
ENDROOT
BRANCH   1   7
HETATM    7  C   UNL     1      41.824 -11.866   2.448  1.00  0.00     0.193 C 
HETATM    8  O   UNL     1      42.409 -11.137   1.661  1.00  0.00    -0.287 OA
BRANCH   7   9
HETATM    9  C   UNL     1      41.822 -13.333   2.310  1.00  0.00     0.015 A 
HETATM   10  C   UNL     1      40.629 -14.050   2.227  1.00  0.00     0.018 A 
HETATM   11  C   UNL     1      40.659 -15.446   2.319  1.00  0.00     0.038 A 
HETATM   12  C   UNL     1      41.878 -16.110   2.484  1.00  0.00     0.069 A 
HETATM   13  C   UNL     1      43.072 -15.382   2.477  1.00  0.00     0.038 A 
HETATM   14  C   UNL     1      43.050 -13.991   2.401  1.00  0.00     0.018 A 
BRANCH  12  15
HETATM   15  O   UNL     1      42.033 -17.459   2.609  1.00  0.00    -0.347 OA
BRANCH  15  16
HETATM   16  C   UNL     1      43.366 -17.979   2.710  1.00  0.00     0.120 C 
HETATM   17  C   UNL     1      43.439 -19.358   2.056  1.00  0.00     0.040 C 
HETATM   18  C   UNL     1      43.678 -18.092   4.200  1.00  0.00     0.040 C 
ENDBRANCH  15  16
ENDBRANCH  12  15
ENDBRANCH   7   9
ENDBRANCH   1   7
BRANCH   2  19
HETATM   19  C   UNL     1      42.234 -12.779   5.627  1.00  0.00    -0.028 A 
HETATM   20  C   UNL     1      41.162 -13.677   5.778  1.00  0.00     0.045 A 
HETATM   21  C   UNL     1      41.381 -14.976   6.262  1.00  0.00     0.103 A 
HETATM   22  C   UNL     1      42.661 -15.392   6.628  1.00  0.00     0.036 A 
HETATM   23  C   UNL     1      43.728 -14.502   6.487  1.00  0.00     0.003 A 
HETATM   24  C   UNL     1      43.521 -13.212   5.980  1.00  0.00     0.010 A 
BRANCH  21  25
HETATM   25  N   UNL     1      40.247 -15.903   6.337  1.00  0.00    -0.116 N 
HETATM   26  O   UNL     1      40.097 -16.679   5.378  1.00  0.00    -0.532 OA
HETATM   27  O   UNL     1      39.532 -15.864   7.342  1.00  0.00    -0.532 OA
ENDBRANCH  21  25
ENDBRANCH   2  19
BRANCH   6  28
HETATM   28  O   UNL     1      39.409 -10.178   2.668  1.00  0.00    -0.355 OA
HETATM   29  H   UNL     1      38.490 -10.487   2.845  1.00  0.00     0.218 HD
ENDBRANCH   6  28
BRANCH   3  30
HETATM   30  C   UNL     1      41.328 -10.214   7.214  1.00  0.00     0.155 C 
BRANCH  30  31
HETATM   31  C   UNL     1      42.798  -9.787   7.370  1.00  0.00     0.254 C 
BRANCH  31  32
HETATM   32  N   UNL     1      43.565 -10.660   8.362  1.00  0.00    -0.066 N 
HETATM   33  H   UNL     1      43.137 -11.600   8.292  1.00  0.00     0.280 HD
HETATM   34  C   UNL     1      43.408 -10.232   9.835  1.00  0.00     0.262 C 
HETATM   35  C   UNL     1      44.248  -8.974  10.171  1.00  0.00     0.260 C 
HETATM   36  N   UNL     1      45.691  -9.157   9.743  1.00  0.00    -0.072 N 
HETATM   37  H   UNL     1      46.173  -9.815  10.379  1.00  0.00     0.277 HD
HETATM   38  H   UNL     1      46.189  -8.262   9.897  1.00  0.00     0.277 HD
HETATM   39  C   UNL     1      45.872  -9.575   8.306  1.00  0.00     0.260 C 
HETATM   40  C   UNL     1      45.037 -10.839   7.980  1.00  0.00     0.262 C 
ENDBRANCH  31  32
ENDBRANCH  30  31
ENDBRANCH   3  30
TORSDOF 10
ENDMDL
MODEL 6
REMARK VINA RESULT:      -8.1      4.025      8.893
REMARK  10 active torsions:
REMARK  status: ('A' for Active; 'I' for Inactive)
REMARK    1  A    between atoms: C_2  and  O_3 
REMARK    2  A    between atoms: O_3  and  C_4 
REMARK    3  A    between atoms: C_7  and  C_8 
REMARK    4  A    between atoms: C_8  and  C_9 
REMARK    5  A    between atoms: C_10  and  C_11 
REMARK    6  A    between atoms: C_13  and  N_14 
REMARK    7  A    between atoms: N_20  and  C_21 
REMARK    8  A    between atoms: C_21  and  C_22 
REMARK    9  A    between atoms: C_22  and  N_23 
REMARK   10  A    between atoms: C_34  and  O_35 
ROOT
HETATM    1  C   UNL     1      44.077  -9.581   8.060  1.00  0.00     0.059 C 
HETATM    2  C   UNL     1      43.115  -9.586   6.922  1.00  0.00     0.161 C 
HETATM    3  N   UNL     1      43.170 -10.982   6.519  1.00  0.00    -0.332 N 
HETATM    4  C   UNL     1      44.236 -11.629   7.127  1.00  0.00     0.278 C 
HETATM    5  O   UNL     1      44.756 -12.644   6.690  1.00  0.00    -0.265 OA
HETATM    6  C   UNL     1      44.703 -10.754   8.228  1.00  0.00     0.146 C 
ENDROOT
BRANCH   1   7
HETATM    7  C   UNL     1      44.512  -8.383   8.801  1.00  0.00     0.193 C 
HETATM    8  O   UNL     1      45.367  -7.633   8.353  1.00  0.00    -0.287 OA
BRANCH   7   9
HETATM    9  C   UNL     1      43.700  -8.035   9.980  1.00  0.00     0.015 A 
HETATM   10  C   UNL     1      42.880  -6.908   9.986  1.00  0.00     0.018 A 
HETATM   11  C   UNL     1      42.298  -6.488  11.187  1.00  0.00     0.038 A 
HETATM   12  C   UNL     1      42.535  -7.201  12.365  1.00  0.00     0.069 A 
HETATM   13  C   UNL     1      43.288  -8.379  12.326  1.00  0.00     0.038 A 
HETATM   14  C   UNL     1      43.883  -8.795  11.137  1.00  0.00     0.018 A 
BRANCH  12  15
HETATM   15  O   UNL     1      42.045  -6.879  13.597  1.00  0.00    -0.347 OA
BRANCH  15  16
HETATM   16  C   UNL     1      41.013  -7.706  14.151  1.00  0.00     0.120 C 
HETATM   17  C   UNL     1      39.667  -6.985  14.070  1.00  0.00     0.040 C 
HETATM   18  C   UNL     1      41.386  -7.951  15.611  1.00  0.00     0.040 C 
ENDBRANCH  15  16
ENDBRANCH  12  15
ENDBRANCH   7   9
ENDBRANCH   1   7
BRANCH   2  19
HETATM   19  C   UNL     1      41.698  -9.132   7.180  1.00  0.00    -0.028 A 
HETATM   20  C   UNL     1      40.980  -9.743   8.224  1.00  0.00     0.045 A 
HETATM   21  C   UNL     1      39.682  -9.314   8.544  1.00  0.00     0.103 A 
HETATM   22  C   UNL     1      39.070  -8.295   7.815  1.00  0.00     0.036 A 
HETATM   23  C   UNL     1      39.776  -7.690   6.773  1.00  0.00     0.003 A 
HETATM   24  C   UNL     1      41.082  -8.096   6.464  1.00  0.00     0.010 A 
BRANCH  21  25
HETATM   25  N   UNL     1      38.996  -9.930   9.684  1.00  0.00    -0.116 N 
HETATM   26  O   UNL     1      38.300 -10.931   9.442  1.00  0.00    -0.532 OA
HETATM   27  O   UNL     1      39.164  -9.430  10.800  1.00  0.00    -0.532 OA
ENDBRANCH  21  25
ENDBRANCH   2  19
BRANCH   6  28
HETATM   28  O   UNL     1      45.715 -11.067   9.085  1.00  0.00    -0.355 OA
HETATM   29  H   UNL     1      46.545 -11.151   8.559  1.00  0.00     0.218 HD
ENDBRANCH   6  28
BRANCH   3  30
HETATM   30  C   UNL     1      42.585 -11.495   5.294  1.00  0.00     0.155 C 
BRANCH  30  31
HETATM   31  C   UNL     1      41.588 -12.635   5.567  1.00  0.00     0.254 C 
BRANCH  31  32
HETATM   32  N   UNL     1      42.237 -14.016   5.497  1.00  0.00    -0.066 N 
HETATM   33  H   UNL     1      43.249 -13.854   5.639  1.00  0.00     0.280 HD
HETATM   34  C   UNL     1      42.106 -14.707   4.125  1.00  0.00     0.262 C 
HETATM   35  C   UNL     1      40.685 -15.276   3.890  1.00  0.00     0.260 C 
HETATM   36  N   UNL     1      40.251 -16.148   5.052  1.00  0.00    -0.072 N 
HETATM   37  H   UNL     1      40.761 -17.048   5.034  1.00  0.00     0.277 HD
HETATM   38  H   UNL     1      39.265 -16.424   4.898  1.00  0.00     0.277 HD
HETATM   39  C   UNL     1      40.369 -15.495   6.406  1.00  0.00     0.260 C 
HETATM   40  C   UNL     1      41.795 -14.937   6.637  1.00  0.00     0.262 C 
ENDBRANCH  31  32
ENDBRANCH  30  31
ENDBRANCH   3  30
TORSDOF 10
ENDMDL
MODEL 7
REMARK VINA RESULT:      -8.1      2.665      5.016
REMARK  10 active torsions:
REMARK  status: ('A' for Active; 'I' for Inactive)
REMARK    1  A    between atoms: C_2  and  O_3 
REMARK    2  A    between atoms: O_3  and  C_4 
REMARK    3  A    between atoms: C_7  and  C_8 
REMARK    4  A    between atoms: C_8  and  C_9 
REMARK    5  A    between atoms: C_10  and  C_11 
REMARK    6  A    between atoms: C_13  and  N_14 
REMARK    7  A    between atoms: N_20  and  C_21 
REMARK    8  A    between atoms: C_21  and  C_22 
REMARK    9  A    between atoms: C_22  and  N_23 
REMARK   10  A    between atoms: C_34  and  O_35 
ROOT
HETATM    1  C   UNL     1      39.885 -12.227   1.524  1.00  0.00     0.059 C 
HETATM    2  C   UNL     1      40.191 -11.497   2.787  1.00  0.00     0.161 C 
HETATM    3  N   UNL     1      38.926 -10.823   3.032  1.00  0.00    -0.332 N 
HETATM    4  C   UNL     1      38.104 -10.898   1.917  1.00  0.00     0.278 C 
HETATM    5  O   UNL     1      37.195 -10.116   1.688  1.00  0.00    -0.265 OA
HETATM    6  C   UNL     1      38.676 -11.935   1.026  1.00  0.00     0.146 C 
ENDROOT
BRANCH   1   7
HETATM    7  C   UNL     1      40.855 -13.009   0.736  1.00  0.00     0.193 C 
HETATM    8  O   UNL     1      41.367 -12.554  -0.276  1.00  0.00    -0.287 OA
BRANCH   7   9
HETATM    9  C   UNL     1      41.329 -14.253   1.366  1.00  0.00     0.015 A 
HETATM   10  C   UNL     1      40.442 -15.273   1.711  1.00  0.00     0.018 A 
HETATM   11  C   UNL     1      40.892 -16.336   2.501  1.00  0.00     0.038 A 
HETATM   12  C   UNL     1      42.222 -16.375   2.930  1.00  0.00     0.069 A 
HETATM   13  C   UNL     1      43.119 -15.392   2.502  1.00  0.00     0.038 A 
HETATM   14  C   UNL     1      42.676 -14.321   1.729  1.00  0.00     0.018 A 
BRANCH  12  15
HETATM   15  O   UNL     1      42.770 -17.343   3.719  1.00  0.00    -0.347 OA
BRANCH  15  16
HETATM   16  C   UNL     1      43.795 -18.173   3.156  1.00  0.00     0.120 C 
HETATM   17  C   UNL     1      43.174 -19.197   2.207  1.00  0.00     0.040 C 
HETATM   18  C   UNL     1      44.469 -18.887   4.324  1.00  0.00     0.040 C 
ENDBRANCH  15  16
ENDBRANCH  12  15
ENDBRANCH   7   9
ENDBRANCH   1   7
BRANCH   2  19
HETATM   19  C   UNL     1      40.642 -12.297   3.985  1.00  0.00    -0.028 A 
HETATM   20  C   UNL     1      41.934 -12.070   4.494  1.00  0.00     0.045 A 
HETATM   21  C   UNL     1      42.378 -12.743   5.642  1.00  0.00     0.103 A 
HETATM   22  C   UNL     1      41.558 -13.670   6.285  1.00  0.00     0.036 A 
HETATM   23  C   UNL     1      40.277 -13.905   5.780  1.00  0.00     0.003 A 
HETATM   24  C   UNL     1      39.817 -13.217   4.648  1.00  0.00     0.010 A 
BRANCH  21  25
HETATM   25  N   UNL     1      43.705 -12.425   6.179  1.00  0.00    -0.116 N 
HETATM   26  O   UNL     1      43.994 -12.923   7.280  1.00  0.00    -0.532 OA
HETATM   27  O   UNL     1      44.446 -11.705   5.505  1.00  0.00    -0.532 OA
ENDBRANCH  21  25
ENDBRANCH   2  19
BRANCH   6  28
HETATM   28  O   UNL     1      38.123 -12.325  -0.157  1.00  0.00    -0.355 OA
HETATM   29  H   UNL     1      38.628 -11.895  -0.886  1.00  0.00     0.218 HD
ENDBRANCH   6  28
BRANCH   3  30
HETATM   30  C   UNL     1      38.742  -9.785   4.028  1.00  0.00     0.155 C 
BRANCH  30  31
HETATM   31  C   UNL     1      40.042  -9.005   4.292  1.00  0.00     0.254 C 
BRANCH  31  32
HETATM   32  N   UNL     1      40.042  -8.297   5.645  1.00  0.00    -0.066 N 
HETATM   33  H   UNL     1      39.566  -7.392   5.484  1.00  0.00     0.280 HD
HETATM   34  C   UNL     1      41.446  -7.949   6.178  1.00  0.00     0.262 C 
HETATM   35  C   UNL     1      42.183  -9.191   6.739  1.00  0.00     0.260 C 
HETATM   36  N   UNL     1      41.318  -9.925   7.745  1.00  0.00    -0.072 N 
HETATM   37  H   UNL     1      41.263  -9.390   8.628  1.00  0.00     0.277 HD
HETATM   38  H   UNL     1      41.809 -10.795   8.017  1.00  0.00     0.277 HD
HETATM   39  C   UNL     1      39.939 -10.278   7.248  1.00  0.00     0.260 C 
HETATM   40  C   UNL     1      39.205  -9.029   6.697  1.00  0.00     0.262 C 
ENDBRANCH  31  32
ENDBRANCH  30  31
ENDBRANCH   3  30
TORSDOF 10
ENDMDL
MODEL 8
REMARK VINA RESULT:      -8.1      8.136     12.635
REMARK  10 active torsions:
REMARK  status: ('A' for Active; 'I' for Inactive)
REMARK    1  A    between atoms: C_2  and  O_3 
REMARK    2  A    between atoms: O_3  and  C_4 
REMARK    3  A    between atoms: C_7  and  C_8 
REMARK    4  A    between atoms: C_8  and  C_9 
REMARK    5  A    between atoms: C_10  and  C_11 
REMARK    6  A    between atoms: C_13  and  N_14 
REMARK    7  A    between atoms: N_20  and  C_21 
REMARK    8  A    between atoms: C_21  and  C_22 
REMARK    9  A    between atoms: C_22  and  N_23 
REMARK   10  A    between atoms: C_34  and  O_35 
ROOT
HETATM    1  C   UNL     1      39.411  -4.930  12.680  1.00  0.00     0.059 C 
HETATM    2  C   UNL     1      39.997  -5.561  13.896  1.00  0.00     0.161 C 
HETATM    3  N   UNL     1      38.819  -5.688  14.738  1.00  0.00    -0.332 N 
HETATM    4  C   UNL     1      37.761  -4.957  14.218  1.00  0.00     0.278 C 
HETATM    5  O   UNL     1      36.817  -4.558  14.882  1.00  0.00    -0.265 OA
HETATM    6  C   UNL     1      38.117  -4.612  12.822  1.00  0.00     0.146 C 
ENDROOT
BRANCH   1   7
HETATM    7  C   UNL     1      40.178  -4.462  11.511  1.00  0.00     0.193 C 
HETATM    8  O   UNL     1      40.375  -3.272  11.315  1.00  0.00    -0.287 OA
BRANCH   7   9
HETATM    9  C   UNL     1      40.870  -5.511  10.743  1.00  0.00     0.015 A 
HETATM   10  C   UNL     1      40.171  -6.585  10.193  1.00  0.00     0.018 A 
HETATM   11  C   UNL     1      40.881  -7.668   9.665  1.00  0.00     0.038 A 
HETATM   12  C   UNL     1      42.278  -7.665   9.684  1.00  0.00     0.069 A 
HETATM   13  C   UNL     1      42.964  -6.543  10.159  1.00  0.00     0.038 A 
HETATM   14  C   UNL     1      42.265  -5.466  10.701  1.00  0.00     0.018 A 
BRANCH  12  15
HETATM   15  O   UNL     1      43.079  -8.669   9.223  1.00  0.00    -0.347 OA
BRANCH  15  16
HETATM   16  C   UNL     1      44.434  -8.720   9.690  1.00  0.00     0.120 C 
HETATM   17  C   UNL     1      45.389  -8.849   8.503  1.00  0.00     0.040 C 
HETATM   18  C   UNL     1      44.542  -9.954  10.582  1.00  0.00     0.040 C 
ENDBRANCH  15  16
ENDBRANCH  12  15
ENDBRANCH   7   9
ENDBRANCH   1   7
BRANCH   2  19
HETATM   19  C   UNL     1      40.720  -6.878  13.742  1.00  0.00    -0.028 A 
HETATM   20  C   UNL     1      39.977  -8.008  13.355  1.00  0.00     0.045 A 
HETATM   21  C   UNL     1      40.612  -9.240  13.139  1.00  0.00     0.103 A 
HETATM   22  C   UNL     1      41.987  -9.375  13.329  1.00  0.00     0.036 A 
HETATM   23  C   UNL     1      42.728  -8.258  13.720  1.00  0.00     0.003 A 
HETATM   24  C   UNL     1      42.105  -7.018  13.913  1.00  0.00     0.010 A 
BRANCH  21  25
HETATM   25  N   UNL     1      39.811 -10.375  12.668  1.00  0.00    -0.116 N 
HETATM   26  O   UNL     1      39.503 -11.230  13.517  1.00  0.00    -0.532 OA
HETATM   27  O   UNL     1      39.484 -10.401  11.479  1.00  0.00    -0.532 OA
ENDBRANCH  21  25
ENDBRANCH   2  19
BRANCH   6  28
HETATM   28  O   UNL     1      37.308  -3.927  11.966  1.00  0.00    -0.355 OA
HETATM   29  H   UNL     1      36.373  -4.134  12.199  1.00  0.00     0.218 HD
ENDBRANCH   6  28
BRANCH   3  30
HETATM   30  C   UNL     1      38.863  -6.041  16.145  1.00  0.00     0.155 C 
BRANCH  30  31
HETATM   31  C   UNL     1      39.943  -5.249  16.902  1.00  0.00     0.254 C 
BRANCH  31  32
HETATM   32  N   UNL     1      41.124  -6.118  17.328  1.00  0.00    -0.066 N 
HETATM   33  H   UNL     1      41.825  -6.022  16.573  1.00  0.00     0.280 HD
HETATM   34  C   UNL     1      40.802  -7.623  17.418  1.00  0.00     0.262 C 
HETATM   35  C   UNL     1      39.985  -7.971  18.688  1.00  0.00     0.260 C 
HETATM   36  N   UNL     1      40.655  -7.420  19.931  1.00  0.00    -0.072 N 
HETATM   37  H   UNL     1      41.500  -7.972  20.158  1.00  0.00     0.277 HD
HETATM   38  H   UNL     1      40.029  -7.590  20.738  1.00  0.00     0.277 HD
HETATM   39  C   UNL     1      40.981  -5.949  19.869  1.00  0.00     0.260 C 
HETATM   40  C   UNL     1      41.806  -5.610  18.602  1.00  0.00     0.262 C 
ENDBRANCH  31  32
ENDBRANCH  30  31
ENDBRANCH   3  30
TORSDOF 10
ENDMDL
MODEL 9
REMARK VINA RESULT:      -8.1      3.218      6.284
REMARK  10 active torsions:
REMARK  status: ('A' for Active; 'I' for Inactive)
REMARK    1  A    between atoms: C_2  and  O_3 
REMARK    2  A    between atoms: O_3  and  C_4 
REMARK    3  A    between atoms: C_7  and  C_8 
REMARK    4  A    between atoms: C_8  and  C_9 
REMARK    5  A    between atoms: C_10  and  C_11 
REMARK    6  A    between atoms: C_13  and  N_14 
REMARK    7  A    between atoms: N_20  and  C_21 
REMARK    8  A    between atoms: C_21  and  C_22 
REMARK    9  A    between atoms: C_22  and  N_23 
REMARK   10  A    between atoms: C_34  and  O_35 
ROOT
HETATM    1  C   UNL     1      41.905 -11.543   3.220  1.00  0.00     0.059 C 
HETATM    2  C   UNL     1      40.770 -11.911   2.327  1.00  0.00     0.161 C 
HETATM    3  N   UNL     1      39.702 -11.099   2.885  1.00  0.00    -0.332 N 
HETATM    4  C   UNL     1      40.076 -10.571   4.113  1.00  0.00     0.278 C 
HETATM    5  O   UNL     1      39.282 -10.206   4.967  1.00  0.00    -0.265 OA
HETATM    6  C   UNL     1      41.543 -10.739   4.229  1.00  0.00     0.146 C 
ENDROOT
BRANCH   1   7
HETATM    7  C   UNL     1      43.246 -12.155   3.189  1.00  0.00     0.193 C 
HETATM    8  O   UNL     1      44.251 -11.498   3.413  1.00  0.00    -0.287 OA
BRANCH   7   9
HETATM    9  C   UNL     1      43.271 -13.626   3.101  1.00  0.00     0.015 A 
HETATM   10  C   UNL     1      43.542 -14.274   1.897  1.00  0.00     0.018 A 
HETATM   11  C   UNL     1      43.341 -15.655   1.801  1.00  0.00     0.038 A 
HETATM   12  C   UNL     1      42.881 -16.374   2.907  1.00  0.00     0.069 A 
HETATM   13  C   UNL     1      42.698 -15.724   4.131  1.00  0.00     0.038 A 
HETATM   14  C   UNL     1      42.881 -14.347   4.232  1.00  0.00     0.018 A 
BRANCH  12  15
HETATM   15  O   UNL     1      42.626 -17.714   2.930  1.00  0.00    -0.347 OA
BRANCH  15  16
HETATM   16  C   UNL     1      43.719 -18.614   2.698  1.00  0.00     0.120 C 
HETATM   17  C   UNL     1      43.201 -19.918   2.092  1.00  0.00     0.040 C 
HETATM   18  C   UNL     1      44.355 -18.888   4.058  1.00  0.00     0.040 C 
ENDBRANCH  15  16
ENDBRANCH  12  15
ENDBRANCH   7   9
ENDBRANCH   1   7
BRANCH   2  19
HETATM   19  C   UNL     1      40.927 -11.688   0.842  1.00  0.00    -0.028 A 
HETATM   20  C   UNL     1      40.618 -12.747  -0.031  1.00  0.00     0.045 A 
HETATM   21  C   UNL     1      40.688 -12.571  -1.421  1.00  0.00     0.103 A 
HETATM   22  C   UNL     1      41.091 -11.352  -1.964  1.00  0.00     0.036 A 
HETATM   23  C   UNL     1      41.407 -10.299  -1.103  1.00  0.00     0.003 A 
HETATM   24  C   UNL     1      41.314 -10.459   0.287  1.00  0.00     0.010 A 
BRANCH  21  25
HETATM   25  N   UNL     1      40.289 -13.680  -2.295  1.00  0.00    -0.116 N 
HETATM   26  O   UNL     1      39.415 -14.448  -1.857  1.00  0.00    -0.532 OA
HETATM   27  O   UNL     1      40.829 -13.769  -3.401  1.00  0.00    -0.532 OA
ENDBRANCH  21  25
ENDBRANCH   2  19
BRANCH   6  28
HETATM   28  O   UNL     1      42.288 -10.307   5.285  1.00  0.00    -0.355 OA
HETATM   29  H   UNL     1      42.095  -9.350   5.422  1.00  0.00     0.218 HD
ENDBRANCH   6  28
BRANCH   3  30
HETATM   30  C   UNL     1      38.304 -11.243   2.528  1.00  0.00     0.155 C 
BRANCH  30  31
HETATM   31  C   UNL     1      37.810 -10.074   1.657  1.00  0.00     0.254 C 
BRANCH  31  32
HETATM   32  N   UNL     1      36.802 -10.512   0.597  1.00  0.00    -0.066 N 
HETATM   33  H   UNL     1      36.414 -11.409   0.937  1.00  0.00     0.280 HD
HETATM   34  C   UNL     1      37.423 -10.814  -0.781  1.00  0.00     0.262 C 
HETATM   35  C   UNL     1      37.791  -9.522  -1.552  1.00  0.00     0.260 C 
HETATM   36  N   UNL     1      36.610  -8.573  -1.615  1.00  0.00    -0.072 N 
HETATM   37  H   UNL     1      35.900  -8.928  -2.277  1.00  0.00     0.277 HD
HETATM   38  H   UNL     1      36.929  -7.689  -2.050  1.00  0.00     0.277 HD
HETATM   39  C   UNL     1      35.984  -8.261  -0.279  1.00  0.00     0.260 C 
HETATM   40  C   UNL     1      35.610  -9.557   0.482  1.00  0.00     0.262 C 
ENDBRANCH  31  32
ENDBRANCH  30  31
ENDBRANCH   3  30
TORSDOF 10
ENDMDL
MODEL 10
REMARK VINA RESULT:      -7.8      2.553      5.254
REMARK  10 active torsions:
REMARK  status: ('A' for Active; 'I' for Inactive)
REMARK    1  A    between atoms: C_2  and  O_3 
REMARK    2  A    between atoms: O_3  and  C_4 
REMARK    3  A    between atoms: C_7  and  C_8 
REMARK    4  A    between atoms: C_8  and  C_9 
REMARK    5  A    between atoms: C_10  and  C_11 
REMARK    6  A    between atoms: C_13  and  N_14 
REMARK    7  A    between atoms: N_20  and  C_21 
REMARK    8  A    between atoms: C_21  and  C_22 
REMARK    9  A    between atoms: C_22  and  N_23 
REMARK   10  A    between atoms: C_34  and  O_35 
ROOT
HETATM    1  C   UNL     1      40.765 -11.864   3.210  1.00  0.00     0.059 C 
HETATM    2  C   UNL     1      41.522 -11.054   4.206  1.00  0.00     0.161 C 
HETATM    3  N   UNL     1      40.435 -10.476   4.978  1.00  0.00    -0.332 N 
HETATM    4  C   UNL     1      39.219 -10.668   4.337  1.00  0.00     0.278 C 
HETATM    5  O   UNL     1      38.233  -9.973   4.527  1.00  0.00    -0.265 OA
HETATM    6  C   UNL     1      39.438 -11.694   3.291  1.00  0.00     0.146 C 
ENDROOT
BRANCH   1   7
HETATM    7  C   UNL     1      41.362 -12.599   2.079  1.00  0.00     0.193 C 
HETATM    8  O   UNL     1      41.693 -12.026   1.052  1.00  0.00    -0.287 OA
BRANCH   7   9
HETATM    9  C   UNL     1      41.736 -13.996   2.357  1.00  0.00     0.015 A 
HETATM   10  C   UNL     1      43.021 -14.467   2.093  1.00  0.00     0.018 A 
HETATM   11  C   UNL     1      43.277 -15.841   2.160  1.00  0.00     0.038 A 
HETATM   12  C   UNL     1      42.251 -16.727   2.499  1.00  0.00     0.069 A 
HETATM   13  C   UNL     1      40.991 -16.232   2.846  1.00  0.00     0.038 A 
HETATM   14  C   UNL     1      40.723 -14.866   2.767  1.00  0.00     0.018 A 
BRANCH  12  15
HETATM   15  O   UNL     1      42.370 -18.084   2.574  1.00  0.00    -0.347 OA
BRANCH  15  16
HETATM   16  C   UNL     1      43.689 -18.642   2.661  1.00  0.00     0.120 C 
HETATM   17  C   UNL     1      43.696 -20.056   2.080  1.00  0.00     0.040 C 
HETATM   18  C   UNL     1      44.047 -18.686   4.143  1.00  0.00     0.040 C 
ENDBRANCH  15  16
ENDBRANCH  12  15
ENDBRANCH   7   9
ENDBRANCH   1   7
BRANCH   2  19
HETATM   19  C   UNL     1      42.523 -11.760   5.089  1.00  0.00    -0.028 A 
HETATM   20  C   UNL     1      42.157 -12.989   5.666  1.00  0.00     0.045 A 
HETATM   21  C   UNL     1      43.072 -13.714   6.444  1.00  0.00     0.103 A 
HETATM   22  C   UNL     1      44.352 -13.217   6.683  1.00  0.00     0.036 A 
HETATM   23  C   UNL     1      44.720 -11.993   6.119  1.00  0.00     0.003 A 
HETATM   24  C   UNL     1      43.819 -11.276   5.319  1.00  0.00     0.010 A 
BRANCH  21  25
HETATM   25  N   UNL     1      42.672 -15.025   6.968  1.00  0.00    -0.116 N 
HETATM   26  O   UNL     1      42.123 -15.801   6.168  1.00  0.00    -0.532 OA
HETATM   27  O   UNL     1      42.918 -15.275   8.151  1.00  0.00    -0.532 OA
ENDBRANCH  21  25
ENDBRANCH   2  19
BRANCH   6  28
HETATM   28  O   UNL     1      38.463 -12.180   2.472  1.00  0.00    -0.355 OA
HETATM   29  H   UNL     1      38.547 -11.732   1.599  1.00  0.00     0.218 HD
ENDBRANCH   6  28
BRANCH   3  30
HETATM   30  C   UNL     1      40.608  -9.412   5.949  1.00  0.00     0.155 C 
BRANCH  30  31
HETATM   31  C   UNL     1      40.129  -9.830   7.351  1.00  0.00     0.254 C 
BRANCH  31  32
HETATM   32  N   UNL     1      40.221  -8.697   8.369  1.00  0.00    -0.066 N 
HETATM   33  H   UNL     1      39.979  -7.836   7.849  1.00  0.00     0.280 HD
HETATM   34  C   UNL     1      41.638  -8.466   8.933  1.00  0.00     0.262 C 
HETATM   35  C   UNL     1      42.035  -9.541   9.974  1.00  0.00     0.260 C 
HETATM   36  N   UNL     1      40.972  -9.675  11.047  1.00  0.00    -0.072 N 
HETATM   37  H   UNL     1      40.996  -8.858  11.680  1.00  0.00     0.277 HD
HETATM   38  H   UNL     1      41.231 -10.467  11.661  1.00  0.00     0.277 HD
HETATM   39  C   UNL     1      39.576  -9.902  10.522  1.00  0.00     0.260 C 
HETATM   40  C   UNL     1      39.183  -8.818   9.488  1.00  0.00     0.262 C 
ENDBRANCH  31  32
ENDBRANCH  30  31
ENDBRANCH   3  30
TORSDOF 10
ENDMDL
