MODEL 1
REMARK VINA RESULT:      -8.8      0.000      0.000
REMARK  5 active torsions:
REMARK  status: ('A' for Active; 'I' for Inactive)
REMARK    1  A    between atoms: C_9  and  C_10 
REMARK       I    between atoms: C_10  and  N_11 
REMARK    2  A    between atoms: N_11  and  C_12 
REMARK    3  A    between atoms: C_12  and  C_13 
REMARK    4  A    between atoms: C_13  and  N_14 
REMARK       I    between atoms: N_14  and  C_15 
REMARK    5  A    between atoms: C_15  and  C_16 
ROOT
HETATM    1  C   UNL     1      42.889 -15.041   3.117  1.00  0.00     0.272 C 
HETATM    2  N   UNL     1      41.828 -14.284   3.565  1.00  0.00    -0.354 N 
HETATM    3  O   UNL     1      43.426 -14.862   2.027  1.00  0.00    -0.266 OA
HETATM    4  H   UNL     1      41.433 -14.562   4.460  1.00  0.00     0.162 HD
ENDROOT
BRANCH   2   5
HETATM    5  C   UNL     1      41.215 -13.244   2.772  1.00  0.00     0.142 C 
BRANCH   5   6
HETATM    6  C   UNL     1      41.975 -11.915   2.854  1.00  0.00     0.142 C 
BRANCH   6   7
HETATM    7  N   UNL     1      42.470 -11.636   4.189  1.00  0.00    -0.355 N 
HETATM    8  C   UNL     1      43.814 -11.445   4.430  1.00  0.00     0.251 C 
HETATM    9  O   UNL     1      44.658 -11.488   3.541  1.00  0.00    -0.268 OA
HETATM   10  H   UNL     1      41.784 -11.409   4.895  1.00  0.00     0.162 HD
BRANCH   8  11
HETATM   11  C   UNL     1      44.224 -11.149   5.836  1.00  0.00     0.032 A 
HETATM   12  C   UNL     1      45.552 -11.242   6.278  1.00  0.00     0.018 A 
HETATM   13  C   UNL     1      45.875 -10.940   7.606  1.00  0.00     0.025 A 
HETATM   14  C   UNL     1      44.878 -10.535   8.492  1.00  0.00     0.034 A 
HETATM   15 CL   UNL     1      45.283 -10.159  10.121  1.00  0.00    -0.084 Cl
HETATM   16  C   UNL     1      43.558 -10.424   8.062  1.00  0.00     0.025 A 
HETATM   17  C   UNL     1      43.232 -10.729   6.737  1.00  0.00     0.018 A 
ENDBRANCH   8  11
ENDBRANCH   6   7
ENDBRANCH   5   6
ENDBRANCH   2   5
BRANCH   1  18
HETATM   18  C   UNL     1      43.294 -16.092   4.065  1.00  0.00     0.157 A 
HETATM   19  C   UNL     1      43.490 -17.479   3.791  1.00  0.00     0.029 A 
HETATM   20  C   UNL     1      43.396 -18.315   2.660  1.00  0.00     0.023 A 
HETATM   21  C   UNL     1      43.854 -18.040   5.009  1.00  0.00     0.063 A 
HETATM   22  C   UNL     1      43.672 -19.687   2.788  1.00  0.00    -0.061 A 
HETATM   23  C   UNL     1      43.573 -20.597   1.597  1.00  0.00     0.048 C 
HETATM   24  C   UNL     1      44.036 -20.210   4.035  1.00  0.00     0.009 A 
HETATM   25  C   UNL     1      44.135 -19.399   5.171  1.00  0.00     0.032 A 
HETATM   26  N   UNL     1      43.855 -17.001   5.899  1.00  0.00    -0.277 N 
HETATM   27  H   UNL     1      44.076 -17.042   6.887  1.00  0.00     0.189 HD
HETATM   28  N   UNL     1      43.518 -15.813   5.369  1.00  0.00    -0.168 NA
ENDBRANCH   1  18
TORSDOF 5
ENDMDL
MODEL 2
REMARK VINA RESULT:      -8.7      3.312      8.162
REMARK  5 active torsions:
REMARK  status: ('A' for Active; 'I' for Inactive)
REMARK    1  A    between atoms: C_9  and  C_10 
REMARK       I    between atoms: C_10  and  N_11 
REMARK    2  A    between atoms: N_11  and  C_12 
REMARK    3  A    between atoms: C_12  and  C_13 
REMARK    4  A    between atoms: C_13  and  N_14 
REMARK       I    between atoms: N_14  and  C_15 
REMARK    5  A    between atoms: C_15  and  C_16 
ROOT
HETATM    1  C   UNL     1      43.436 -12.900   6.629  1.00  0.00     0.272 C 
HETATM    2  N   UNL     1      42.232 -12.329   6.276  1.00  0.00    -0.354 N 
HETATM    3  O   UNL     1      43.592 -14.113   6.746  1.00  0.00    -0.266 OA
HETATM    4  H   UNL     1      42.212 -11.312   6.265  1.00  0.00     0.162 HD
ENDROOT
BRANCH   2   5
HETATM    5  C   UNL     1      41.030 -13.100   6.061  1.00  0.00     0.142 C 
BRANCH   5   6
HETATM    6  C   UNL     1      40.860 -13.534   4.600  1.00  0.00     0.142 C 
BRANCH   6   7
HETATM    7  N   UNL     1      41.318 -14.891   4.365  1.00  0.00    -0.355 N 
HETATM    8  C   UNL     1      42.486 -15.145   3.678  1.00  0.00     0.251 C 
HETATM    9  O   UNL     1      43.203 -14.250   3.240  1.00  0.00    -0.268 OA
HETATM   10  H   UNL     1      40.851 -15.628   4.874  1.00  0.00     0.162 HD
BRANCH   8  11
HETATM   11  C   UNL     1      42.881 -16.574   3.499  1.00  0.00     0.032 A 
HETATM   12  C   UNL     1      42.553 -17.317   2.356  1.00  0.00     0.018 A 
HETATM   13  C   UNL     1      42.962 -18.652   2.242  1.00  0.00     0.025 A 
HETATM   14  C   UNL     1      43.706 -19.243   3.262  1.00  0.00     0.034 A 
HETATM   15 CL   UNL     1      44.211 -20.880   3.113  1.00  0.00    -0.084 Cl
HETATM   16  C   UNL     1      44.050 -18.511   4.396  1.00  0.00     0.025 A 
HETATM   17  C   UNL     1      43.639 -17.180   4.513  1.00  0.00     0.018 A 
ENDBRANCH   8  11
ENDBRANCH   6   7
ENDBRANCH   5   6
ENDBRANCH   2   5
BRANCH   1  18
HETATM   18  C   UNL     1      44.499 -11.912   6.871  1.00  0.00     0.157 A 
HETATM   19  C   UNL     1      44.641 -11.049   7.999  1.00  0.00     0.029 A 
HETATM   20  C   UNL     1      43.930 -10.809   9.191  1.00  0.00     0.023 A 
HETATM   21  C   UNL     1      45.790 -10.310   7.746  1.00  0.00     0.063 A 
HETATM   22  C   UNL     1      44.396  -9.837  10.092  1.00  0.00    -0.061 A 
HETATM   23  C   UNL     1      43.651  -9.562  11.367  1.00  0.00     0.048 C 
HETATM   24  C   UNL     1      45.560  -9.115   9.798  1.00  0.00     0.009 A 
HETATM   25  C   UNL     1      46.281  -9.337   8.620  1.00  0.00     0.032 A 
HETATM   26  N   UNL     1      46.247 -10.756   6.536  1.00  0.00    -0.277 N 
HETATM   27  H   UNL     1      47.072 -10.439   6.038  1.00  0.00     0.189 HD
HETATM   28  N   UNL     1      45.494 -11.717   5.975  1.00  0.00    -0.168 NA
ENDBRANCH   1  18
TORSDOF 5
ENDMDL
MODEL 3
REMARK VINA RESULT:      -8.6      3.476      7.016
REMARK  5 active torsions:
REMARK  status: ('A' for Active; 'I' for Inactive)
REMARK    1  A    between atoms: C_9  and  C_10 
REMARK       I    between atoms: C_10  and  N_11 
REMARK    2  A    between atoms: N_11  and  C_12 
REMARK    3  A    between atoms: C_12  and  C_13 
REMARK    4  A    between atoms: C_13  and  N_14 
REMARK       I    between atoms: N_14  and  C_15 
REMARK    5  A    between atoms: C_15  and  C_16 
ROOT
HETATM    1  C   UNL     1      43.063 -11.735   3.349  1.00  0.00     0.272 C 
HETATM    2  N   UNL     1      42.359 -12.167   4.453  1.00  0.00    -0.354 N 
HETATM    3  O   UNL     1      44.260 -11.463   3.384  1.00  0.00    -0.266 OA
HETATM    4  H   UNL     1      41.362 -12.309   4.313  1.00  0.00     0.162 HD
ENDROOT
BRANCH   2   5
HETATM    5  C   UNL     1      42.952 -12.289   5.764  1.00  0.00     0.142 C 
BRANCH   5   6
HETATM    6  C   UNL     1      42.684 -13.654   6.408  1.00  0.00     0.142 C 
BRANCH   6   7
HETATM    7  N   UNL     1      42.754 -14.745   5.453  1.00  0.00    -0.355 N 
HETATM    8  C   UNL     1      43.577 -15.830   5.664  1.00  0.00     0.251 C 
HETATM    9  O   UNL     1      44.281 -15.942   6.663  1.00  0.00    -0.268 OA
HETATM   10  H   UNL     1      42.051 -14.766   4.728  1.00  0.00     0.162 HD
BRANCH   8  11
HETATM   11  C   UNL     1      43.569 -16.909   4.631  1.00  0.00     0.032 A 
HETATM   12  C   UNL     1      43.068 -16.718   3.335  1.00  0.00     0.018 A 
HETATM   13  C   UNL     1      43.099 -17.766   2.407  1.00  0.00     0.025 A 
HETATM   14  C   UNL     1      43.637 -19.000   2.766  1.00  0.00     0.034 A 
HETATM   15 CL   UNL     1      43.677 -20.281   1.618  1.00  0.00    -0.084 Cl
HETATM   16  C   UNL     1      44.150 -19.198   4.045  1.00  0.00     0.025 A 
HETATM   17  C   UNL     1      44.117 -18.155   4.974  1.00  0.00     0.018 A 
ENDBRANCH   8  11
ENDBRANCH   6   7
ENDBRANCH   5   6
ENDBRANCH   2   5
BRANCH   1  18
HETATM   18  C   UNL     1      42.232 -11.616   2.140  1.00  0.00     0.157 A 
HETATM   19  C   UNL     1      41.430 -12.629   1.536  1.00  0.00     0.029 A 
HETATM   20  C   UNL     1      41.132 -13.981   1.798  1.00  0.00     0.023 A 
HETATM   21  C   UNL     1      40.857 -12.021   0.425  1.00  0.00     0.063 A 
HETATM   22  C   UNL     1      40.267 -14.680   0.938  1.00  0.00    -0.061 A 
HETATM   23  C   UNL     1      39.939 -16.122   1.196  1.00  0.00     0.048 C 
HETATM   24  C   UNL     1      39.711 -14.028  -0.170  1.00  0.00     0.009 A 
HETATM   25  C   UNL     1      39.993 -12.686  -0.449  1.00  0.00     0.032 A 
HETATM   26  N   UNL     1      41.328 -10.738   0.433  1.00  0.00    -0.277 N 
HETATM   27  H   UNL     1      41.117 -10.004  -0.234  1.00  0.00     0.189 HD
HETATM   28  N   UNL     1      42.163 -10.456   1.447  1.00  0.00    -0.168 NA
ENDBRANCH   1  18
TORSDOF 5
ENDMDL
MODEL 4
REMARK VINA RESULT:      -8.5      1.405      1.796
REMARK  5 active torsions:
REMARK  status: ('A' for Active; 'I' for Inactive)
REMARK    1  A    between atoms: C_9  and  C_10 
REMARK       I    between atoms: C_10  and  N_11 
REMARK    2  A    between atoms: N_11  and  C_12 
REMARK    3  A    between atoms: C_12  and  C_13 
REMARK    4  A    between atoms: C_13  and  N_14 
REMARK       I    between atoms: N_14  and  C_15 
REMARK    5  A    between atoms: C_15  and  C_16 
ROOT
HETATM    1  C   UNL     1      43.239 -15.180   4.076  1.00  0.00     0.272 C 
HETATM    2  N   UNL     1      42.831 -14.102   4.832  1.00  0.00    -0.354 N 
HETATM    3  O   UNL     1      43.402 -15.120   2.860  1.00  0.00    -0.266 OA
HETATM    4  H   UNL     1      42.678 -14.289   5.820  1.00  0.00     0.162 HD
ENDROOT
BRANCH   2   5
HETATM    5  C   UNL     1      42.506 -12.817   4.259  1.00  0.00     0.142 C 
BRANCH   5   6
HETATM    6  C   UNL     1      43.590 -11.764   4.519  1.00  0.00     0.142 C 
BRANCH   6   7
HETATM    7  N   UNL     1      43.507 -11.195   5.851  1.00  0.00    -0.355 N 
HETATM    8  C   UNL     1      44.615 -11.113   6.666  1.00  0.00     0.251 C 
HETATM    9  O   UNL     1      45.725 -11.501   6.314  1.00  0.00    -0.268 OA
HETATM   10  H   UNL     1      42.658 -10.701   6.087  1.00  0.00     0.162 HD
BRANCH   8  11
HETATM   11  C   UNL     1      44.432 -10.497   8.015  1.00  0.00     0.032 A 
HETATM   12  C   UNL     1      45.474 -10.381   8.946  1.00  0.00     0.018 A 
HETATM   13  C   UNL     1      45.241  -9.783  10.191  1.00  0.00     0.025 A 
HETATM   14  C   UNL     1      43.975  -9.291  10.503  1.00  0.00     0.034 A 
HETATM   15 CL   UNL     1      43.699  -8.551  12.032  1.00  0.00    -0.084 Cl
HETATM   16  C   UNL     1      42.937  -9.387   9.581  1.00  0.00     0.025 A 
HETATM   17  C   UNL     1      43.165  -9.987   8.340  1.00  0.00     0.018 A 
ENDBRANCH   8  11
ENDBRANCH   6   7
ENDBRANCH   5   6
ENDBRANCH   2   5
BRANCH   1  18
HETATM   18  C   UNL     1      43.437 -16.405   4.868  1.00  0.00     0.157 A 
HETATM   19  C   UNL     1      43.587 -17.737   4.381  1.00  0.00     0.029 A 
HETATM   20  C   UNL     1      43.610 -18.362   3.118  1.00  0.00     0.023 A 
HETATM   21  C   UNL     1      43.734 -18.522   5.517  1.00  0.00     0.063 A 
HETATM   22  C   UNL     1      43.781 -19.754   3.036  1.00  0.00    -0.061 A 
HETATM   23  C   UNL     1      43.803 -20.441   1.701  1.00  0.00     0.048 C 
HETATM   24  C   UNL     1      43.926 -20.508   4.208  1.00  0.00     0.009 A 
HETATM   25  C   UNL     1      43.907 -19.908   5.472  1.00  0.00     0.032 A 
HETATM   26  N   UNL     1      43.667 -17.651   6.569  1.00  0.00    -0.277 N 
HETATM   27  H   UNL     1      43.738 -17.875   7.555  1.00  0.00     0.189 HD
HETATM   28  N   UNL     1      43.483 -16.367   6.219  1.00  0.00    -0.168 NA
ENDBRANCH   1  18
TORSDOF 5
ENDMDL
MODEL 5
REMARK VINA RESULT:      -8.5      3.505      5.477
REMARK  5 active torsions:
REMARK  status: ('A' for Active; 'I' for Inactive)
REMARK    1  A    between atoms: C_9  and  C_10 
REMARK       I    between atoms: C_10  and  N_11 
REMARK    2  A    between atoms: N_11  and  C_12 
REMARK    3  A    between atoms: C_12  and  C_13 
REMARK    4  A    between atoms: C_13  and  N_14 
REMARK       I    between atoms: N_14  and  C_15 
REMARK    5  A    between atoms: C_15  and  C_16 
ROOT
HETATM    1  C   UNL     1      43.295 -15.546   7.127  1.00  0.00     0.272 C 
HETATM    2  N   UNL     1      43.660 -14.458   6.362  1.00  0.00    -0.354 N 
HETATM    3  O   UNL     1      42.916 -15.447   8.291  1.00  0.00    -0.266 OA
HETATM    4  H   UNL     1      44.009 -14.671   5.430  1.00  0.00     0.162 HD
ENDROOT
BRANCH   2   5
HETATM    5  C   UNL     1      43.679 -13.108   6.874  1.00  0.00     0.142 C 
BRANCH   5   6
HETATM    6  C   UNL     1      42.544 -12.246   6.308  1.00  0.00     0.142 C 
BRANCH   6   7
HETATM    7  N   UNL     1      42.138 -12.662   4.978  1.00  0.00    -0.355 N 
HETATM    8  C   UNL     1      41.084 -13.531   4.790  1.00  0.00     0.251 C 
HETATM    9  O   UNL     1      40.429 -13.988   5.722  1.00  0.00    -0.268 OA
HETATM   10  H   UNL     1      42.533 -12.157   4.198  1.00  0.00     0.162 HD
BRANCH   8  11
HETATM   11  C   UNL     1      40.731 -13.889   3.383  1.00  0.00     0.032 A 
HETATM   12  C   UNL     1      40.089 -15.088   3.041  1.00  0.00     0.018 A 
HETATM   13  C   UNL     1      39.775 -15.361   1.704  1.00  0.00     0.025 A 
HETATM   14  C   UNL     1      40.090 -14.436   0.710  1.00  0.00     0.034 A 
HETATM   15 CL   UNL     1      39.695 -14.776  -0.929  1.00  0.00    -0.084 Cl
HETATM   16  C   UNL     1      40.715 -13.236   1.039  1.00  0.00     0.025 A 
HETATM   17  C   UNL     1      41.033 -12.963   2.372  1.00  0.00     0.018 A 
ENDBRANCH   8  11
ENDBRANCH   6   7
ENDBRANCH   5   6
ENDBRANCH   2   5
BRANCH   1  18
HETATM   18  C   UNL     1      43.429 -16.827   6.415  1.00  0.00     0.157 A 
HETATM   19  C   UNL     1      43.458 -17.037   5.004  1.00  0.00     0.029 A 
HETATM   20  C   UNL     1      43.385 -16.226   3.854  1.00  0.00     0.023 A 
HETATM   21  C   UNL     1      43.588 -18.411   4.846  1.00  0.00     0.063 A 
HETATM   22  C   UNL     1      43.445 -16.820   2.582  1.00  0.00    -0.061 A 
HETATM   23  C   UNL     1      43.365 -15.975   1.343  1.00  0.00     0.048 C 
HETATM   24  C   UNL     1      43.578 -18.210   2.468  1.00  0.00     0.009 A 
HETATM   25  C   UNL     1      43.652 -19.034   3.597  1.00  0.00     0.032 A 
HETATM   26  N   UNL     1      43.628 -18.919   6.115  1.00  0.00    -0.277 N 
HETATM   27  H   UNL     1      43.719 -19.892   6.383  1.00  0.00     0.189 HD
HETATM   28  N   UNL     1      43.529 -17.997   7.088  1.00  0.00    -0.168 NA
ENDBRANCH   1  18
TORSDOF 5
ENDMDL
MODEL 6
REMARK VINA RESULT:      -8.4      4.130      7.420
REMARK  5 active torsions:
REMARK  status: ('A' for Active; 'I' for Inactive)
REMARK    1  A    between atoms: C_9  and  C_10 
REMARK       I    between atoms: C_10  and  N_11 
REMARK    2  A    between atoms: N_11  and  C_12 
REMARK    3  A    between atoms: C_12  and  C_13 
REMARK    4  A    between atoms: C_13  and  N_14 
REMARK       I    between atoms: N_14  and  C_15 
REMARK    5  A    between atoms: C_15  and  C_16 
ROOT
HETATM    1  C   UNL     1      40.817 -13.536   2.732  1.00  0.00     0.272 C 
HETATM    2  N   UNL     1      39.869 -13.696   3.720  1.00  0.00    -0.354 N 
HETATM    3  O   UNL     1      41.907 -13.006   2.931  1.00  0.00    -0.266 OA
HETATM    4  H   UNL     1      38.984 -14.099   3.423  1.00  0.00     0.162 HD
ENDROOT
BRANCH   2   5
HETATM    5  C   UNL     1      40.048 -13.208   5.068  1.00  0.00     0.142 C 
BRANCH   5   6
HETATM    6  C   UNL     1      40.808 -14.198   5.958  1.00  0.00     0.142 C 
BRANCH   6   7
HETATM    7  N   UNL     1      41.294 -15.351   5.222  1.00  0.00    -0.355 N 
HETATM    8  C   UNL     1      42.639 -15.641   5.153  1.00  0.00     0.251 C 
HETATM    9  O   UNL     1      43.493 -14.959   5.711  1.00  0.00    -0.268 OA
HETATM   10  H   UNL     1      40.606 -16.025   4.918  1.00  0.00     0.162 HD
BRANCH   8  11
HETATM   11  C   UNL     1      43.040 -16.858   4.383  1.00  0.00     0.032 A 
HETATM   12  C   UNL     1      43.900 -17.837   4.902  1.00  0.00     0.018 A 
HETATM   13  C   UNL     1      44.229 -18.961   4.135  1.00  0.00     0.025 A 
HETATM   14  C   UNL     1      43.695 -19.115   2.857  1.00  0.00     0.034 A 
HETATM   15 CL   UNL     1      44.099 -20.503   1.923  1.00  0.00    -0.084 Cl
HETATM   16  C   UNL     1      42.830 -18.157   2.336  1.00  0.00     0.025 A 
HETATM   17  C   UNL     1      42.502 -17.032   3.098  1.00  0.00     0.018 A 
ENDBRANCH   8  11
ENDBRANCH   6   7
ENDBRANCH   5   6
ENDBRANCH   2   5
BRANCH   1  18
HETATM   18  C   UNL     1      40.381 -14.044   1.421  1.00  0.00     0.157 A 
HETATM   19  C   UNL     1      40.445 -13.369   0.166  1.00  0.00     0.029 A 
HETATM   20  C   UNL     1      40.889 -12.113  -0.292  1.00  0.00     0.023 A 
HETATM   21  C   UNL     1      39.906 -14.263  -0.752  1.00  0.00     0.063 A 
HETATM   22  C   UNL     1      40.779 -11.794  -1.657  1.00  0.00    -0.061 A 
HETATM   23  C   UNL     1      41.242 -10.459  -2.166  1.00  0.00     0.048 C 
HETATM   24  C   UNL     1      40.230 -12.726  -2.547  1.00  0.00     0.009 A 
HETATM   25  C   UNL     1      39.783 -13.979  -2.114  1.00  0.00     0.032 A 
HETATM   26  N   UNL     1      39.569 -15.370  -0.023  1.00  0.00    -0.277 N 
HETATM   27  H   UNL     1      39.149 -16.225  -0.367  1.00  0.00     0.189 HD
HETATM   28  N   UNL     1      39.834 -15.274   1.291  1.00  0.00    -0.168 NA
ENDBRANCH   1  18
TORSDOF 5
ENDMDL
MODEL 7
REMARK VINA RESULT:      -8.2      3.605      5.493
REMARK  5 active torsions:
REMARK  status: ('A' for Active; 'I' for Inactive)
REMARK    1  A    between atoms: C_9  and  C_10 
REMARK       I    between atoms: C_10  and  N_11 
REMARK    2  A    between atoms: N_11  and  C_12 
REMARK    3  A    between atoms: C_12  and  C_13 
REMARK    4  A    between atoms: C_13  and  N_14 
REMARK       I    between atoms: N_14  and  C_15 
REMARK    5  A    between atoms: C_15  and  C_16 
ROOT
HETATM    1  C   UNL     1      41.603 -14.028   6.334  1.00  0.00     0.272 C 
HETATM    2  N   UNL     1      42.442 -12.937   6.248  1.00  0.00    -0.354 N 
HETATM    3  O   UNL     1      40.383 -13.943   6.219  1.00  0.00    -0.266 OA
HETATM    4  H   UNL     1      43.427 -13.124   6.415  1.00  0.00     0.162 HD
ENDROOT
BRANCH   2   5
HETATM    5  C   UNL     1      41.960 -11.587   6.067  1.00  0.00     0.142 C 
BRANCH   5   6
HETATM    6  C   UNL     1      42.385 -10.984   4.723  1.00  0.00     0.142 C 
BRANCH   6   7
HETATM    7  N   UNL     1      41.705 -11.597   3.597  1.00  0.00    -0.355 N 
HETATM    8  C   UNL     1      42.285 -12.623   2.881  1.00  0.00     0.251 C 
HETATM    9  O   UNL     1      43.390 -13.079   3.157  1.00  0.00    -0.268 OA
HETATM   10  H   UNL     1      40.728 -11.372   3.472  1.00  0.00     0.162 HD
BRANCH   8  11
HETATM   11  C   UNL     1      41.500 -13.199   1.748  1.00  0.00     0.032 A 
HETATM   12  C   UNL     1      41.161 -14.557   1.670  1.00  0.00     0.018 A 
HETATM   13  C   UNL     1      40.413 -15.035   0.587  1.00  0.00     0.025 A 
HETATM   14  C   UNL     1      39.994 -14.159  -0.412  1.00  0.00     0.034 A 
HETATM   15 CL   UNL     1      39.070 -14.752  -1.737  1.00  0.00    -0.084 Cl
HETATM   16  C   UNL     1      40.313 -12.805  -0.339  1.00  0.00     0.025 A 
HETATM   17  C   UNL     1      41.063 -12.327   0.739  1.00  0.00     0.018 A 
ENDBRANCH   8  11
ENDBRANCH   6   7
ENDBRANCH   5   6
ENDBRANCH   2   5
BRANCH   1  18
HETATM   18  C   UNL     1      42.315 -15.289   6.598  1.00  0.00     0.157 A 
HETATM   19  C   UNL     1      42.733 -16.263   5.643  1.00  0.00     0.029 A 
HETATM   20  C   UNL     1      42.658 -16.415   4.244  1.00  0.00     0.023 A 
HETATM   21  C   UNL     1      43.347 -17.260   6.392  1.00  0.00     0.063 A 
HETATM   22  C   UNL     1      43.202 -17.561   3.641  1.00  0.00    -0.061 A 
HETATM   23  C   UNL     1      43.129 -17.745   2.153  1.00  0.00     0.048 C 
HETATM   24  C   UNL     1      43.813 -18.542   4.434  1.00  0.00     0.009 A 
HETATM   25  C   UNL     1      43.898 -18.412   5.825  1.00  0.00     0.032 A 
HETATM   26  N   UNL     1      43.263 -16.841   7.690  1.00  0.00    -0.277 N 
HETATM   27  H   UNL     1      43.610 -17.321   8.513  1.00  0.00     0.189 HD
HETATM   28  N   UNL     1      42.643 -15.660   7.856  1.00  0.00    -0.168 NA
ENDBRANCH   1  18
TORSDOF 5
ENDMDL
MODEL 8
REMARK VINA RESULT:      -8.2      3.837      4.935
REMARK  5 active torsions:
REMARK  status: ('A' for Active; 'I' for Inactive)
REMARK    1  A    between atoms: C_9  and  C_10 
REMARK       I    between atoms: C_10  and  N_11 
REMARK    2  A    between atoms: N_11  and  C_12 
REMARK    3  A    between atoms: C_12  and  C_13 
REMARK    4  A    between atoms: C_13  and  N_14 
REMARK       I    between atoms: N_14  and  C_15 
REMARK    5  A    between atoms: C_15  and  C_16 
ROOT
HETATM    1  C   UNL     1      42.485 -13.183   6.623  1.00  0.00     0.272 C 
HETATM    2  N   UNL     1      43.281 -12.261   7.269  1.00  0.00    -0.354 N 
HETATM    3  O   UNL     1      41.516 -12.865   5.937  1.00  0.00    -0.266 OA
HETATM    4  H   UNL     1      44.020 -12.647   7.851  1.00  0.00     0.162 HD
ENDROOT
BRANCH   2   5
HETATM    5  C   UNL     1      43.021 -10.841   7.241  1.00  0.00     0.142 C 
BRANCH   5   6
HETATM    6  C   UNL     1      44.083 -10.031   7.994  1.00  0.00     0.142 C 
BRANCH   6   7
HETATM    7  N   UNL     1      43.584  -9.479   9.240  1.00  0.00    -0.355 N 
HETATM    8  C   UNL     1      43.606 -10.212  10.408  1.00  0.00     0.251 C 
HETATM    9  O   UNL     1      44.052 -11.354  10.463  1.00  0.00    -0.268 OA
HETATM   10  H   UNL     1      43.391  -8.488   9.259  1.00  0.00     0.162 HD
BRANCH   8  11
HETATM   11  C   UNL     1      43.084  -9.552  11.642  1.00  0.00     0.032 A 
HETATM   12  C   UNL     1      43.630  -8.370  12.162  1.00  0.00     0.018 A 
HETATM   13  C   UNL     1      43.089  -7.794  13.318  1.00  0.00     0.025 A 
HETATM   14  C   UNL     1      41.998  -8.388  13.949  1.00  0.00     0.034 A 
HETATM   15 CL   UNL     1      41.333  -7.670  15.364  1.00  0.00    -0.084 Cl
HETATM   16  C   UNL     1      41.437  -9.553  13.434  1.00  0.00     0.025 A 
HETATM   17  C   UNL     1      41.978 -10.134  12.283  1.00  0.00     0.018 A 
ENDBRANCH   8  11
ENDBRANCH   6   7
ENDBRANCH   5   6
ENDBRANCH   2   5
BRANCH   1  18
HETATM   18  C   UNL     1      42.900 -14.575   6.858  1.00  0.00     0.157 A 
HETATM   19  C   UNL     1      43.113 -15.593   5.881  1.00  0.00     0.029 A 
HETATM   20  C   UNL     1      43.032 -15.688   4.478  1.00  0.00     0.023 A 
HETATM   21  C   UNL     1      43.481 -16.719   6.608  1.00  0.00     0.063 A 
HETATM   22  C   UNL     1      43.324 -16.910   3.848  1.00  0.00    -0.061 A 
HETATM   23  C   UNL     1      43.240 -17.035   2.354  1.00  0.00     0.048 C 
HETATM   24  C   UNL     1      43.692 -18.020   4.619  1.00  0.00     0.009 A 
HETATM   25  C   UNL     1      43.779 -17.948   6.014  1.00  0.00     0.032 A 
HETATM   26  N   UNL     1      43.467 -16.324   7.917  1.00  0.00    -0.277 N 
HETATM   27  H   UNL     1      43.686 -16.890   8.729  1.00  0.00     0.189 HD
HETATM   28  N   UNL     1      43.117 -15.041   8.109  1.00  0.00    -0.168 NA
ENDBRANCH   1  18
TORSDOF 5
ENDMDL
MODEL 9
REMARK VINA RESULT:      -8.0      2.907      4.447
REMARK  5 active torsions:
REMARK  status: ('A' for Active; 'I' for Inactive)
REMARK    1  A    between atoms: C_9  and  C_10 
REMARK       I    between atoms: C_10  and  N_11 
REMARK    2  A    between atoms: N_11  and  C_12 
REMARK    3  A    between atoms: C_12  and  C_13 
REMARK    4  A    between atoms: C_13  and  N_14 
REMARK       I    between atoms: N_14  and  C_15 
REMARK    5  A    between atoms: C_15  and  C_16 
ROOT
HETATM    1  C   UNL     1      42.328 -12.491   4.327  1.00  0.00     0.272 C 
HETATM    2  N   UNL     1      43.548 -12.096   4.832  1.00  0.00    -0.354 N 
HETATM    3  O   UNL     1      41.258 -12.060   4.749  1.00  0.00    -0.266 OA
HETATM    4  H   UNL     1      44.361 -12.564   4.439  1.00  0.00     0.162 HD
ENDROOT
BRANCH   2   5
HETATM    5  C   UNL     1      43.681 -11.178   5.939  1.00  0.00     0.142 C 
BRANCH   5   6
HETATM    6  C   UNL     1      44.344 -11.820   7.163  1.00  0.00     0.142 C 
BRANCH   6   7
HETATM    7  N   UNL     1      43.833 -11.293   8.415  1.00  0.00    -0.355 N 
HETATM    8  C   UNL     1      44.575 -10.417   9.178  1.00  0.00     0.251 C 
HETATM    9  O   UNL     1      45.689 -10.027   8.844  1.00  0.00    -0.268 OA
HETATM   10  H   UNL     1      42.855 -11.447   8.613  1.00  0.00     0.162 HD
BRANCH   8  11
HETATM   11  C   UNL     1      43.957  -9.918  10.444  1.00  0.00     0.032 A 
HETATM   12  C   UNL     1      43.726  -8.557  10.693  1.00  0.00     0.018 A 
HETATM   13  C   UNL     1      43.133  -8.153  11.896  1.00  0.00     0.025 A 
HETATM   14  C   UNL     1      42.761  -9.103  12.845  1.00  0.00     0.034 A 
HETATM   15 CL   UNL     1      42.027  -8.599  14.317  1.00  0.00    -0.084 Cl
HETATM   16  C   UNL     1      42.972 -10.458  12.603  1.00  0.00     0.025 A 
HETATM   17  C   UNL     1      43.568 -10.864  11.405  1.00  0.00     0.018 A 
ENDBRANCH   8  11
ENDBRANCH   6   7
ENDBRANCH   5   6
ENDBRANCH   2   5
BRANCH   1  18
HETATM   18  C   UNL     1      42.440 -13.492   3.254  1.00  0.00     0.157 A 
HETATM   19  C   UNL     1      42.828 -14.859   3.380  1.00  0.00     0.029 A 
HETATM   20  C   UNL     1      43.212 -15.714   4.432  1.00  0.00     0.023 A 
HETATM   21  C   UNL     1      42.784 -15.367   2.087  1.00  0.00     0.063 A 
HETATM   22  C   UNL     1      43.540 -17.052   4.153  1.00  0.00    -0.061 A 
HETATM   23  C   UNL     1      43.956 -17.980   5.259  1.00  0.00     0.048 C 
HETATM   24  C   UNL     1      43.481 -17.523   2.835  1.00  0.00     0.009 A 
HETATM   25  C   UNL     1      43.102 -16.692   1.776  1.00  0.00     0.032 A 
HETATM   26  N   UNL     1      42.389 -14.321   1.301  1.00  0.00    -0.277 N 
HETATM   27  H   UNL     1      42.249 -14.328   0.297  1.00  0.00     0.189 HD
HETATM   28  N   UNL     1      42.177 -13.172   1.966  1.00  0.00    -0.168 NA
ENDBRANCH   1  18
TORSDOF 5
ENDMDL
MODEL 10
REMARK VINA RESULT:      -8.0      4.980      6.475
REMARK  5 active torsions:
REMARK  status: ('A' for Active; 'I' for Inactive)
REMARK    1  A    between atoms: C_9  and  C_10 
REMARK       I    between atoms: C_10  and  N_11 
REMARK    2  A    between atoms: N_11  and  C_12 
REMARK    3  A    between atoms: C_12  and  C_13 
REMARK    4  A    between atoms: C_13  and  N_14 
REMARK       I    between atoms: N_14  and  C_15 
REMARK    5  A    between atoms: C_15  and  C_16 
ROOT
HETATM    1  C   UNL     1      40.742 -15.336   1.912  1.00  0.00     0.272 C 
HETATM    2  N   UNL     1      41.255 -14.686   0.809  1.00  0.00    -0.354 N 
HETATM    3  O   UNL     1      39.546 -15.577   2.050  1.00  0.00    -0.266 OA
HETATM    4  H   UNL     1      42.253 -14.495   0.833  1.00  0.00     0.162 HD
ENDROOT
BRANCH   2   5
HETATM    5  C   UNL     1      40.426 -14.181  -0.261  1.00  0.00     0.142 C 
BRANCH   5   6
HETATM    6  C   UNL     1      39.823 -12.808   0.058  1.00  0.00     0.142 C 
BRANCH   6   7
HETATM    7  N   UNL     1      40.251 -11.781  -0.874  1.00  0.00    -0.355 N 
HETATM    8  C   UNL     1      41.086 -10.758  -0.478  1.00  0.00     0.251 C 
HETATM    9  O   UNL     1      41.519 -10.663   0.666  1.00  0.00    -0.268 OA
HETATM   10  H   UNL     1      40.064 -11.942  -1.853  1.00  0.00     0.162 HD
BRANCH   8  11
HETATM   11  C   UNL     1      41.482  -9.756  -1.513  1.00  0.00     0.032 A 
HETATM   12  C   UNL     1      40.887  -9.696  -2.782  1.00  0.00     0.018 A 
HETATM   13  C   UNL     1      41.295  -8.726  -3.706  1.00  0.00     0.025 A 
HETATM   14  C   UNL     1      42.288  -7.810  -3.363  1.00  0.00     0.034 A 
HETATM   15 CL   UNL     1      42.779  -6.617  -4.500  1.00  0.00    -0.084 Cl
HETATM   16  C   UNL     1      42.876  -7.850  -2.102  1.00  0.00     0.025 A 
HETATM   17  C   UNL     1      42.474  -8.820  -1.179  1.00  0.00     0.018 A 
ENDBRANCH   8  11
ENDBRANCH   6   7
ENDBRANCH   5   6
ENDBRANCH   2   5
BRANCH   1  18
HETATM   18  C   UNL     1      41.768 -15.689   2.906  1.00  0.00     0.157 A 
HETATM   19  C   UNL     1      42.528 -16.894   2.978  1.00  0.00     0.029 A 
HETATM   20  C   UNL     1      42.612 -18.089   2.235  1.00  0.00     0.023 A 
HETATM   21  C   UNL     1      43.344 -16.741   4.092  1.00  0.00     0.063 A 
HETATM   22  C   UNL     1      43.514 -19.090   2.633  1.00  0.00    -0.061 A 
HETATM   23  C   UNL     1      43.617 -20.373   1.859  1.00  0.00     0.048 C 
HETATM   24  C   UNL     1      44.319 -18.894   3.763  1.00  0.00     0.009 A 
HETATM   25  C   UNL     1      44.251 -17.716   4.515  1.00  0.00     0.032 A 
HETATM   26  N   UNL     1      43.038 -15.508   4.597  1.00  0.00    -0.277 N 
HETATM   27  H   UNL     1      43.443 -15.062   5.412  1.00  0.00     0.189 HD
HETATM   28  N   UNL     1      42.089 -14.845   3.914  1.00  0.00    -0.168 NA
ENDBRANCH   1  18
TORSDOF 5
ENDMDL
