MODEL 1
REMARK VINA RESULT:      -8.0      0.000      0.000
REMARK  3 active torsions:
REMARK  status: ('A' for Active; 'I' for Inactive)
REMARK    1  A    between atoms: C_9  and  C_10 
REMARK    2  A    between atoms: C_16  and  C_17 
REMARK       I    between atoms: C_17  and  N_18 
REMARK    3  A    between atoms: N_18  and  C_19 
ROOT
HETATM    1  C   UNL     1      43.945 -14.365   6.432  1.00  0.00     0.070 C 
HETATM    2  C   UNL     1      42.749 -13.834   5.684  1.00  0.00     0.037 C 
HETATM    3  N   UNL     1      42.524 -12.465   5.803  1.00  0.00    -0.192 N 
HETATM    4  C   UNL     1      41.378 -11.876   5.412  1.00  0.00     0.725 A 
HETATM    5  N   UNL     1      40.450 -12.605   4.717  1.00  0.00    -0.082 N 
HETATM    6  N   UNL     1      39.307 -11.903   4.542  1.00  0.00    -0.149 NA
HETATM    7  C   UNL     1      39.655 -10.731   5.088  1.00  0.00     0.275 A 
HETATM    8  N   UNL     1      40.911 -10.673   5.633  1.00  0.00    -0.054 NA
HETATM    9  C   UNL     1      40.627 -14.006   4.334  1.00  0.00     0.221 C 
HETATM   10  C   UNL     1      41.871 -14.596   4.985  1.00  0.00     0.064 C 
HETATM   11  H   UNL     1      43.152 -11.935   6.401  1.00  0.00     0.184 HD
ENDROOT
BRANCH  10  12
HETATM   12  C   UNL     1      41.954 -16.075   4.861  1.00  0.00     0.257 C 
HETATM   13  N   UNL     1      42.794 -16.491   3.858  1.00  0.00    -0.308 N 
HETATM   14  H   UNL     1      43.184 -15.788   3.248  1.00  0.00     0.170 HD
HETATM   15  O   UNL     1      41.260 -16.752   5.608  1.00  0.00    -0.267 OA
BRANCH  13  16
HETATM   16  C   UNL     1      43.168 -17.821   3.623  1.00  0.00     0.129 A 
HETATM   17  N   UNL     1      43.857 -18.513   4.546  1.00  0.00    -0.243 NA
HETATM   18  C   UNL     1      44.220 -19.780   4.254  1.00  0.00     0.119 A 
HETATM   19  C   UNL     1      43.936 -20.402   3.052  1.00  0.00     0.019 A 
HETATM   20  C   UNL     1      43.231 -19.679   2.100  1.00  0.00     0.005 A 
HETATM   21  C   UNL     1      42.835 -18.373   2.388  1.00  0.00     0.050 A 
ENDBRANCH  13  16
ENDBRANCH  10  12
BRANCH   9  22
HETATM   22  C   UNL     1      40.664 -14.092   2.812  1.00  0.00     0.064 A 
HETATM   23  N   UNL     1      41.408 -13.177   2.126  1.00  0.00    -0.263 NA
HETATM   24  C   UNL     1      41.366 -13.228   0.775  1.00  0.00     0.117 A 
HETATM   25  C   UNL     1      40.630 -14.155   0.058  1.00  0.00     0.019 A 
HETATM   26  C   UNL     1      39.887 -15.091   0.765  1.00  0.00     0.003 A 
HETATM   27  C   UNL     1      39.899 -15.061   2.157  1.00  0.00     0.030 A 
ENDBRANCH   9  22
TORSDOF 3
ENDMDL
MODEL 2
REMARK VINA RESULT:      -7.9      2.178      2.395
REMARK  3 active torsions:
REMARK  status: ('A' for Active; 'I' for Inactive)
REMARK    1  A    between atoms: C_9  and  C_10 
REMARK    2  A    between atoms: C_16  and  C_17 
REMARK       I    between atoms: C_17  and  N_18 
REMARK    3  A    between atoms: N_18  and  C_19 
ROOT
HETATM    1  C   UNL     1      44.316 -11.777   3.756  1.00  0.00     0.070 C 
HETATM    2  C   UNL     1      42.893 -11.883   3.268  1.00  0.00     0.037 C 
HETATM    3  N   UNL     1      42.107 -10.749   3.455  1.00  0.00    -0.192 N 
HETATM    4  C   UNL     1      40.769 -10.756   3.309  1.00  0.00     0.725 A 
HETATM    5  N   UNL     1      40.154 -11.867   2.796  1.00  0.00    -0.082 N 
HETATM    6  N   UNL     1      38.807 -11.756   2.861  1.00  0.00    -0.149 NA
HETATM    7  C   UNL     1      38.689 -10.516   3.351  1.00  0.00     0.275 A 
HETATM    8  N   UNL     1      39.863  -9.871   3.640  1.00  0.00    -0.054 NA
HETATM    9  C   UNL     1      40.864 -13.070   2.358  1.00  0.00     0.221 C 
HETATM   10  C   UNL     1      42.337 -13.002   2.741  1.00  0.00     0.064 C 
HETATM   11  H   UNL     1      42.530  -9.955   3.928  1.00  0.00     0.184 HD
ENDROOT
BRANCH  10  12
HETATM   12  C   UNL     1      43.047 -14.297   2.575  1.00  0.00     0.257 C 
HETATM   13  N   UNL     1      42.706 -15.230   3.523  1.00  0.00    -0.308 N 
HETATM   14  H   UNL     1      42.109 -14.934   4.281  1.00  0.00     0.170 HD
HETATM   15  O   UNL     1      43.865 -14.390   1.669  1.00  0.00    -0.267 OA
BRANCH  13  16
HETATM   16  C   UNL     1      43.110 -16.572   3.511  1.00  0.00     0.129 A 
HETATM   17  N   UNL     1      43.894 -17.061   4.487  1.00  0.00    -0.243 NA
HETATM   18  C   UNL     1      44.281 -18.352   4.408  1.00  0.00     0.119 A 
HETATM   19  C   UNL     1      43.929 -19.196   3.371  1.00  0.00     0.019 A 
HETATM   20  C   UNL     1      43.126 -18.682   2.362  1.00  0.00     0.005 A 
HETATM   21  C   UNL     1      42.705 -17.355   2.433  1.00  0.00     0.050 A 
ENDBRANCH  13  16
ENDBRANCH  10  12
BRANCH   9  22
HETATM   22  C   UNL     1      40.655 -13.238   0.857  1.00  0.00     0.064 A 
HETATM   23  N   UNL     1      41.068 -12.239   0.025  1.00  0.00    -0.263 NA
HETATM   24  C   UNL     1      40.805 -12.378  -1.294  1.00  0.00     0.117 A 
HETATM   25  C   UNL     1      40.159 -13.472  -1.842  1.00  0.00     0.019 A 
HETATM   26  C   UNL     1      39.754 -14.490  -0.990  1.00  0.00     0.003 A 
HETATM   27  C   UNL     1      40.000 -14.375   0.375  1.00  0.00     0.030 A 
ENDBRANCH   9  22
TORSDOF 3
ENDMDL
MODEL 3
REMARK VINA RESULT:      -7.8      2.096      4.159
REMARK  3 active torsions:
REMARK  status: ('A' for Active; 'I' for Inactive)
REMARK    1  A    between atoms: C_9  and  C_10 
REMARK    2  A    between atoms: C_16  and  C_17 
REMARK       I    between atoms: C_17  and  N_18 
REMARK    3  A    between atoms: N_18  and  C_19 
ROOT
HETATM    1  C   UNL     1      39.852 -15.779   1.056  1.00  0.00     0.070 C 
HETATM    2  C   UNL     1      40.451 -14.418   1.304  1.00  0.00     0.037 C 
HETATM    3  N   UNL     1      39.645 -13.335   0.963  1.00  0.00    -0.192 N 
HETATM    4  C   UNL     1      40.111 -12.074   0.886  1.00  0.00     0.725 A 
HETATM    5  N   UNL     1      41.381 -11.798   1.317  1.00  0.00    -0.082 N 
HETATM    6  N   UNL     1      41.732 -10.523   1.027  1.00  0.00    -0.149 NA
HETATM    7  C   UNL     1      40.589 -10.073   0.494  1.00  0.00     0.275 A 
HETATM    8  N   UNL     1      39.574 -10.988   0.388  1.00  0.00    -0.054 NA
HETATM    9  C   UNL     1      42.285 -12.793   1.895  1.00  0.00     0.221 C 
HETATM   10  C   UNL     1      41.709 -14.197   1.760  1.00  0.00     0.064 C 
HETATM   11  H   UNL     1      38.740 -13.534   0.547  1.00  0.00     0.184 HD
ENDROOT
BRANCH  10  12
HETATM   12  C   UNL     1      42.692 -15.267   2.072  1.00  0.00     0.257 C 
HETATM   13  N   UNL     1      42.244 -16.158   3.017  1.00  0.00    -0.308 N 
HETATM   14  H   UNL     1      41.368 -15.957   3.476  1.00  0.00     0.170 HD
HETATM   15  O   UNL     1      43.778 -15.230   1.510  1.00  0.00    -0.267 OA
BRANCH  13  16
HETATM   16  C   UNL     1      42.904 -17.338   3.384  1.00  0.00     0.129 A 
HETATM   17  N   UNL     1      43.443 -17.471   4.607  1.00  0.00    -0.243 NA
HETATM   18  C   UNL     1      44.096 -18.617   4.896  1.00  0.00     0.119 A 
HETATM   19  C   UNL     1      44.256 -19.656   3.998  1.00  0.00     0.019 A 
HETATM   20  C   UNL     1      43.703 -19.509   2.734  1.00  0.00     0.005 A 
HETATM   21  C   UNL     1      43.013 -18.339   2.421  1.00  0.00     0.050 A 
ENDBRANCH  13  16
ENDBRANCH  10  12
BRANCH   9  22
HETATM   22  C   UNL     1      42.565 -12.411   3.344  1.00  0.00     0.064 A 
HETATM   23  N   UNL     1      41.558 -12.531   4.256  1.00  0.00    -0.263 NA
HETATM   24  C   UNL     1      41.808 -12.116   5.519  1.00  0.00     0.117 A 
HETATM   25  C   UNL     1      43.020 -11.595   5.936  1.00  0.00     0.019 A 
HETATM   26  C   UNL     1      44.044 -11.489   5.004  1.00  0.00     0.003 A 
HETATM   27  C   UNL     1      43.818 -11.897   3.693  1.00  0.00     0.030 A 
ENDBRANCH   9  22
TORSDOF 3
ENDMDL
MODEL 4
REMARK VINA RESULT:      -7.7      2.144      5.724
REMARK  3 active torsions:
REMARK  status: ('A' for Active; 'I' for Inactive)
REMARK    1  A    between atoms: C_9  and  C_10 
REMARK    2  A    between atoms: C_16  and  C_17 
REMARK       I    between atoms: C_17  and  N_18 
REMARK    3  A    between atoms: N_18  and  C_19 
ROOT
HETATM    1  C   UNL     1      43.130 -16.410   1.662  1.00  0.00     0.070 C 
HETATM    2  C   UNL     1      42.704 -15.984   3.045  1.00  0.00     0.037 C 
HETATM    3  N   UNL     1      43.601 -16.278   4.068  1.00  0.00    -0.192 N 
HETATM    4  C   UNL     1      43.273 -16.195   5.372  1.00  0.00     0.725 A 
HETATM    5  N   UNL     1      42.072 -15.643   5.731  1.00  0.00    -0.082 N 
HETATM    6  N   UNL     1      41.847 -15.779   7.058  1.00  0.00    -0.149 NA
HETATM    7  C   UNL     1      42.996 -16.350   7.442  1.00  0.00     0.275 A 
HETATM    8  N   UNL     1      43.894 -16.622   6.443  1.00  0.00    -0.054 NA
HETATM    9  C   UNL     1      41.103 -15.099   4.779  1.00  0.00     0.221 C 
HETATM   10  C   UNL     1      41.510 -15.415   3.345  1.00  0.00     0.064 C 
HETATM   11  H   UNL     1      44.450 -16.778   3.821  1.00  0.00     0.184 HD
ENDROOT
BRANCH  10  12
HETATM   12  C   UNL     1      40.437 -15.136   2.356  1.00  0.00     0.257 C 
HETATM   13  N   UNL     1      40.683 -14.025   1.585  1.00  0.00    -0.308 N 
HETATM   14  H   UNL     1      41.483 -13.457   1.820  1.00  0.00     0.170 HD
HETATM   15  O   UNL     1      39.458 -15.869   2.349  1.00  0.00    -0.267 OA
BRANCH  13  16
HETATM   16  C   UNL     1      39.914 -13.625   0.484  1.00  0.00     0.129 A 
HETATM   17  N   UNL     1      39.229 -12.470   0.509  1.00  0.00    -0.243 NA
HETATM   18  C   UNL     1      38.478 -12.150  -0.566  1.00  0.00     0.119 A 
HETATM   19  C   UNL     1      38.360 -12.952  -1.687  1.00  0.00     0.019 A 
HETATM   20  C   UNL     1      39.065 -14.148  -1.702  1.00  0.00     0.005 A 
HETATM   21  C   UNL     1      39.857 -14.489  -0.607  1.00  0.00     0.050 A 
ENDBRANCH  13  16
ENDBRANCH  10  12
BRANCH   9  22
HETATM   22  C   UNL     1      40.962 -13.602   5.032  1.00  0.00     0.064 A 
HETATM   23  N   UNL     1      41.923 -12.765   4.545  1.00  0.00    -0.263 NA
HETATM   24  C   UNL     1      41.815 -11.451   4.846  1.00  0.00     0.117 A 
HETATM   25  C   UNL     1      40.787 -10.912   5.601  1.00  0.00     0.019 A 
HETATM   26  C   UNL     1      39.806 -11.770   6.080  1.00  0.00     0.003 A 
HETATM   27  C   UNL     1      39.892 -13.130   5.798  1.00  0.00     0.030 A 
ENDBRANCH   9  22
TORSDOF 3
ENDMDL
MODEL 5
REMARK VINA RESULT:      -7.5      2.957      5.909
REMARK  3 active torsions:
REMARK  status: ('A' for Active; 'I' for Inactive)
REMARK    1  A    between atoms: C_9  and  C_10 
REMARK    2  A    between atoms: C_16  and  C_17 
REMARK       I    between atoms: C_17  and  N_18 
REMARK    3  A    between atoms: N_18  and  C_19 
ROOT
HETATM    1  C   UNL     1      38.713 -10.486   2.490  1.00  0.00     0.070 C 
HETATM    2  C   UNL     1      40.019 -11.150   2.845  1.00  0.00     0.037 C 
HETATM    3  N   UNL     1      40.473 -10.931   4.142  1.00  0.00    -0.192 N 
HETATM    4  C   UNL     1      41.723 -11.237   4.540  1.00  0.00     0.725 A 
HETATM    5  N   UNL     1      42.542 -11.944   3.701  1.00  0.00    -0.082 N 
HETATM    6  N   UNL     1      43.798 -12.029   4.198  1.00  0.00    -0.149 NA
HETATM    7  C   UNL     1      43.634 -11.418   5.378  1.00  0.00     0.275 A 
HETATM    8  N   UNL     1      42.382 -10.918   5.625  1.00  0.00    -0.054 NA
HETATM    9  C   UNL     1      42.141 -12.428   2.379  1.00  0.00     0.221 C 
HETATM   10  C   UNL     1      40.783 -11.865   1.981  1.00  0.00     0.064 C 
HETATM   11  H   UNL     1      39.919 -10.322   4.739  1.00  0.00     0.184 HD
ENDROOT
BRANCH  10  12
HETATM   12  C   UNL     1      40.449 -12.092   0.551  1.00  0.00     0.257 C 
HETATM   13  N   UNL     1      39.574 -13.132   0.355  1.00  0.00    -0.308 N 
HETATM   14  H   UNL     1      39.327 -13.697   1.154  1.00  0.00     0.170 HD
HETATM   15  O   UNL     1      40.996 -11.385  -0.284  1.00  0.00    -0.267 OA
BRANCH  13  16
HETATM   16  C   UNL     1      38.982 -13.463  -0.872  1.00  0.00     0.129 A 
HETATM   17  N   UNL     1      38.015 -12.691  -1.397  1.00  0.00    -0.243 NA
HETATM   18  C   UNL     1      37.456 -13.075  -2.564  1.00  0.00     0.119 A 
HETATM   19  C   UNL     1      37.811 -14.226  -3.244  1.00  0.00     0.019 A 
HETATM   20  C   UNL     1      38.805 -15.022  -2.692  1.00  0.00     0.005 A 
HETATM   21  C   UNL     1      39.404 -14.636  -1.493  1.00  0.00     0.050 A 
ENDBRANCH  13  16
ENDBRANCH  10  12
BRANCH   9  22
HETATM   22  C   UNL     1      42.164 -13.953   2.393  1.00  0.00     0.064 A 
HETATM   23  N   UNL     1      41.133 -14.614   2.991  1.00  0.00    -0.263 NA
HETATM   24  C   UNL     1      41.212 -15.963   3.056  1.00  0.00     0.117 A 
HETATM   25  C   UNL     1      42.264 -16.701   2.542  1.00  0.00     0.019 A 
HETATM   26  C   UNL     1      43.302 -16.020   1.922  1.00  0.00     0.003 A 
HETATM   27  C   UNL     1      43.258 -14.631   1.847  1.00  0.00     0.030 A 
ENDBRANCH   9  22
TORSDOF 3
ENDMDL
MODEL 6
REMARK VINA RESULT:      -7.3      2.004      6.210
REMARK  3 active torsions:
REMARK  status: ('A' for Active; 'I' for Inactive)
REMARK    1  A    between atoms: C_9  and  C_10 
REMARK    2  A    between atoms: C_16  and  C_17 
REMARK       I    between atoms: C_17  and  N_18 
REMARK    3  A    between atoms: N_18  and  C_19 
ROOT
HETATM    1  C   UNL     1      43.031 -15.648   8.295  1.00  0.00     0.070 C 
HETATM    2  C   UNL     1      43.168 -16.222   6.908  1.00  0.00     0.037 C 
HETATM    3  N   UNL     1      43.203 -17.611   6.831  1.00  0.00    -0.192 N 
HETATM    4  C   UNL     1      43.567 -18.272   5.716  1.00  0.00     0.725 A 
HETATM    5  N   UNL     1      43.753 -17.577   4.551  1.00  0.00    -0.082 N 
HETATM    6  N   UNL     1      44.259 -18.372   3.581  1.00  0.00    -0.149 NA
HETATM    7  C   UNL     1      44.273 -19.551   4.215  1.00  0.00     0.275 A 
HETATM    8  N   UNL     1      43.860 -19.534   5.522  1.00  0.00    -0.054 NA
HETATM    9  C   UNL     1      43.554 -16.133   4.418  1.00  0.00     0.221 C 
HETATM   10  C   UNL     1      43.323 -15.486   5.778  1.00  0.00     0.064 C 
HETATM   11  H   UNL     1      43.168 -18.132   7.704  1.00  0.00     0.184 HD
ENDROOT
BRANCH  10  12
HETATM   12  C   UNL     1      43.391 -14.003   5.742  1.00  0.00     0.257 C 
HETATM   13  N   UNL     1      42.291 -13.421   5.160  1.00  0.00    -0.308 N 
HETATM   14  H   UNL     1      41.610 -14.028   4.730  1.00  0.00     0.170 HD
HETATM   15  O   UNL     1      44.399 -13.464   6.180  1.00  0.00    -0.267 OA
BRANCH  13  16
HETATM   16  C   UNL     1      42.032 -12.044   5.132  1.00  0.00     0.129 A 
HETATM   17  N   UNL     1      41.652 -11.394   6.245  1.00  0.00    -0.243 NA
HETATM   18  C   UNL     1      41.383 -10.075   6.153  1.00  0.00     0.119 A 
HETATM   19  C   UNL     1      41.460  -9.356   4.975  1.00  0.00     0.019 A 
HETATM   20  C   UNL     1      41.846 -10.035   3.827  1.00  0.00     0.005 A 
HETATM   21  C   UNL     1      42.142 -11.395   3.904  1.00  0.00     0.050 A 
ENDBRANCH  13  16
ENDBRANCH  10  12
BRANCH   9  22
HETATM   22  C   UNL     1      42.403 -15.889   3.448  1.00  0.00     0.064 A 
HETATM   23  N   UNL     1      41.130 -16.126   3.876  1.00  0.00    -0.263 NA
HETATM   24  C   UNL     1      40.132 -15.973   2.976  1.00  0.00     0.117 A 
HETATM   25  C   UNL     1      40.328 -15.580   1.663  1.00  0.00     0.019 A 
HETATM   26  C   UNL     1      41.626 -15.327   1.241  1.00  0.00     0.003 A 
HETATM   27  C   UNL     1      42.678 -15.484   2.139  1.00  0.00     0.030 A 
ENDBRANCH   9  22
TORSDOF 3
ENDMDL
MODEL 7
REMARK VINA RESULT:      -7.2      2.532      5.354
REMARK  3 active torsions:
REMARK  status: ('A' for Active; 'I' for Inactive)
REMARK    1  A    between atoms: C_9  and  C_10 
REMARK    2  A    between atoms: C_16  and  C_17 
REMARK       I    between atoms: C_17  and  N_18 
REMARK    3  A    between atoms: N_18  and  C_19 
ROOT
HETATM    1  C   UNL     1      39.788 -10.472   6.143  1.00  0.00     0.070 C 
HETATM    2  C   UNL     1      41.123 -11.168   6.221  1.00  0.00     0.037 C 
HETATM    3  N   UNL     1      42.010 -10.665   7.168  1.00  0.00    -0.192 N 
HETATM    4  C   UNL     1      43.314 -11.001   7.198  1.00  0.00     0.725 A 
HETATM    5  N   UNL     1      43.771 -12.000   6.381  1.00  0.00    -0.082 N 
HETATM    6  N   UNL     1      45.119 -12.099   6.434  1.00  0.00    -0.149 NA
HETATM    7  C   UNL     1      45.394 -11.178   7.367  1.00  0.00     0.275 A 
HETATM    8  N   UNL     1      44.320 -10.484   7.859  1.00  0.00    -0.054 NA
HETATM    9  C   UNL     1      42.921 -12.769   5.472  1.00  0.00     0.221 C 
HETATM   10  C   UNL     1      41.519 -12.175   5.403  1.00  0.00     0.064 C 
HETATM   11  H   UNL     1      41.714  -9.857   7.708  1.00  0.00     0.184 HD
ENDROOT
BRANCH  10  12
HETATM   12  C   UNL     1      40.698 -12.736   4.299  1.00  0.00     0.257 C 
HETATM   13  N   UNL     1      41.335 -12.714   3.082  1.00  0.00    -0.308 N 
HETATM   14  H   UNL     1      42.225 -12.243   3.024  1.00  0.00     0.170 HD
HETATM   15  O   UNL     1      39.563 -13.111   4.561  1.00  0.00    -0.267 OA
BRANCH  13  16
HETATM   16  C   UNL     1      40.850 -13.313   1.911  1.00  0.00     0.129 A 
HETATM   17  N   UNL     1      40.473 -12.563   0.862  1.00  0.00    -0.243 NA
HETATM   18  C   UNL     1      39.983 -13.191  -0.228  1.00  0.00     0.119 A 
HETATM   19  C   UNL     1      39.831 -14.562  -0.320  1.00  0.00     0.019 A 
HETATM   20  C   UNL     1      40.215 -15.331   0.770  1.00  0.00     0.005 A 
HETATM   21  C   UNL     1      40.737 -14.702   1.900  1.00  0.00     0.050 A 
ENDBRANCH  13  16
ENDBRANCH  10  12
BRANCH   9  22
HETATM   22  C   UNL     1      42.919 -14.226   5.924  1.00  0.00     0.064 A 
HETATM   23  N   UNL     1      42.707 -14.498   7.243  1.00  0.00    -0.263 NA
HETATM   24  C   UNL     1      42.783 -15.791   7.632  1.00  0.00     0.117 A 
HETATM   25  C   UNL     1      43.049 -16.843   6.773  1.00  0.00     0.019 A 
HETATM   26  C   UNL     1      43.250 -16.557   5.429  1.00  0.00     0.003 A 
HETATM   27  C   UNL     1      43.188 -15.236   4.996  1.00  0.00     0.030 A 
ENDBRANCH   9  22
TORSDOF 3
ENDMDL
MODEL 8
REMARK VINA RESULT:      -7.1      2.932      6.575
REMARK  3 active torsions:
REMARK  status: ('A' for Active; 'I' for Inactive)
REMARK    1  A    between atoms: C_9  and  C_10 
REMARK    2  A    between atoms: C_16  and  C_17 
REMARK       I    between atoms: C_17  and  N_18 
REMARK    3  A    between atoms: N_18  and  C_19 
ROOT
HETATM    1  C   UNL     1      43.867 -14.770   6.274  1.00  0.00     0.070 C 
HETATM    2  C   UNL     1      42.774 -14.308   5.344  1.00  0.00     0.037 C 
HETATM    3  N   UNL     1      41.957 -15.311   4.831  1.00  0.00    -0.192 N 
HETATM    4  C   UNL     1      41.105 -15.107   3.808  1.00  0.00     0.725 A 
HETATM    5  N   UNL     1      40.896 -13.833   3.350  1.00  0.00    -0.082 N 
HETATM    6  N   UNL     1      40.134 -13.833   2.232  1.00  0.00    -0.149 NA
HETATM    7  C   UNL     1      39.857 -15.138   2.127  1.00  0.00     0.275 A 
HETATM    8  N   UNL     1      40.431 -15.952   3.068  1.00  0.00    -0.054 NA
HETATM    9  C   UNL     1      41.526 -12.642   3.922  1.00  0.00     0.221 C 
HETATM   10  C   UNL     1      42.591 -13.026   4.941  1.00  0.00     0.064 C 
HETATM   11  H   UNL     1      42.171 -16.271   5.088  1.00  0.00     0.184 HD
ENDROOT
BRANCH  10  12
HETATM   12  C   UNL     1      43.451 -11.885   5.349  1.00  0.00     0.257 C 
HETATM   13  N   UNL     1      43.236 -11.475   6.642  1.00  0.00    -0.308 N 
HETATM   14  H   UNL     1      42.471 -11.895   7.147  1.00  0.00     0.170 HD
HETATM   15  O   UNL     1      44.211 -11.412   4.513  1.00  0.00    -0.267 OA
BRANCH  13  16
HETATM   16  C   UNL     1      44.009 -10.525   7.323  1.00  0.00     0.129 A 
HETATM   17  N   UNL     1      43.457  -9.388   7.777  1.00  0.00    -0.243 NA
HETATM   18  C   UNL     1      44.255  -8.493   8.396  1.00  0.00     0.119 A 
HETATM   19  C   UNL     1      45.614  -8.673   8.577  1.00  0.00     0.019 A 
HETATM   20  C   UNL     1      46.180  -9.847   8.099  1.00  0.00     0.005 A 
HETATM   21  C   UNL     1      45.369 -10.790   7.468  1.00  0.00     0.050 A 
ENDBRANCH  13  16
ENDBRANCH  10  12
BRANCH   9  22
HETATM   22  C   UNL     1      40.437 -11.755   4.516  1.00  0.00     0.064 A 
HETATM   23  N   UNL     1      39.995 -12.023   5.778  1.00  0.00    -0.263 NA
HETATM   24  C   UNL     1      38.979 -11.269   6.255  1.00  0.00     0.117 A 
HETATM   25  C   UNL     1      38.378 -10.243   5.546  1.00  0.00     0.019 A 
HETATM   26  C   UNL     1      38.845  -9.969   4.268  1.00  0.00     0.003 A 
HETATM   27  C   UNL     1      39.883 -10.732   3.742  1.00  0.00     0.030 A 
ENDBRANCH   9  22
TORSDOF 3
ENDMDL
MODEL 9
REMARK VINA RESULT:      -7.0     14.807     16.831
REMARK  3 active torsions:
REMARK  status: ('A' for Active; 'I' for Inactive)
REMARK    1  A    between atoms: C_9  and  C_10 
REMARK    2  A    between atoms: C_16  and  C_17 
REMARK       I    between atoms: C_17  and  N_18 
REMARK    3  A    between atoms: N_18  and  C_19 
ROOT
HETATM    1  C   UNL     1      47.832 -28.173   2.431  1.00  0.00     0.070 C 
HETATM    2  C   UNL     1      46.726 -28.819   1.634  1.00  0.00     0.037 C 
HETATM    3  N   UNL     1      45.446 -28.690   2.166  1.00  0.00    -0.192 N 
HETATM    4  C   UNL     1      44.396 -29.407   1.723  1.00  0.00     0.725 A 
HETATM    5  N   UNL     1      44.533 -30.177   0.598  1.00  0.00    -0.082 N 
HETATM    6  N   UNL     1      43.434 -30.939   0.389  1.00  0.00    -0.149 NA
HETATM    7  C   UNL     1      42.648 -30.511   1.385  1.00  0.00     0.275 A 
HETATM    8  N   UNL     1      43.198 -29.577   2.224  1.00  0.00    -0.054 NA
HETATM    9  C   UNL     1      45.760 -30.259  -0.195  1.00  0.00     0.221 C 
HETATM   10  C   UNL     1      46.911 -29.551   0.507  1.00  0.00     0.064 C 
HETATM   11  H   UNL     1      45.352 -28.206   3.054  1.00  0.00     0.184 HD
ENDROOT
BRANCH  10  12
HETATM   12  C   UNL     1      48.235 -29.834  -0.105  1.00  0.00     0.257 C 
HETATM   13  N   UNL     1      48.679 -31.114   0.124  1.00  0.00    -0.308 N 
HETATM   14  H   UNL     1      48.141 -31.693   0.751  1.00  0.00     0.170 HD
HETATM   15  O   UNL     1      48.799 -28.924  -0.698  1.00  0.00    -0.267 OA
BRANCH  13  16
HETATM   16  C   UNL     1      49.816 -31.686  -0.461  1.00  0.00     0.129 A 
HETATM   17  N   UNL     1      49.745 -32.276  -1.666  1.00  0.00    -0.243 NA
HETATM   18  C   UNL     1      50.864 -32.841  -2.167  1.00  0.00     0.119 A 
HETATM   19  C   UNL     1      52.077 -32.861  -1.503  1.00  0.00     0.019 A 
HETATM   20  C   UNL     1      52.142 -32.257  -0.255  1.00  0.00     0.005 A 
HETATM   21  C   UNL     1      51.000 -31.656   0.273  1.00  0.00     0.050 A 
ENDBRANCH  13  16
ENDBRANCH  10  12
BRANCH   9  22
HETATM   22  C   UNL     1      45.480 -29.692  -1.582  1.00  0.00     0.064 A 
HETATM   23  N   UNL     1      45.473 -30.545  -2.646  1.00  0.00    -0.263 NA
HETATM   24  C   UNL     1      45.295 -30.008  -3.874  1.00  0.00     0.117 A 
HETATM   25  C   UNL     1      45.110 -28.656  -4.108  1.00  0.00     0.019 A 
HETATM   26  C   UNL     1      45.104 -27.797  -3.017  1.00  0.00     0.003 A 
HETATM   27  C   UNL     1      45.294 -28.315  -1.740  1.00  0.00     0.030 A 
ENDBRANCH   9  22
TORSDOF 3
ENDMDL
MODEL 10
REMARK VINA RESULT:      -6.8     15.250     17.150
REMARK  3 active torsions:
REMARK  status: ('A' for Active; 'I' for Inactive)
REMARK    1  A    between atoms: C_9  and  C_10 
REMARK    2  A    between atoms: C_16  and  C_17 
REMARK       I    between atoms: C_17  and  N_18 
REMARK    3  A    between atoms: N_18  and  C_19 
ROOT
HETATM    1  C   UNL     1      48.930 -31.301  -2.301  1.00  0.00     0.070 C 
HETATM    2  C   UNL     1      47.509 -30.821  -2.449  1.00  0.00     0.037 C 
HETATM    3  N   UNL     1      46.853 -31.229  -3.607  1.00  0.00    -0.192 N 
HETATM    4  C   UNL     1      45.685 -30.695  -4.012  1.00  0.00     0.725 A 
HETATM    5  N   UNL     1      45.015 -29.834  -3.184  1.00  0.00    -0.082 N 
HETATM    6  N   UNL     1      43.950 -29.283  -3.809  1.00  0.00    -0.149 NA
HETATM    7  C   UNL     1      43.998 -29.924  -4.983  1.00  0.00     0.275 A 
HETATM    8  N   UNL     1      45.043 -30.794  -5.149  1.00  0.00    -0.054 NA
HETATM    9  C   UNL     1      45.473 -29.462  -1.845  1.00  0.00     0.221 C 
HETATM   10  C   UNL     1      46.879 -29.987  -1.584  1.00  0.00     0.064 C 
HETATM   11  H   UNL     1      47.380 -31.785  -4.275  1.00  0.00     0.184 HD
ENDROOT
BRANCH  10  12
HETATM   12  C   UNL     1      47.503 -29.413  -0.363  1.00  0.00     0.257 C 
HETATM   13  N   UNL     1      47.729 -30.344   0.622  1.00  0.00    -0.308 N 
HETATM   14  H   UNL     1      47.371 -31.276   0.479  1.00  0.00     0.170 HD
HETATM   15  O   UNL     1      47.709 -28.207  -0.337  1.00  0.00    -0.267 OA
BRANCH  13  16
HETATM   16  C   UNL     1      48.437 -30.103   1.807  1.00  0.00     0.129 A 
HETATM   17  N   UNL     1      47.795 -29.715   2.922  1.00  0.00    -0.243 NA
HETATM   18  C   UNL     1      48.530 -29.464   4.026  1.00  0.00     0.119 A 
HETATM   19  C   UNL     1      49.909 -29.569   4.071  1.00  0.00     0.019 A 
HETATM   20  C   UNL     1      50.565 -29.962   2.913  1.00  0.00     0.005 A 
HETATM   21  C   UNL     1      49.823 -30.239   1.767  1.00  0.00     0.050 A 
ENDBRANCH  13  16
ENDBRANCH  10  12
BRANCH   9  22
HETATM   22  C   UNL     1      44.458 -29.971  -0.826  1.00  0.00     0.064 A 
HETATM   23  N   UNL     1      43.803 -29.061  -0.049  1.00  0.00    -0.263 NA
HETATM   24  C   UNL     1      42.963 -29.540   0.896  1.00  0.00     0.117 A 
HETATM   25  C   UNL     1      42.724 -30.887   1.108  1.00  0.00     0.019 A 
HETATM   26  C   UNL     1      43.385 -31.805   0.303  1.00  0.00     0.003 A 
HETATM   27  C   UNL     1      44.265 -31.347  -0.674  1.00  0.00     0.030 A 
ENDBRANCH   9  22
TORSDOF 3
ENDMDL
