MODEL 1
REMARK VINA RESULT:      -7.6      0.000      0.000
REMARK  3 active torsions:
REMARK  status: ('A' for Active; 'I' for Inactive)
REMARK    1  A    between atoms: C_2  and  C_3 
REMARK    2  A    between atoms: C_7  and  N_8 
REMARK       I    between atoms: N_8  and  C_9 
REMARK    3  A    between atoms: C_9  and  C_10 
ROOT
HETATM    1  N   UNL     1      42.969 -13.462   5.831  1.00  0.00    -0.311 N 
HETATM    2  C   UNL     1      42.499 -14.662   6.340  1.00  0.00     0.234 C 
HETATM    3  O   UNL     1      42.692 -15.037   7.499  1.00  0.00    -0.272 OA
HETATM    4  H   UNL     1      42.776 -13.204   4.869  1.00  0.00     0.170 HD
ENDROOT
BRANCH   2   5
HETATM    5  C   UNL     1      41.661 -15.499   5.387  1.00  0.00     0.138 C 
HETATM    6  C   UNL     1      42.401 -16.581   4.686  1.00  0.00    -0.008 A 
HETATM    7  C   UNL     1      42.582 -16.225   3.358  1.00  0.00     0.076 A 
HETATM    8  C   UNL     1      42.921 -17.766   5.182  1.00  0.00     0.030 A 
HETATM    9  C   UNL     1      43.287 -17.019   2.476  1.00  0.00     0.039 A 
HETATM   10  O   UNL     1      42.047 -15.008   3.037  1.00  0.00    -0.349 OA
HETATM   11  C   UNL     1      43.813 -18.220   2.957  1.00  0.00     0.022 A 
HETATM   12  C   UNL     1      43.630 -18.586   4.300  1.00  0.00     0.011 A 
HETATM   13 BR   UNL     1      44.365 -20.211   4.929  1.00  0.00    -0.051 Br
HETATM   14  C   UNL     1      41.213 -14.674   4.177  1.00  0.00     0.194 C 
ENDBRANCH   2   5
BRANCH   1  15
HETATM   15  C   UNL     1      43.752 -12.606   6.580  1.00  0.00     0.126 A 
HETATM   16  N   UNL     1      43.480 -12.227   7.869  1.00  0.00    -0.262 N 
HETATM   17  N   UNL     1      44.395 -11.390   8.388  1.00  0.00    -0.178 NA
HETATM   18  H   UNL     1      42.683 -12.517   8.431  1.00  0.00     0.191 HD
HETATM   19  C   UNL     1      45.286 -11.236   7.401  1.00  0.00     0.058 A 
HETATM   20  C   UNL     1      44.922 -11.970   6.245  1.00  0.00     0.079 A 
BRANCH  19  21
HETATM   21  C   UNL     1      46.488 -10.375   7.598  1.00  0.00     0.056 C 
HETATM   22  C   UNL     1      46.146  -9.051   8.266  1.00  0.00     0.011 C 
ENDBRANCH  19  21
ENDBRANCH   1  15
TORSDOF 3
ENDMDL
MODEL 2
REMARK VINA RESULT:      -7.6      4.569      7.341
REMARK  3 active torsions:
REMARK  status: ('A' for Active; 'I' for Inactive)
REMARK    1  A    between atoms: C_2  and  C_3 
REMARK    2  A    between atoms: C_7  and  N_8 
REMARK       I    between atoms: N_8  and  C_9 
REMARK    3  A    between atoms: C_9  and  C_10 
ROOT
HETATM    1  N   UNL     1      41.466 -13.798   0.291  1.00  0.00    -0.311 N 
HETATM    2  C   UNL     1      41.526 -14.471   1.500  1.00  0.00     0.234 C 
HETATM    3  O   UNL     1      40.543 -14.956   2.064  1.00  0.00    -0.272 OA
HETATM    4  H   UNL     1      42.312 -13.423  -0.128  1.00  0.00     0.170 HD
ENDROOT
BRANCH   2   5
HETATM    5  C   UNL     1      42.916 -14.634   2.096  1.00  0.00     0.138 C 
HETATM    6  C   UNL     1      43.167 -15.943   2.754  1.00  0.00    -0.008 A 
HETATM    7  C   UNL     1      43.185 -15.767   4.130  1.00  0.00     0.076 A 
HETATM    8  C   UNL     1      43.318 -17.202   2.196  1.00  0.00     0.030 A 
HETATM    9  C   UNL     1      43.345 -16.824   5.002  1.00  0.00     0.039 A 
HETATM   10  O   UNL     1      42.979 -14.472   4.521  1.00  0.00    -0.349 OA
HETATM   11  C   UNL     1      43.505 -18.101   4.457  1.00  0.00     0.022 A 
HETATM   12  C   UNL     1      43.491 -18.284   3.065  1.00  0.00     0.011 A 
HETATM   13 BR   UNL     1      43.694 -20.024   2.354  1.00  0.00    -0.051 Br
HETATM   14  C   UNL     1      43.114 -13.705   3.297  1.00  0.00     0.194 C 
ENDBRANCH   2   5
BRANCH   1  15
HETATM   15  C   UNL     1      40.271 -13.567  -0.359  1.00  0.00     0.126 A 
HETATM   16  N   UNL     1      39.275 -12.748   0.109  1.00  0.00    -0.262 N 
HETATM   17  N   UNL     1      38.208 -12.679  -0.706  1.00  0.00    -0.178 NA
HETATM   18  H   UNL     1      39.283 -12.218   0.977  1.00  0.00     0.191 HD
HETATM   19  C   UNL     1      38.537 -13.473  -1.733  1.00  0.00     0.058 A 
HETATM   20  C   UNL     1      39.815 -14.059  -1.557  1.00  0.00     0.079 A 
BRANCH  19  21
HETATM   21  C   UNL     1      37.599 -13.649  -2.880  1.00  0.00     0.056 C 
HETATM   22  C   UNL     1      38.009 -14.799  -3.789  1.00  0.00     0.011 C 
ENDBRANCH  19  21
ENDBRANCH   1  15
TORSDOF 3
ENDMDL
MODEL 3
REMARK VINA RESULT:      -6.7      3.680      5.007
REMARK  3 active torsions:
REMARK  status: ('A' for Active; 'I' for Inactive)
REMARK    1  A    between atoms: C_2  and  C_3 
REMARK    2  A    between atoms: C_7  and  N_8 
REMARK       I    between atoms: N_8  and  C_9 
REMARK    3  A    between atoms: C_9  and  C_10 
ROOT
HETATM    1  N   UNL     1      42.440 -14.548   3.981  1.00  0.00    -0.311 N 
HETATM    2  C   UNL     1      42.371 -15.645   4.824  1.00  0.00     0.234 C 
HETATM    3  O   UNL     1      41.316 -16.092   5.283  1.00  0.00    -0.272 OA
HETATM    4  H   UNL     1      43.338 -14.228   3.632  1.00  0.00     0.170 HD
ENDROOT
BRANCH   2   5
HETATM    5  C   UNL     1      43.694 -16.329   5.126  1.00  0.00     0.138 C 
HETATM    6  C   UNL     1      43.760 -17.765   4.746  1.00  0.00    -0.008 A 
HETATM    7  C   UNL     1      43.712 -18.545   5.891  1.00  0.00     0.076 A 
HETATM    8  C   UNL     1      43.809 -18.348   3.490  1.00  0.00     0.030 A 
HETATM    9  C   UNL     1      43.701 -19.924   5.839  1.00  0.00     0.039 A 
HETATM   10  O   UNL     1      43.622 -17.819   7.048  1.00  0.00    -0.349 OA
HETATM   11  C   UNL     1      43.756 -20.530   4.582  1.00  0.00     0.022 A 
HETATM   12  C   UNL     1      43.809 -19.744   3.419  1.00  0.00     0.011 A 
HETATM   13 BR   UNL     1      43.868 -20.589   1.728  1.00  0.00    -0.051 Br
HETATM   14  C   UNL     1      43.916 -16.458   6.637  1.00  0.00     0.194 C 
ENDBRANCH   2   5
BRANCH   1  15
HETATM   15  C   UNL     1      41.319 -13.823   3.629  1.00  0.00     0.126 A 
HETATM   16  N   UNL     1      40.413 -13.308   4.520  1.00  0.00    -0.262 N 
HETATM   17  N   UNL     1      39.407 -12.634   3.935  1.00  0.00    -0.178 NA
HETATM   18  H   UNL     1      40.444 -13.392   5.533  1.00  0.00     0.191 HD
HETATM   19  C   UNL     1      39.686 -12.713   2.628  1.00  0.00     0.058 A 
HETATM   20  C   UNL     1      40.868 -13.456   2.386  1.00  0.00     0.079 A 
BRANCH  19  21
HETATM   21  C   UNL     1      38.794 -12.059   1.627  1.00  0.00     0.056 C 
HETATM   22  C   UNL     1      38.106 -10.823   2.188  1.00  0.00     0.011 C 
ENDBRANCH  19  21
ENDBRANCH   1  15
TORSDOF 3
ENDMDL
MODEL 4
REMARK VINA RESULT:      -6.7      5.148      7.450
REMARK  3 active torsions:
REMARK  status: ('A' for Active; 'I' for Inactive)
REMARK    1  A    between atoms: C_2  and  C_3 
REMARK    2  A    between atoms: C_7  and  N_8 
REMARK       I    between atoms: N_8  and  C_9 
REMARK    3  A    between atoms: C_9  and  C_10 
ROOT
HETATM    1  N   UNL     1      41.218 -15.327   2.603  1.00  0.00    -0.311 N 
HETATM    2  C   UNL     1      41.703 -14.152   2.054  1.00  0.00     0.234 C 
HETATM    3  O   UNL     1      42.897 -13.942   1.829  1.00  0.00    -0.272 OA
HETATM    4  H   UNL     1      40.222 -15.444   2.762  1.00  0.00     0.170 HD
ENDROOT
BRANCH   2   5
HETATM    5  C   UNL     1      40.655 -13.117   1.679  1.00  0.00     0.138 C 
HETATM    6  C   UNL     1      40.326 -13.051   0.231  1.00  0.00    -0.008 A 
HETATM    7  C   UNL     1      40.878 -11.901  -0.312  1.00  0.00     0.076 A 
HETATM    8  C   UNL     1      39.639 -13.954  -0.564  1.00  0.00     0.030 A 
HETATM    9  C   UNL     1      40.779 -11.604  -1.656  1.00  0.00     0.039 A 
HETATM   10  O   UNL     1      41.561 -11.137   0.596  1.00  0.00    -0.349 OA
HETATM   11  C   UNL     1      40.084 -12.500  -2.473  1.00  0.00     0.022 A 
HETATM   12  C   UNL     1      39.521 -13.665  -1.927  1.00  0.00     0.011 A 
HETATM   13 BR   UNL     1      38.599 -14.868  -3.056  1.00  0.00    -0.051 Br
HETATM   14  C   UNL     1      41.186 -11.694   1.882  1.00  0.00     0.194 C 
ENDBRANCH   2   5
BRANCH   1  15
HETATM   15  C   UNL     1      42.055 -16.350   3.001  1.00  0.00     0.126 A 
HETATM   16  N   UNL     1      42.586 -16.478   4.259  1.00  0.00    -0.262 N 
HETATM   17  N   UNL     1      43.369 -17.562   4.404  1.00  0.00    -0.178 NA
HETATM   18  H   UNL     1      42.439 -15.851   5.046  1.00  0.00     0.191 HD
HETATM   19  C   UNL     1      43.329 -18.150   3.202  1.00  0.00     0.058 A 
HETATM   20  C   UNL     1      42.528 -17.423   2.287  1.00  0.00     0.079 A 
BRANCH  19  21
HETATM   21  C   UNL     1      44.074 -19.420   2.960  1.00  0.00     0.056 C 
HETATM   22  C   UNL     1      43.385 -20.304   1.930  1.00  0.00     0.011 C 
ENDBRANCH  19  21
ENDBRANCH   1  15
TORSDOF 3
ENDMDL
MODEL 5
REMARK VINA RESULT:      -6.6      4.553      6.355
REMARK  3 active torsions:
REMARK  status: ('A' for Active; 'I' for Inactive)
REMARK    1  A    between atoms: C_2  and  C_3 
REMARK    2  A    between atoms: C_7  and  N_8 
REMARK       I    between atoms: N_8  and  C_9 
REMARK    3  A    between atoms: C_9  and  C_10 
ROOT
HETATM    1  N   UNL     1      43.192 -10.104   9.875  1.00  0.00    -0.311 N 
HETATM    2  C   UNL     1      42.772  -9.519   8.691  1.00  0.00     0.234 C 
HETATM    3  O   UNL     1      41.871  -8.681   8.623  1.00  0.00    -0.272 OA
HETATM    4  H   UNL     1      43.943 -10.787   9.869  1.00  0.00     0.170 HD
ENDROOT
BRANCH   2   5
HETATM    5  C   UNL     1      43.535  -9.934   7.443  1.00  0.00     0.138 C 
HETATM    6  C   UNL     1      43.048 -11.181   6.795  1.00  0.00    -0.008 A 
HETATM    7  C   UNL     1      43.952 -12.204   7.035  1.00  0.00     0.076 A 
HETATM    8  C   UNL     1      41.878 -11.415   6.091  1.00  0.00     0.030 A 
HETATM    9  C   UNL     1      43.732 -13.494   6.597  1.00  0.00     0.039 A 
HETATM   10  O   UNL     1      45.033 -11.820   7.780  1.00  0.00    -0.349 OA
HETATM   11  C   UNL     1      42.561 -13.749   5.879  1.00  0.00     0.022 A 
HETATM   12  C   UNL     1      41.644 -12.714   5.631  1.00  0.00     0.011 A 
HETATM   13 BR   UNL     1      40.059 -13.088   4.671  1.00  0.00    -0.051 Br
HETATM   14  C   UNL     1      44.962 -10.370   7.789  1.00  0.00     0.194 C 
ENDBRANCH   2   5
BRANCH   1  15
HETATM   15  C   UNL     1      42.584  -9.830  11.083  1.00  0.00     0.126 A 
HETATM   16  N   UNL     1      41.307 -10.202  11.415  1.00  0.00    -0.262 N 
HETATM   17  N   UNL     1      40.941  -9.824  12.652  1.00  0.00    -0.178 NA
HETATM   18  H   UNL     1      40.653 -10.715  10.829  1.00  0.00     0.191 HD
HETATM   19  C   UNL     1      42.023  -9.197  13.130  1.00  0.00     0.058 A 
HETATM   20  C   UNL     1      43.075  -9.167  12.181  1.00  0.00     0.079 A 
BRANCH  19  21
HETATM   21  C   UNL     1      42.021  -8.637  14.512  1.00  0.00     0.056 C 
HETATM   22  C   UNL     1      42.775  -7.318  14.601  1.00  0.00     0.011 C 
ENDBRANCH  19  21
ENDBRANCH   1  15
TORSDOF 3
ENDMDL
MODEL 6
REMARK VINA RESULT:      -6.6     15.323     16.774
REMARK  3 active torsions:
REMARK  status: ('A' for Active; 'I' for Inactive)
REMARK    1  A    between atoms: C_2  and  C_3 
REMARK    2  A    between atoms: C_7  and  N_8 
REMARK       I    between atoms: N_8  and  C_9 
REMARK    3  A    between atoms: C_9  and  C_10 
ROOT
HETATM    1  N   UNL     1      43.824 -29.001   2.305  1.00  0.00    -0.311 N 
HETATM    2  C   UNL     1      45.141 -29.429   2.320  1.00  0.00     0.234 C 
HETATM    3  O   UNL     1      45.488 -30.568   2.639  1.00  0.00    -0.272 OA
HETATM    4  H   UNL     1      43.598 -28.050   2.030  1.00  0.00     0.170 HD
ENDROOT
BRANCH   2   5
HETATM    5  C   UNL     1      46.171 -28.410   1.858  1.00  0.00     0.138 C 
HETATM    6  C   UNL     1      46.519 -28.479   0.414  1.00  0.00    -0.008 A 
HETATM    7  C   UNL     1      47.787 -29.023   0.275  1.00  0.00     0.076 A 
HETATM    8  C   UNL     1      45.765 -28.139  -0.697  1.00  0.00     0.030 A 
HETATM    9  C   UNL     1      48.352 -29.258  -0.962  1.00  0.00     0.039 A 
HETATM   10  O   UNL     1      48.381 -29.345   1.465  1.00  0.00    -0.349 OA
HETATM   11  C   UNL     1      47.609 -28.915  -2.094  1.00  0.00     0.022 A 
HETATM   12  C   UNL     1      46.326 -28.361  -1.958  1.00  0.00     0.011 A 
HETATM   13 BR   UNL     1      45.335 -27.920  -3.507  1.00  0.00    -0.051 Br
HETATM   14  C   UNL     1      47.547 -28.703   2.464  1.00  0.00     0.194 C 
ENDBRANCH   2   5
BRANCH   1  15
HETATM   15  C   UNL     1      42.785 -29.815   2.710  1.00  0.00     0.126 A 
HETATM   16  N   UNL     1      42.354 -29.943   4.005  1.00  0.00    -0.262 N 
HETATM   17  N   UNL     1      41.321 -30.793   4.146  1.00  0.00    -0.178 NA
HETATM   18  H   UNL     1      42.733 -29.469   4.820  1.00  0.00     0.191 HD
HETATM   19  C   UNL     1      41.080 -31.215   2.899  1.00  0.00     0.058 A 
HETATM   20  C   UNL     1      41.977 -30.638   1.965  1.00  0.00     0.079 A 
BRANCH  19  21
HETATM   21  C   UNL     1      39.972 -32.177   2.629  1.00  0.00     0.056 C 
HETATM   22  C   UNL     1      39.423 -32.797   3.906  1.00  0.00     0.011 C 
ENDBRANCH  19  21
ENDBRANCH   1  15
TORSDOF 3
ENDMDL
MODEL 7
REMARK VINA RESULT:      -6.5      6.281      8.805
REMARK  3 active torsions:
REMARK  status: ('A' for Active; 'I' for Inactive)
REMARK    1  A    between atoms: C_2  and  C_3 
REMARK    2  A    between atoms: C_7  and  N_8 
REMARK       I    between atoms: N_8  and  C_9 
REMARK    3  A    between atoms: C_9  and  C_10 
ROOT
HETATM    1  N   UNL     1      41.651 -14.110   0.493  1.00  0.00    -0.311 N 
HETATM    2  C   UNL     1      40.576 -14.058  -0.378  1.00  0.00     0.234 C 
HETATM    3  O   UNL     1      39.673 -14.897  -0.403  1.00  0.00    -0.272 OA
HETATM    4  H   UNL     1      42.364 -13.387   0.469  1.00  0.00     0.170 HD
ENDROOT
BRANCH   2   5
HETATM    5  C   UNL     1      40.531 -12.849  -1.299  1.00  0.00     0.138 C 
HETATM    6  C   UNL     1      39.230 -12.130  -1.329  1.00  0.00    -0.008 A 
HETATM    7  C   UNL     1      38.590 -12.394  -2.530  1.00  0.00     0.076 A 
HETATM    8  C   UNL     1      38.628 -11.345  -0.360  1.00  0.00     0.030 A 
HETATM    9  C   UNL     1      37.333 -11.901  -2.814  1.00  0.00     0.039 A 
HETATM   10  O   UNL     1      39.297 -13.221  -3.361  1.00  0.00    -0.349 OA
HETATM   11  C   UNL     1      36.712 -11.101  -1.851  1.00  0.00     0.022 A 
HETATM   12  C   UNL     1      37.359 -10.828  -0.635  1.00  0.00     0.011 A 
HETATM   13 BR   UNL     1      36.491  -9.756   0.658  1.00  0.00    -0.051 Br
HETATM   14  C   UNL     1      40.620 -13.272  -2.769  1.00  0.00     0.194 C 
ENDBRANCH   2   5
BRANCH   1  15
HETATM   15  C   UNL     1      41.827 -15.155   1.378  1.00  0.00     0.126 A 
HETATM   16  N   UNL     1      40.918 -15.526   2.335  1.00  0.00    -0.262 N 
HETATM   17  N   UNL     1      41.313 -16.579   3.073  1.00  0.00    -0.178 NA
HETATM   18  H   UNL     1      40.018 -15.091   2.518  1.00  0.00     0.191 HD
HETATM   19  C   UNL     1      42.510 -16.896   2.563  1.00  0.00     0.058 A 
HETATM   20  C   UNL     1      42.879 -16.027   1.507  1.00  0.00     0.079 A 
BRANCH  19  21
HETATM   21  C   UNL     1      43.282 -18.049   3.112  1.00  0.00     0.056 C 
HETATM   22  C   UNL     1      43.252 -19.256   2.186  1.00  0.00     0.011 C 
ENDBRANCH  19  21
ENDBRANCH   1  15
TORSDOF 3
ENDMDL
MODEL 8
REMARK VINA RESULT:      -6.4      3.629      6.836
REMARK  3 active torsions:
REMARK  status: ('A' for Active; 'I' for Inactive)
REMARK    1  A    between atoms: C_2  and  C_3 
REMARK    2  A    between atoms: C_7  and  N_8 
REMARK       I    between atoms: N_8  and  C_9 
REMARK    3  A    between atoms: C_9  and  C_10 
ROOT
HETATM    1  N   UNL     1      42.761 -15.497   3.528  1.00  0.00    -0.311 N 
HETATM    2  C   UNL     1      43.161 -14.629   2.525  1.00  0.00     0.234 C 
HETATM    3  O   UNL     1      43.867 -14.963   1.571  1.00  0.00    -0.272 OA
HETATM    4  H   UNL     1      42.176 -15.165   4.289  1.00  0.00     0.170 HD
ENDROOT
BRANCH   2   5
HETATM    5  C   UNL     1      42.628 -13.210   2.631  1.00  0.00     0.138 C 
HETATM    6  C   UNL     1      42.805 -12.569   3.961  1.00  0.00    -0.008 A 
HETATM    7  C   UNL     1      41.579 -12.503   4.604  1.00  0.00     0.076 A 
HETATM    8  C   UNL     1      43.960 -12.123   4.583  1.00  0.00     0.030 A 
HETATM    9  C   UNL     1      41.449 -12.003   5.884  1.00  0.00     0.039 A 
HETATM   10  O   UNL     1      40.546 -13.023   3.873  1.00  0.00    -0.349 OA
HETATM   11  C   UNL     1      42.601 -11.542   6.525  1.00  0.00     0.022 A 
HETATM   12  C   UNL     1      43.845 -11.604   5.876  1.00  0.00     0.011 A 
HETATM   13 BR   UNL     1      45.392 -10.988   6.771  1.00  0.00    -0.051 Br
HETATM   14  C   UNL     1      41.098 -13.186   2.542  1.00  0.00     0.194 C 
ENDBRANCH   2   5
BRANCH   1  15
HETATM   15  C   UNL     1      43.177 -16.813   3.567  1.00  0.00     0.126 A 
HETATM   16  N   UNL     1      43.053 -17.700   2.529  1.00  0.00    -0.262 N 
HETATM   17  N   UNL     1      43.539 -18.923   2.806  1.00  0.00    -0.178 NA
HETATM   18  H   UNL     1      42.646 -17.513   1.616  1.00  0.00     0.191 HD
HETATM   19  C   UNL     1      43.996 -18.810   4.059  1.00  0.00     0.058 A 
HETATM   20  C   UNL     1      43.784 -17.511   4.582  1.00  0.00     0.079 A 
BRANCH  19  21
HETATM   21  C   UNL     1      44.641 -19.974   4.734  1.00  0.00     0.056 C 
HETATM   22  C   UNL     1      43.625 -21.010   5.193  1.00  0.00     0.011 C 
ENDBRANCH  19  21
ENDBRANCH   1  15
TORSDOF 3
ENDMDL
MODEL 9
REMARK VINA RESULT:      -5.9      4.585      6.809
REMARK  3 active torsions:
REMARK  status: ('A' for Active; 'I' for Inactive)
REMARK    1  A    between atoms: C_2  and  C_3 
REMARK    2  A    between atoms: C_7  and  N_8 
REMARK       I    between atoms: N_8  and  C_9 
REMARK    3  A    between atoms: C_9  and  C_10 
ROOT
HETATM    1  N   UNL     1      42.340 -15.747   3.093  1.00  0.00    -0.311 N 
HETATM    2  C   UNL     1      42.819 -15.166   1.930  1.00  0.00     0.234 C 
HETATM    3  O   UNL     1      43.881 -15.486   1.391  1.00  0.00    -0.272 OA
HETATM    4  H   UNL     1      41.456 -15.444   3.489  1.00  0.00     0.170 HD
ENDROOT
BRANCH   2   5
HETATM    5  C   UNL     1      41.919 -14.116   1.299  1.00  0.00     0.138 C 
HETATM    6  C   UNL     1      41.333 -13.136   2.251  1.00  0.00    -0.008 A 
HETATM    7  C   UNL     1      39.985 -13.414   2.420  1.00  0.00     0.076 A 
HETATM    8  C   UNL     1      41.942 -12.111   2.957  1.00  0.00     0.030 A 
HETATM    9  C   UNL     1      39.193 -12.697   3.293  1.00  0.00     0.039 A 
HETATM   10  O   UNL     1      39.547 -14.483   1.686  1.00  0.00    -0.349 OA
HETATM   11  C   UNL     1      39.788 -11.655   4.009  1.00  0.00     0.022 A 
HETATM   12  C   UNL     1      41.152 -11.368   3.839  1.00  0.00     0.011 A 
HETATM   13 BR   UNL     1      41.937  -9.962   4.830  1.00  0.00    -0.051 Br
HETATM   14  C   UNL     1      40.631 -14.745   0.758  1.00  0.00     0.194 C 
ENDBRANCH   2   5
BRANCH   1  15
HETATM   15  C   UNL     1      43.056 -16.707   3.780  1.00  0.00     0.126 A 
HETATM   16  N   UNL     1      43.744 -16.481   4.945  1.00  0.00    -0.262 N 
HETATM   17  N   UNL     1      44.358 -17.575   5.427  1.00  0.00    -0.178 NA
HETATM   18  H   UNL     1      43.818 -15.598   5.444  1.00  0.00     0.191 HD
HETATM   19  C   UNL     1      44.046 -18.533   4.546  1.00  0.00     0.058 A 
HETATM   20  C   UNL     1      43.240 -18.037   3.492  1.00  0.00     0.079 A 
BRANCH  19  21
HETATM   21  C   UNL     1      44.535 -19.929   4.745  1.00  0.00     0.056 C 
HETATM   22  C   UNL     1      43.842 -20.920   3.821  1.00  0.00     0.011 C 
ENDBRANCH  19  21
ENDBRANCH   1  15
TORSDOF 3
ENDMDL
MODEL 10
REMARK VINA RESULT:      -5.8     21.964     23.606
REMARK  3 active torsions:
REMARK  status: ('A' for Active; 'I' for Inactive)
REMARK    1  A    between atoms: C_2  and  C_3 
REMARK    2  A    between atoms: C_7  and  N_8 
REMARK       I    between atoms: N_8  and  C_9 
REMARK    3  A    between atoms: C_9  and  C_10 
ROOT
HETATM    1  N   UNL     1      54.650 -29.145  19.189  1.00  0.00    -0.311 N 
HETATM    2  C   UNL     1      55.589 -30.026  19.698  1.00  0.00     0.234 C 
HETATM    3  O   UNL     1      55.448 -31.251  19.704  1.00  0.00    -0.272 OA
HETATM    4  H   UNL     1      54.823 -28.145  19.209  1.00  0.00     0.170 HD
ENDROOT
BRANCH   2   5
HETATM    5  C   UNL     1      56.871 -29.395  20.220  1.00  0.00     0.138 C 
HETATM    6  C   UNL     1      57.079 -27.977  19.824  1.00  0.00    -0.008 A 
HETATM    7  C   UNL     1      58.075 -27.912  18.861  1.00  0.00     0.076 A 
HETATM    8  C   UNL     1      56.413 -26.834  20.236  1.00  0.00     0.030 A 
HETATM    9  C   UNL     1      58.444 -26.723  18.267  1.00  0.00     0.039 A 
HETATM   10  O   UNL     1      58.602 -29.132  18.533  1.00  0.00    -0.349 OA
HETATM   11  C   UNL     1      57.788 -25.558  18.675  1.00  0.00     0.022 A 
HETATM   12  C   UNL     1      56.781 -25.619  19.651  1.00  0.00     0.011 A 
HETATM   13 BR   UNL     1      55.898 -24.030  20.175  1.00  0.00    -0.051 Br
HETATM   14  C   UNL     1      58.103 -30.024  19.562  1.00  0.00     0.194 C 
ENDBRANCH   2   5
BRANCH   1  15
HETATM   15  C   UNL     1      53.436 -29.576  18.693  1.00  0.00     0.126 A 
HETATM   16  N   UNL     1      53.258 -30.155  17.463  1.00  0.00    -0.262 N 
HETATM   17  N   UNL     1      51.982 -30.496  17.208  1.00  0.00    -0.178 NA
HETATM   18  H   UNL     1      53.978 -30.338  16.769  1.00  0.00     0.191 HD
HETATM   19  C   UNL     1      51.325 -30.130  18.316  1.00  0.00     0.058 A 
HETATM   20  C   UNL     1      52.190 -29.540  19.271  1.00  0.00     0.079 A 
BRANCH  19  21
HETATM   21  C   UNL     1      49.857 -30.364  18.433  1.00  0.00     0.056 C 
HETATM   22  C   UNL     1      49.418 -30.567  19.876  1.00  0.00     0.011 C 
ENDBRANCH  19  21
ENDBRANCH   1  15
TORSDOF 3
ENDMDL
