MODEL 1
REMARK VINA RESULT:      -8.7      0.000      0.000
REMARK  6 active torsions:
REMARK  status: ('A' for Active; 'I' for Inactive)
REMARK    1  A    between atoms: C_3  and  C_4 
REMARK    2  A    between atoms: C_4  and  N_5 
REMARK    3  A    between atoms: C_4  and  C_9 
REMARK       I    between atoms: N_5  and  C_6 
REMARK       I    between atoms: C_6  and  N_7 
REMARK    4  A    between atoms: C_9  and  C_10 
REMARK       I    between atoms: C_10  and  N_11 
REMARK    5  A    between atoms: N_11  and  N_12 
REMARK       I    between atoms: N_12  and  C_13 
REMARK    6  A    between atoms: C_13  and  C_14 
ROOT
HETATM    1  C   UNL     1      40.552 -13.704   0.855  1.00  0.00     0.238 C 
HETATM    2  N   UNL     1      41.785 -14.245   0.556  1.00  0.00    -0.267 N 
HETATM    3  O   UNL     1      39.714 -14.304   1.528  1.00  0.00    -0.272 OA
HETATM    4  H   UNL     1      42.552 -13.694   0.168  1.00  0.00     0.190 HD
ENDROOT
BRANCH   1   5
HETATM    5  C   UNL     1      40.324 -12.348   0.225  1.00  0.00     0.134 C 
BRANCH   5   6
HETATM    6  C   UNL     1      39.275 -12.416  -0.900  1.00  0.00     0.129 C 
BRANCH   6   7
HETATM    7  C   UNL     1      38.095 -11.475  -0.673  1.00  0.00    -0.013 A 
HETATM    8  C   UNL     1      37.487 -11.397   0.595  1.00  0.00     0.011 A 
HETATM    9  C   UNL     1      36.406 -10.544   0.837  1.00  0.00     0.001 A 
HETATM   10  C   UNL     1      35.906  -9.747  -0.185  1.00  0.00     0.002 A 
HETATM   11  C   UNL     1      36.483  -9.810  -1.451  1.00  0.00     0.024 A 
HETATM   12  C   UNL     1      37.563 -10.669  -1.699  1.00  0.00     0.042 A 
HETATM   13 CL   UNL     1      38.188 -10.673  -3.312  1.00  0.00    -0.084 Cl
ENDBRANCH   6   7
BRANCH   6  14
HETATM   14  N   UNL     1      38.820 -13.769  -1.230  1.00  0.00    -0.339 N 
HETATM   15  C   UNL     1      38.998 -14.381  -2.430  1.00  0.00     0.292 C 
HETATM   16  N   UNL     1      38.419 -15.607  -2.465  1.00  0.00    -0.254 NA
HETATM   17  O   UNL     1      39.582 -13.927  -3.402  1.00  0.00    -0.254 OA
HETATM   18  H   UNL     1      38.466 -16.148  -1.613  1.00  0.00     0.128 HD
HETATM   19  H   UNL     1      38.635 -16.126  -3.307  1.00  0.00     0.128 HD
HETATM   20  H   UNL     1      37.976 -14.056  -0.753  1.00  0.00     0.164 HD
ENDBRANCH   6  14
ENDBRANCH   5   6
ENDBRANCH   1   5
BRANCH   2  21
HETATM   21  N   UNL     1      42.149 -15.426   1.206  1.00  0.00    -0.263 N 
HETATM   22  C   UNL     1      42.918 -15.340   2.346  1.00  0.00     0.270 C 
HETATM   23  O   UNL     1      43.310 -14.270   2.803  1.00  0.00    -0.266 OA
HETATM   24  H   UNL     1      41.883 -16.294   0.744  1.00  0.00     0.190 HD
BRANCH  22  25
HETATM   25  C   UNL     1      43.282 -16.626   3.000  1.00  0.00     0.036 A 
HETATM   26  C   UNL     1      43.190 -17.853   2.327  1.00  0.00     0.057 A 
HETATM   27  C   UNL     1      43.545 -18.990   3.022  1.00  0.00     0.106 A 
HETATM   28  C   UNL     1      43.971 -18.947   4.329  1.00  0.00     0.105 A 
HETATM   29  O   UNL     1      43.516 -20.257   2.528  1.00  0.00    -0.323 OA
HETATM   30  O   UNL     1      44.266 -20.180   4.818  1.00  0.00    -0.323 OA
HETATM   31  C   UNL     1      44.061 -17.761   5.022  1.00  0.00     0.041 A 
HETATM   32  C   UNL     1      43.971 -21.007   3.673  1.00  0.00     0.352 A 
HETATM   33  C   UNL     1      43.706 -16.587   4.349  1.00  0.00     0.020 A 
ENDBRANCH  22  25
ENDBRANCH   2  21
TORSDOF 6
ENDMDL
MODEL 2
REMARK VINA RESULT:      -8.5      3.311      9.618
REMARK  6 active torsions:
REMARK  status: ('A' for Active; 'I' for Inactive)
REMARK    1  A    between atoms: C_3  and  C_4 
REMARK    2  A    between atoms: C_4  and  N_5 
REMARK    3  A    between atoms: C_4  and  C_9 
REMARK       I    between atoms: N_5  and  C_6 
REMARK       I    between atoms: C_6  and  N_7 
REMARK    4  A    between atoms: C_9  and  C_10 
REMARK       I    between atoms: C_10  and  N_11 
REMARK    5  A    between atoms: N_11  and  N_12 
REMARK       I    between atoms: N_12  and  C_13 
REMARK    6  A    between atoms: C_13  and  C_14 
ROOT
HETATM    1  C   UNL     1      42.552 -14.685   1.503  1.00  0.00     0.238 C 
HETATM    2  N   UNL     1      41.678 -14.783   0.440  1.00  0.00    -0.267 N 
HETATM    3  O   UNL     1      42.708 -13.640   2.134  1.00  0.00    -0.272 OA
HETATM    4  H   UNL     1      41.399 -15.677   0.034  1.00  0.00     0.190 HD
ENDROOT
BRANCH   1   5
HETATM    5  C   UNL     1      43.326 -15.958   1.761  1.00  0.00     0.134 C 
BRANCH   5   6
HETATM    6  C   UNL     1      43.041 -16.519   3.166  1.00  0.00     0.129 C 
BRANCH   6   7
HETATM    7  C   UNL     1      43.343 -18.010   3.285  1.00  0.00    -0.013 A 
HETATM    8  C   UNL     1      43.087 -18.872   2.201  1.00  0.00     0.011 A 
HETATM    9  C   UNL     1      43.354 -20.243   2.276  1.00  0.00     0.001 A 
HETATM   10  C   UNL     1      43.884 -20.785   3.440  1.00  0.00     0.002 A 
HETATM   11  C   UNL     1      44.138 -19.957   4.531  1.00  0.00     0.024 A 
HETATM   12  C   UNL     1      43.866 -18.584   4.461  1.00  0.00     0.042 A 
HETATM   13 CL   UNL     1      44.209 -17.658   5.882  1.00  0.00    -0.084 Cl
ENDBRANCH   6   7
BRANCH   6  14
HETATM   14  N   UNL     1      41.711 -16.203   3.692  1.00  0.00    -0.339 N 
HETATM   15  C   UNL     1      41.467 -15.448   4.794  1.00  0.00     0.292 C 
HETATM   16  N   UNL     1      40.142 -15.373   5.076  1.00  0.00    -0.254 NA
HETATM   17  O   UNL     1      42.297 -14.893   5.498  1.00  0.00    -0.254 OA
HETATM   18  H   UNL     1      39.518 -15.320   4.283  1.00  0.00     0.128 HD
HETATM   19  H   UNL     1      39.929 -14.726   5.825  1.00  0.00     0.128 HD
HETATM   20  H   UNL     1      41.015 -16.918   3.532  1.00  0.00     0.164 HD
ENDBRANCH   6  14
ENDBRANCH   5   6
ENDBRANCH   1   5
BRANCH   2  21
HETATM   21  N   UNL     1      40.813 -13.711   0.211  1.00  0.00    -0.263 N 
HETATM   22  C   UNL     1      39.693 -13.923  -0.563  1.00  0.00     0.270 C 
HETATM   23  O   UNL     1      39.434 -15.010  -1.072  1.00  0.00    -0.266 OA
HETATM   24  H   UNL     1      41.113 -12.807   0.572  1.00  0.00     0.190 HD
BRANCH  22  25
HETATM   25  C   UNL     1      38.805 -12.749  -0.781  1.00  0.00     0.036 A 
HETATM   26  C   UNL     1      37.960 -12.656  -1.896  1.00  0.00     0.057 A 
HETATM   27  C   UNL     1      37.178 -11.525  -2.012  1.00  0.00     0.106 A 
HETATM   28  C   UNL     1      37.215 -10.512  -1.083  1.00  0.00     0.105 A 
HETATM   29  O   UNL     1      36.307 -11.269  -3.024  1.00  0.00    -0.323 OA
HETATM   30  O   UNL     1      36.368  -9.495  -1.393  1.00  0.00    -0.323 OA
HETATM   31  C   UNL     1      38.041 -10.566   0.017  1.00  0.00     0.041 A 
HETATM   32  C   UNL     1      35.798  -9.978  -2.627  1.00  0.00     0.352 A 
HETATM   33  C   UNL     1      38.850 -11.698   0.165  1.00  0.00     0.020 A 
ENDBRANCH  22  25
ENDBRANCH   2  21
TORSDOF 6
ENDMDL
MODEL 3
REMARK VINA RESULT:      -8.3      2.615      3.844
REMARK  6 active torsions:
REMARK  status: ('A' for Active; 'I' for Inactive)
REMARK    1  A    between atoms: C_3  and  C_4 
REMARK    2  A    between atoms: C_4  and  N_5 
REMARK    3  A    between atoms: C_4  and  C_9 
REMARK       I    between atoms: N_5  and  C_6 
REMARK       I    between atoms: C_6  and  N_7 
REMARK    4  A    between atoms: C_9  and  C_10 
REMARK       I    between atoms: C_10  and  N_11 
REMARK    5  A    between atoms: N_11  and  N_12 
REMARK       I    between atoms: N_12  and  C_13 
REMARK    6  A    between atoms: C_13  and  C_14 
ROOT
HETATM    1  C   UNL     1      38.961 -12.258   2.402  1.00  0.00     0.238 C 
HETATM    2  N   UNL     1      38.836 -13.633   2.426  1.00  0.00    -0.267 N 
HETATM    3  O   UNL     1      39.730 -11.654   3.150  1.00  0.00    -0.272 OA
HETATM    4  H   UNL     1      38.354 -14.157   1.696  1.00  0.00     0.190 HD
ENDROOT
BRANCH   1   5
HETATM    5  C   UNL     1      38.025 -11.588   1.422  1.00  0.00     0.134 C 
BRANCH   5   6
HETATM    6  C   UNL     1      38.734 -11.257   0.097  1.00  0.00     0.129 C 
BRANCH   6   7
HETATM    7  C   UNL     1      38.526 -12.325  -0.974  1.00  0.00    -0.013 A 
HETATM    8  C   UNL     1      39.352 -13.466  -1.005  1.00  0.00     0.011 A 
HETATM    9  C   UNL     1      39.188 -14.462  -1.971  1.00  0.00     0.001 A 
HETATM   10  C   UNL     1      38.191 -14.343  -2.931  1.00  0.00     0.002 A 
HETATM   11  C   UNL     1      37.366 -13.221  -2.930  1.00  0.00     0.024 A 
HETATM   12  C   UNL     1      37.532 -12.216  -1.967  1.00  0.00     0.042 A 
HETATM   13 CL   UNL     1      36.459 -10.863  -2.072  1.00  0.00    -0.084 Cl
ENDBRANCH   6   7
BRANCH   6  14
HETATM   14  N   UNL     1      40.151 -10.909   0.233  1.00  0.00    -0.339 N 
HETATM   15  C   UNL     1      40.634  -9.648   0.370  1.00  0.00     0.292 C 
HETATM   16  N   UNL     1      41.990  -9.625   0.415  1.00  0.00    -0.254 NA
HETATM   17  O   UNL     1      39.981  -8.617   0.434  1.00  0.00    -0.254 OA
HETATM   18  H   UNL     1      42.434 -10.390   0.903  1.00  0.00     0.128 HD
HETATM   19  H   UNL     1      42.368  -8.711   0.629  1.00  0.00     0.128 HD
HETATM   20  H   UNL     1      40.784 -11.533  -0.249  1.00  0.00     0.164 HD
ENDBRANCH   6  14
ENDBRANCH   5   6
ENDBRANCH   1   5
BRANCH   2  21
HETATM   21  N   UNL     1      39.755 -14.353   3.191  1.00  0.00    -0.263 N 
HETATM   22  C   UNL     1      40.373 -15.446   2.621  1.00  0.00     0.270 C 
HETATM   23  O   UNL     1      40.134 -15.820   1.475  1.00  0.00    -0.266 OA
HETATM   24  H   UNL     1      39.854 -14.067   4.163  1.00  0.00     0.190 HD
BRANCH  22  25
HETATM   25  C   UNL     1      41.341 -16.183   3.476  1.00  0.00     0.036 A 
HETATM   26  C   UNL     1      41.315 -16.089   4.875  1.00  0.00     0.057 A 
HETATM   27  C   UNL     1      42.259 -16.807   5.580  1.00  0.00     0.106 A 
HETATM   28  C   UNL     1      43.203 -17.587   4.954  1.00  0.00     0.105 A 
HETATM   29  O   UNL     1      42.381 -16.832   6.934  1.00  0.00    -0.323 OA
HETATM   30  O   UNL     1      44.033 -18.203   5.837  1.00  0.00    -0.323 OA
HETATM   31  C   UNL     1      43.264 -17.691   3.583  1.00  0.00     0.041 A 
HETATM   32  C   UNL     1      43.510 -17.717   7.090  1.00  0.00     0.352 A 
HETATM   33  C   UNL     1      42.323 -16.974   2.836  1.00  0.00     0.020 A 
ENDBRANCH  22  25
ENDBRANCH   2  21
TORSDOF 6
ENDMDL
MODEL 4
REMARK VINA RESULT:      -8.3      6.345      9.471
REMARK  6 active torsions:
REMARK  status: ('A' for Active; 'I' for Inactive)
REMARK    1  A    between atoms: C_3  and  C_4 
REMARK    2  A    between atoms: C_4  and  N_5 
REMARK    3  A    between atoms: C_4  and  C_9 
REMARK       I    between atoms: N_5  and  C_6 
REMARK       I    between atoms: C_6  and  N_7 
REMARK    4  A    between atoms: C_9  and  C_10 
REMARK       I    between atoms: C_10  and  N_11 
REMARK    5  A    between atoms: N_11  and  N_12 
REMARK       I    between atoms: N_12  and  C_13 
REMARK    6  A    between atoms: C_13  and  C_14 
ROOT
HETATM    1  C   UNL     1      42.578 -13.456   5.150  1.00  0.00     0.238 C 
HETATM    2  N   UNL     1      43.647 -13.374   6.019  1.00  0.00    -0.267 N 
HETATM    3  O   UNL     1      41.476 -12.976   5.414  1.00  0.00    -0.272 OA
HETATM    4  H   UNL     1      44.604 -13.595   5.741  1.00  0.00     0.190 HD
ENDROOT
BRANCH   1   5
HETATM    5  C   UNL     1      42.886 -14.240   3.894  1.00  0.00     0.134 C 
BRANCH   5   6
HETATM    6  C   UNL     1      42.024 -15.512   3.795  1.00  0.00     0.129 C 
BRANCH   6   7
HETATM    7  C   UNL     1      42.795 -16.783   4.143  1.00  0.00    -0.013 A 
HETATM    8  C   UNL     1      43.420 -17.531   3.125  1.00  0.00     0.011 A 
HETATM    9  C   UNL     1      44.134 -18.698   3.409  1.00  0.00     0.001 A 
HETATM   10  C   UNL     1      44.242 -19.147   4.719  1.00  0.00     0.002 A 
HETATM   11  C   UNL     1      43.627 -18.432   5.744  1.00  0.00     0.024 A 
HETATM   12  C   UNL     1      42.904 -17.264   5.462  1.00  0.00     0.042 A 
HETATM   13 CL   UNL     1      42.171 -16.468   6.813  1.00  0.00    -0.084 Cl
ENDBRANCH   6   7
BRANCH   6  14
HETATM   14  N   UNL     1      41.296 -15.660   2.533  1.00  0.00    -0.339 N 
HETATM   15  C   UNL     1      40.172 -14.977   2.196  1.00  0.00     0.292 C 
HETATM   16  N   UNL     1      39.684 -15.363   0.990  1.00  0.00    -0.254 NA
HETATM   17  O   UNL     1      39.610 -14.121   2.862  1.00  0.00    -0.254 OA
HETATM   18  H   UNL     1      40.369 -15.585   0.281  1.00  0.00     0.128 HD
HETATM   19  H   UNL     1      38.914 -14.791   0.669  1.00  0.00     0.128 HD
HETATM   20  H   UNL     1      41.342 -16.585   2.129  1.00  0.00     0.164 HD
ENDBRANCH   6  14
ENDBRANCH   5   6
ENDBRANCH   1   5
BRANCH   2  21
HETATM   21  N   UNL     1      43.509 -12.551   7.139  1.00  0.00    -0.263 N 
HETATM   22  C   UNL     1      44.372 -11.486   7.283  1.00  0.00     0.270 C 
HETATM   23  O   UNL     1      45.266 -11.242   6.476  1.00  0.00    -0.266 OA
HETATM   24  H   UNL     1      42.819 -12.842   7.828  1.00  0.00     0.190 HD
BRANCH  22  25
HETATM   25  C   UNL     1      44.188 -10.641   8.493  1.00  0.00     0.036 A 
HETATM   26  C   UNL     1      42.959 -10.036   8.795  1.00  0.00     0.057 A 
HETATM   27  C   UNL     1      42.890  -9.266   9.938  1.00  0.00     0.106 A 
HETATM   28  C   UNL     1      43.976  -9.081  10.762  1.00  0.00     0.105 A 
HETATM   29  O   UNL     1      41.785  -8.609  10.380  1.00  0.00    -0.323 OA
HETATM   30  O   UNL     1      43.687  -8.287  11.827  1.00  0.00    -0.323 OA
HETATM   31  C   UNL     1      45.199  -9.650  10.488  1.00  0.00     0.041 A 
HETATM   32  C   UNL     1      42.299  -7.987  11.577  1.00  0.00     0.352 A 
HETATM   33  C   UNL     1      45.305 -10.436   9.335  1.00  0.00     0.020 A 
ENDBRANCH  22  25
ENDBRANCH   2  21
TORSDOF 6
ENDMDL
MODEL 5
REMARK VINA RESULT:      -8.0      5.922      8.712
REMARK  6 active torsions:
REMARK  status: ('A' for Active; 'I' for Inactive)
REMARK    1  A    between atoms: C_3  and  C_4 
REMARK    2  A    between atoms: C_4  and  N_5 
REMARK    3  A    between atoms: C_4  and  C_9 
REMARK       I    between atoms: N_5  and  C_6 
REMARK       I    between atoms: C_6  and  N_7 
REMARK    4  A    between atoms: C_9  and  C_10 
REMARK       I    between atoms: C_10  and  N_11 
REMARK    5  A    between atoms: N_11  and  N_12 
REMARK       I    between atoms: N_12  and  C_13 
REMARK    6  A    between atoms: C_13  and  C_14 
ROOT
HETATM    1  C   UNL     1      41.322 -14.407   6.204  1.00  0.00     0.238 C 
HETATM    2  N   UNL     1      42.587 -14.079   6.647  1.00  0.00    -0.267 N 
HETATM    3  O   UNL     1      40.351 -13.670   6.377  1.00  0.00    -0.272 OA
HETATM    4  H   UNL     1      43.424 -14.580   6.350  1.00  0.00     0.190 HD
ENDROOT
BRANCH   1   5
HETATM    5  C   UNL     1      41.250 -15.770   5.554  1.00  0.00     0.134 C 
BRANCH   5   6
HETATM    6  C   UNL     1      42.215 -15.879   4.360  1.00  0.00     0.129 C 
BRANCH   6   7
HETATM    7  C   UNL     1      41.605 -15.383   3.052  1.00  0.00    -0.013 A 
HETATM    8  C   UNL     1      40.599 -16.133   2.411  1.00  0.00     0.011 A 
HETATM    9  C   UNL     1      40.019 -15.706   1.214  1.00  0.00     0.001 A 
HETATM   10  C   UNL     1      40.429 -14.517   0.627  1.00  0.00     0.002 A 
HETATM   11  C   UNL     1      41.428 -13.759   1.234  1.00  0.00     0.024 A 
HETATM   12  C   UNL     1      42.017 -14.187   2.431  1.00  0.00     0.042 A 
HETATM   13 CL   UNL     1      43.256 -13.172   3.085  1.00  0.00    -0.084 Cl
ENDBRANCH   6   7
BRANCH   6  14
HETATM   14  N   UNL     1      42.833 -17.197   4.192  1.00  0.00    -0.339 N 
HETATM   15  C   UNL     1      43.995 -17.594   4.772  1.00  0.00     0.292 C 
HETATM   16  N   UNL     1      44.353 -18.845   4.389  1.00  0.00    -0.254 NA
HETATM   17  O   UNL     1      44.687 -16.944   5.540  1.00  0.00    -0.254 OA
HETATM   18  H   UNL     1      43.600 -19.508   4.266  1.00  0.00     0.128 HD
HETATM   19  H   UNL     1      45.153 -19.204   4.894  1.00  0.00     0.128 HD
HETATM   20  H   UNL     1      42.664 -17.628   3.293  1.00  0.00     0.164 HD
ENDBRANCH   6  14
ENDBRANCH   5   6
ENDBRANCH   1   5
BRANCH   2  21
HETATM   21  N   UNL     1      42.788 -12.785   7.131  1.00  0.00    -0.263 N 
HETATM   22  C   UNL     1      44.036 -12.216   6.990  1.00  0.00     0.270 C 
HETATM   23  O   UNL     1      44.980 -12.807   6.472  1.00  0.00    -0.266 OA
HETATM   24  H   UNL     1      42.008 -12.367   7.635  1.00  0.00     0.190 HD
BRANCH  22  25
HETATM   25  C   UNL     1      44.201 -10.837   7.524  1.00  0.00     0.036 A 
HETATM   26  C   UNL     1      43.106  -9.988   7.736  1.00  0.00     0.057 A 
HETATM   27  C   UNL     1      43.363  -8.725   8.229  1.00  0.00     0.106 A 
HETATM   28  C   UNL     1      44.640  -8.293   8.504  1.00  0.00     0.105 A 
HETATM   29  O   UNL     1      42.426  -7.775   8.492  1.00  0.00    -0.323 OA
HETATM   30  O   UNL     1      44.664  -7.019   8.979  1.00  0.00    -0.323 OA
HETATM   31  C   UNL     1      45.738  -9.097   8.296  1.00  0.00     0.041 A 
HETATM   32  C   UNL     1      43.258  -6.695   8.964  1.00  0.00     0.352 A 
HETATM   33  C   UNL     1      45.513 -10.384   7.795  1.00  0.00     0.020 A 
ENDBRANCH  22  25
ENDBRANCH   2  21
TORSDOF 6
ENDMDL
MODEL 6
REMARK VINA RESULT:      -7.9      7.874      9.708
REMARK  6 active torsions:
REMARK  status: ('A' for Active; 'I' for Inactive)
REMARK    1  A    between atoms: C_3  and  C_4 
REMARK    2  A    between atoms: C_4  and  N_5 
REMARK    3  A    between atoms: C_4  and  C_9 
REMARK       I    between atoms: N_5  and  C_6 
REMARK       I    between atoms: C_6  and  N_7 
REMARK    4  A    between atoms: C_9  and  C_10 
REMARK       I    between atoms: C_10  and  N_11 
REMARK    5  A    between atoms: N_11  and  N_12 
REMARK       I    between atoms: N_12  and  C_13 
REMARK    6  A    between atoms: C_13  and  C_14 
ROOT
HETATM    1  C   UNL     1      42.197 -10.117   6.808  1.00  0.00     0.238 C 
HETATM    2  N   UNL     1      42.567 -11.337   7.338  1.00  0.00    -0.267 N 
HETATM    3  O   UNL     1      41.930  -9.970   5.615  1.00  0.00    -0.272 OA
HETATM    4  H   UNL     1      42.605 -11.515   8.341  1.00  0.00     0.190 HD
ENDROOT
BRANCH   1   5
HETATM    5  C   UNL     1      42.216  -8.994   7.820  1.00  0.00     0.134 C 
BRANCH   5   6
HETATM    6  C   UNL     1      43.387  -9.143   8.808  1.00  0.00     0.129 C 
BRANCH   6   7
HETATM    7  C   UNL     1      43.141  -8.430  10.136  1.00  0.00    -0.013 A 
HETATM    8  C   UNL     1      42.700  -7.092  10.148  1.00  0.00     0.011 A 
HETATM    9  C   UNL     1      42.464  -6.410  11.345  1.00  0.00     0.001 A 
HETATM   10  C   UNL     1      42.663  -7.051  12.561  1.00  0.00     0.002 A 
HETATM   11  C   UNL     1      43.108  -8.371  12.579  1.00  0.00     0.024 A 
HETATM   12  C   UNL     1      43.351  -9.055  11.380  1.00  0.00     0.042 A 
HETATM   13 CL   UNL     1      43.914 -10.685  11.525  1.00  0.00    -0.084 Cl
ENDBRANCH   6   7
BRANCH   6  14
HETATM   14  N   UNL     1      44.699  -8.801   8.257  1.00  0.00    -0.339 N 
HETATM   15  C   UNL     1      45.772  -9.633   8.223  1.00  0.00     0.292 C 
HETATM   16  N   UNL     1      46.871  -9.026   7.708  1.00  0.00    -0.254 NA
HETATM   17  O   UNL     1      45.812 -10.791   8.611  1.00  0.00    -0.254 OA
HETATM   18  H   UNL     1      46.710  -8.383   6.946  1.00  0.00     0.128 HD
HETATM   19  H   UNL     1      47.649  -9.658   7.570  1.00  0.00     0.128 HD
HETATM   20  H   UNL     1      44.949  -7.825   8.342  1.00  0.00     0.164 HD
ENDBRANCH   6  14
ENDBRANCH   5   6
ENDBRANCH   1   5
BRANCH   2  21
HETATM   21  N   UNL     1      42.443 -12.462   6.521  1.00  0.00    -0.263 N 
HETATM   22  C   UNL     1      43.486 -13.362   6.477  1.00  0.00     0.270 C 
HETATM   23  O   UNL     1      44.525 -13.204   7.113  1.00  0.00    -0.266 OA
HETATM   24  H   UNL     1      41.607 -12.507   5.940  1.00  0.00     0.190 HD
BRANCH  22  25
HETATM   25  C   UNL     1      43.308 -14.543   5.590  1.00  0.00     0.036 A 
HETATM   26  C   UNL     1      42.583 -14.467   4.392  1.00  0.00     0.057 A 
HETATM   27  C   UNL     1      42.470 -15.619   3.641  1.00  0.00     0.106 A 
HETATM   28  C   UNL     1      43.034 -16.809   4.037  1.00  0.00     0.105 A 
HETATM   29  O   UNL     1      41.805 -15.728   2.460  1.00  0.00    -0.323 OA
HETATM   30  O   UNL     1      42.798 -17.814   3.152  1.00  0.00    -0.323 OA
HETATM   31  C   UNL     1      43.741 -16.921   5.213  1.00  0.00     0.041 A 
HETATM   32  C   UNL     1      42.015 -17.123   2.156  1.00  0.00     0.352 A 
HETATM   33  C   UNL     1      43.874 -15.772   6.001  1.00  0.00     0.020 A 
ENDBRANCH  22  25
ENDBRANCH   2  21
TORSDOF 6
ENDMDL
MODEL 7
REMARK VINA RESULT:      -7.8      4.206      9.732
REMARK  6 active torsions:
REMARK  status: ('A' for Active; 'I' for Inactive)
REMARK    1  A    between atoms: C_3  and  C_4 
REMARK    2  A    between atoms: C_4  and  N_5 
REMARK    3  A    between atoms: C_4  and  C_9 
REMARK       I    between atoms: N_5  and  C_6 
REMARK       I    between atoms: C_6  and  N_7 
REMARK    4  A    between atoms: C_9  and  C_10 
REMARK       I    between atoms: C_10  and  N_11 
REMARK    5  A    between atoms: N_11  and  N_12 
REMARK       I    between atoms: N_12  and  C_13 
REMARK    6  A    between atoms: C_13  and  C_14 
ROOT
HETATM    1  C   UNL     1      41.494 -13.839   1.499  1.00  0.00     0.238 C 
HETATM    2  N   UNL     1      41.143 -13.600   0.185  1.00  0.00    -0.267 N 
HETATM    3  O   UNL     1      42.121 -13.021   2.172  1.00  0.00    -0.272 OA
HETATM    4  H   UNL     1      40.470 -14.176  -0.321  1.00  0.00     0.190 HD
ENDROOT
BRANCH   1   5
HETATM    5  C   UNL     1      41.087 -15.210   1.988  1.00  0.00     0.134 C 
BRANCH   5   6
HETATM    6  C   UNL     1      41.726 -15.538   3.349  1.00  0.00     0.129 C 
BRANCH   6   7
HETATM    7  C   UNL     1      42.557 -16.818   3.325  1.00  0.00    -0.013 A 
HETATM    8  C   UNL     1      42.363 -17.767   2.302  1.00  0.00     0.011 A 
HETATM    9  C   UNL     1      43.108 -18.949   2.249  1.00  0.00     0.001 A 
HETATM   10  C   UNL     1      44.066 -19.211   3.219  1.00  0.00     0.002 A 
HETATM   11  C   UNL     1      44.273 -18.294   4.248  1.00  0.00     0.024 A 
HETATM   12  C   UNL     1      43.523 -17.112   4.307  1.00  0.00     0.042 A 
HETATM   13 CL   UNL     1      43.856 -16.055   5.637  1.00  0.00    -0.084 Cl
ENDBRANCH   6   7
BRANCH   6  14
HETATM   14  N   UNL     1      40.794 -15.530   4.479  1.00  0.00    -0.339 N 
HETATM   15  C   UNL     1      40.658 -14.515   5.371  1.00  0.00     0.292 C 
HETATM   16  N   UNL     1      39.762 -14.811   6.346  1.00  0.00    -0.254 NA
HETATM   17  O   UNL     1      41.254 -13.449   5.361  1.00  0.00    -0.254 OA
HETATM   18  H   UNL     1      38.951 -15.342   6.060  1.00  0.00     0.128 HD
HETATM   19  H   UNL     1      39.561 -14.028   6.955  1.00  0.00     0.128 HD
HETATM   20  H   UNL     1      40.607 -16.442   4.875  1.00  0.00     0.164 HD
ENDBRANCH   6  14
ENDBRANCH   5   6
ENDBRANCH   1   5
BRANCH   2  21
HETATM   21  N   UNL     1      41.346 -12.313  -0.316  1.00  0.00    -0.263 N 
HETATM   22  C   UNL     1      41.040 -12.065  -1.636  1.00  0.00     0.270 C 
HETATM   23  O   UNL     1      40.612 -12.933  -2.393  1.00  0.00    -0.266 OA
HETATM   24  H   UNL     1      41.788 -11.648   0.317  1.00  0.00     0.190 HD
BRANCH  22  25
HETATM   25  C   UNL     1      41.276 -10.679  -2.124  1.00  0.00     0.036 A 
HETATM   26  C   UNL     1      41.937  -9.721  -1.343  1.00  0.00     0.057 A 
HETATM   27  C   UNL     1      42.103  -8.462  -1.882  1.00  0.00     0.106 A 
HETATM   28  C   UNL     1      41.639  -8.135  -3.135  1.00  0.00     0.105 A 
HETATM   29  O   UNL     1      42.716  -7.415  -1.267  1.00  0.00    -0.323 OA
HETATM   30  O   UNL     1      41.907  -6.844  -3.466  1.00  0.00    -0.323 OA
HETATM   31  C   UNL     1      40.975  -9.049  -3.923  1.00  0.00     0.041 A 
HETATM   32  C   UNL     1      42.586  -6.392  -2.276  1.00  0.00     0.352 A 
HETATM   33  C   UNL     1      40.788 -10.336  -3.406  1.00  0.00     0.020 A 
ENDBRANCH  22  25
ENDBRANCH   2  21
TORSDOF 6
ENDMDL
MODEL 8
REMARK VINA RESULT:      -7.8     15.327     17.256
REMARK  6 active torsions:
REMARK  status: ('A' for Active; 'I' for Inactive)
REMARK    1  A    between atoms: C_3  and  C_4 
REMARK    2  A    between atoms: C_4  and  N_5 
REMARK    3  A    between atoms: C_4  and  C_9 
REMARK       I    between atoms: N_5  and  C_6 
REMARK       I    between atoms: C_6  and  N_7 
REMARK    4  A    between atoms: C_9  and  C_10 
REMARK       I    between atoms: C_10  and  N_11 
REMARK    5  A    between atoms: N_11  and  N_12 
REMARK       I    between atoms: N_12  and  C_13 
REMARK    6  A    between atoms: C_13  and  C_14 
ROOT
HETATM    1  C   UNL     1      46.791 -28.510   1.255  1.00  0.00     0.238 C 
HETATM    2  N   UNL     1      46.834 -29.871   1.480  1.00  0.00    -0.267 N 
HETATM    3  O   UNL     1      47.182 -27.692   2.088  1.00  0.00    -0.272 OA
HETATM    4  H   UNL     1      46.694 -30.559   0.739  1.00  0.00     0.190 HD
ENDROOT
BRANCH   1   5
HETATM    5  C   UNL     1      46.166 -28.141  -0.071  1.00  0.00     0.134 C 
BRANCH   5   6
HETATM    6  C   UNL     1      45.020 -29.099  -0.443  1.00  0.00     0.129 C 
BRANCH   6   7
HETATM    7  C   UNL     1      44.867 -29.291  -1.949  1.00  0.00    -0.013 A 
HETATM    8  C   UNL     1      45.203 -28.245  -2.832  1.00  0.00     0.011 A 
HETATM    9  C   UNL     1      45.077 -28.389  -4.217  1.00  0.00     0.001 A 
HETATM   10  C   UNL     1      44.611 -29.582  -4.754  1.00  0.00     0.002 A 
HETATM   11  C   UNL     1      44.264 -30.630  -3.903  1.00  0.00     0.024 A 
HETATM   12  C   UNL     1      44.383 -30.487  -2.514  1.00  0.00     0.042 A 
HETATM   13 CL   UNL     1      43.909 -31.849  -1.557  1.00  0.00    -0.084 Cl
ENDBRANCH   6   7
BRANCH   6  14
HETATM   14  N   UNL     1      43.735 -28.786   0.186  1.00  0.00    -0.339 N 
HETATM   15  C   UNL     1      43.169 -29.492   1.199  1.00  0.00     0.292 C 
HETATM   16  N   UNL     1      41.949 -29.005   1.540  1.00  0.00    -0.254 NA
HETATM   17  O   UNL     1      43.643 -30.466   1.764  1.00  0.00    -0.254 OA
HETATM   18  H   UNL     1      41.844 -28.001   1.507  1.00  0.00     0.128 HD
HETATM   19  H   UNL     1      41.560 -29.444   2.364  1.00  0.00     0.128 HD
HETATM   20  H   UNL     1      43.059 -28.357  -0.431  1.00  0.00     0.164 HD
ENDBRANCH   6  14
ENDBRANCH   5   6
ENDBRANCH   1   5
BRANCH   2  21
HETATM   21  N   UNL     1      47.521 -30.320   2.610  1.00  0.00    -0.263 N 
HETATM   22  C   UNL     1      48.827 -30.734   2.464  1.00  0.00     0.270 C 
HETATM   23  O   UNL     1      49.404 -30.740   1.379  1.00  0.00    -0.266 OA
HETATM   24  H   UNL     1      46.979 -30.386   3.469  1.00  0.00     0.190 HD
BRANCH  22  25
HETATM   25  C   UNL     1      49.516 -31.206   3.695  1.00  0.00     0.036 A 
HETATM   26  C   UNL     1      50.801 -30.764   4.041  1.00  0.00     0.057 A 
HETATM   27  C   UNL     1      51.357 -31.265   5.200  1.00  0.00     0.106 A 
HETATM   28  C   UNL     1      50.696 -32.168   5.998  1.00  0.00     0.105 A 
HETATM   29  O   UNL     1      52.588 -30.949   5.684  1.00  0.00    -0.323 OA
HETATM   30  O   UNL     1      51.426 -32.529   7.087  1.00  0.00    -0.323 OA
HETATM   31  C   UNL     1      49.439 -32.631   5.682  1.00  0.00     0.041 A 
HETATM   32  C   UNL     1      52.627 -31.756   6.880  1.00  0.00     0.352 A 
HETATM   33  C   UNL     1      48.845 -32.146   4.511  1.00  0.00     0.020 A 
ENDBRANCH  22  25
ENDBRANCH   2  21
TORSDOF 6
ENDMDL
MODEL 9
REMARK VINA RESULT:      -7.6      8.443     10.097
REMARK  6 active torsions:
REMARK  status: ('A' for Active; 'I' for Inactive)
REMARK    1  A    between atoms: C_3  and  C_4 
REMARK    2  A    between atoms: C_4  and  N_5 
REMARK    3  A    between atoms: C_4  and  C_9 
REMARK       I    between atoms: N_5  and  C_6 
REMARK       I    between atoms: C_6  and  N_7 
REMARK    4  A    between atoms: C_9  and  C_10 
REMARK       I    between atoms: C_10  and  N_11 
REMARK    5  A    between atoms: N_11  and  N_12 
REMARK       I    between atoms: N_12  and  C_13 
REMARK    6  A    between atoms: C_13  and  C_14 
ROOT
HETATM    1  C   UNL     1      42.224  -9.831   7.569  1.00  0.00     0.238 C 
HETATM    2  N   UNL     1      42.822 -11.071   7.478  1.00  0.00    -0.267 N 
HETATM    3  O   UNL     1      41.422  -9.423   6.729  1.00  0.00    -0.272 OA
HETATM    4  H   UNL     1      43.334 -11.497   8.251  1.00  0.00     0.190 HD
ENDROOT
BRANCH   1   5
HETATM    5  C   UNL     1      42.698  -9.023   8.755  1.00  0.00     0.134 C 
BRANCH   5   6
HETATM    6  C   UNL     1      41.538  -8.681   9.708  1.00  0.00     0.129 C 
BRANCH   6   7
HETATM    7  C   UNL     1      42.010  -8.097  11.037  1.00  0.00    -0.013 A 
HETATM    8  C   UNL     1      41.684  -6.770  11.381  1.00  0.00     0.011 A 
HETATM    9  C   UNL     1      42.098  -6.205  12.591  1.00  0.00     0.001 A 
HETATM   10  C   UNL     1      42.850  -6.953  13.487  1.00  0.00     0.002 A 
HETATM   11  C   UNL     1      43.196  -8.265  13.168  1.00  0.00     0.024 A 
HETATM   12  C   UNL     1      42.787  -8.832  11.953  1.00  0.00     0.042 A 
HETATM   13 CL   UNL     1      43.286 -10.463  11.660  1.00  0.00    -0.084 Cl
ENDBRANCH   6   7
BRANCH   6  14
HETATM   14  N   UNL     1      40.578  -9.767   9.916  1.00  0.00    -0.339 N 
HETATM   15  C   UNL     1      39.235  -9.666   9.736  1.00  0.00     0.292 C 
HETATM   16  N   UNL     1      38.591 -10.815  10.061  1.00  0.00    -0.254 NA
HETATM   17  O   UNL     1      38.622  -8.683   9.350  1.00  0.00    -0.254 OA
HETATM   18  H   UNL     1      39.067 -11.675   9.827  1.00  0.00     0.128 HD
HETATM   19  H   UNL     1      37.607 -10.800   9.829  1.00  0.00     0.128 HD
HETATM   20  H   UNL     1      40.839 -10.426  10.636  1.00  0.00     0.164 HD
ENDBRANCH   6  14
ENDBRANCH   5   6
ENDBRANCH   1   5
BRANCH   2  21
HETATM   21  N   UNL     1      42.347 -11.949   6.502  1.00  0.00    -0.263 N 
HETATM   22  C   UNL     1      43.076 -13.087   6.230  1.00  0.00     0.270 C 
HETATM   23  O   UNL     1      44.132 -13.351   6.799  1.00  0.00    -0.266 OA
HETATM   24  H   UNL     1      41.520 -11.648   5.990  1.00  0.00     0.190 HD
BRANCH  22  25
HETATM   25  C   UNL     1      42.531 -13.990   5.180  1.00  0.00     0.036 A 
HETATM   26  C   UNL     1      41.378 -13.667   4.450  1.00  0.00     0.057 A 
HETATM   27  C   UNL     1      40.948 -14.572   3.502  1.00  0.00     0.106 A 
HETATM   28  C   UNL     1      41.608 -15.756   3.269  1.00  0.00     0.105 A 
HETATM   29  O   UNL     1      39.855 -14.422   2.708  1.00  0.00    -0.323 OA
HETATM   30  O   UNL     1      41.013 -16.497   2.296  1.00  0.00    -0.323 OA
HETATM   31  C   UNL     1      42.735 -16.110   3.976  1.00  0.00     0.041 A 
HETATM   32  C   UNL     1      39.900 -15.648   1.947  1.00  0.00     0.352 A 
HETATM   33  C   UNL     1      43.197 -15.215   4.948  1.00  0.00     0.020 A 
ENDBRANCH  22  25
ENDBRANCH   2  21
TORSDOF 6
ENDMDL
MODEL 10
REMARK VINA RESULT:      -7.6      3.293      9.602
REMARK  6 active torsions:
REMARK  status: ('A' for Active; 'I' for Inactive)
REMARK    1  A    between atoms: C_3  and  C_4 
REMARK    2  A    between atoms: C_4  and  N_5 
REMARK    3  A    between atoms: C_4  and  C_9 
REMARK       I    between atoms: N_5  and  C_6 
REMARK       I    between atoms: C_6  and  N_7 
REMARK    4  A    between atoms: C_9  and  C_10 
REMARK       I    between atoms: C_10  and  N_11 
REMARK    5  A    between atoms: N_11  and  N_12 
REMARK       I    between atoms: N_12  and  C_13 
REMARK    6  A    between atoms: C_13  and  C_14 
ROOT
HETATM    1  C   UNL     1      40.877 -14.605   2.371  1.00  0.00     0.238 C 
HETATM    2  N   UNL     1      39.606 -14.422   1.864  1.00  0.00    -0.267 N 
HETATM    3  O   UNL     1      41.863 -14.045   1.893  1.00  0.00    -0.272 OA
HETATM    4  H   UNL     1      38.765 -14.723   2.357  1.00  0.00     0.190 HD
ENDROOT
BRANCH   1   5
HETATM    5  C   UNL     1      40.930 -15.596   3.511  1.00  0.00     0.134 C 
BRANCH   5   6
HETATM    6  C   UNL     1      42.264 -15.510   4.274  1.00  0.00     0.129 C 
BRANCH   6   7
HETATM    7  C   UNL     1      42.902 -16.876   4.517  1.00  0.00    -0.013 A 
HETATM    8  C   UNL     1      42.971 -17.400   5.823  1.00  0.00     0.011 A 
HETATM    9  C   UNL     1      43.547 -18.648   6.080  1.00  0.00     0.001 A 
HETATM   10  C   UNL     1      44.067 -19.403   5.037  1.00  0.00     0.002 A 
HETATM   11  C   UNL     1      44.020 -18.904   3.737  1.00  0.00     0.024 A 
HETATM   12  C   UNL     1      43.449 -17.651   3.476  1.00  0.00     0.042 A 
HETATM   13 CL   UNL     1      43.459 -17.129   1.826  1.00  0.00    -0.084 Cl
ENDBRANCH   6   7
BRANCH   6  14
HETATM   14  N   UNL     1      42.214 -14.720   5.506  1.00  0.00    -0.339 N 
HETATM   15  C   UNL     1      42.723 -13.469   5.652  1.00  0.00     0.292 C 
HETATM   16  N   UNL     1      42.583 -13.008   6.921  1.00  0.00    -0.254 NA
HETATM   17  O   UNL     1      43.267 -12.797   4.790  1.00  0.00    -0.254 OA
HETATM   18  H   UNL     1      41.729 -13.262   7.397  1.00  0.00     0.128 HD
HETATM   19  H   UNL     1      42.852 -12.039   7.025  1.00  0.00     0.128 HD
HETATM   20  H   UNL     1      42.239 -15.266   6.356  1.00  0.00     0.164 HD
ENDBRANCH   6  14
ENDBRANCH   5   6
ENDBRANCH   1   5
BRANCH   2  21
HETATM   21  N   UNL     1      39.428 -13.422   0.906  1.00  0.00    -0.263 N 
HETATM   22  C   UNL     1      39.379 -13.785  -0.423  1.00  0.00     0.270 C 
HETATM   23  O   UNL     1      39.502 -14.948  -0.798  1.00  0.00    -0.266 OA
HETATM   24  H   UNL     1      39.424 -12.464   1.251  1.00  0.00     0.190 HD
BRANCH  22  25
HETATM   25  C   UNL     1      39.192 -12.684  -1.405  1.00  0.00     0.036 A 
HETATM   26  C   UNL     1      37.929 -12.135  -1.671  1.00  0.00     0.057 A 
HETATM   27  C   UNL     1      37.858 -11.120  -2.603  1.00  0.00     0.106 A 
HETATM   28  C   UNL     1      38.971 -10.654  -3.264  1.00  0.00     0.105 A 
HETATM   29  O   UNL     1      36.722 -10.477  -2.984  1.00  0.00    -0.323 OA
HETATM   30  O   UNL     1      38.673  -9.656  -4.138  1.00  0.00    -0.323 OA
HETATM   31  C   UNL     1      40.222 -11.179  -3.036  1.00  0.00     0.041 A 
HETATM   32  C   UNL     1      37.245  -9.552  -3.960  1.00  0.00     0.352 A 
HETATM   33  C   UNL     1      40.331 -12.211  -2.097  1.00  0.00     0.020 A 
ENDBRANCH  22  25
ENDBRANCH   2  21
TORSDOF 6
ENDMDL
