MODEL 1
REMARK VINA RESULT:      -7.0      0.000      0.000
REMARK  5 active torsions:
REMARK  status: ('A' for Active; 'I' for Inactive)
REMARK    1  A    between atoms: C_2  and  N_3 
REMARK    2  A    between atoms: N_3  and  C_6 
REMARK    3  A    between atoms: C_6  and  C_7 
REMARK    4  A    between atoms: C_8  and  N_9 
REMARK       I    between atoms: N_9  and  C_10 
REMARK    5  A    between atoms: C_10  and  C_11 
ROOT
HETATM    1  C   UNL     1      43.370 -16.695   4.160  1.00  0.00    -0.006 A 
HETATM    2  C   UNL     1      42.902 -16.927   2.848  1.00  0.00     0.043 A 
HETATM    3  C   UNL     1      43.142 -18.194   2.269  1.00  0.00     0.030 A 
HETATM    4  C   UNL     1      43.848 -19.198   2.931  1.00  0.00     0.002 A 
HETATM    5  C   UNL     1      44.334 -18.962   4.203  1.00  0.00     0.001 A 
HETATM    6  C   UNL     1      44.094 -17.731   4.810  1.00  0.00     0.011 A 
ENDROOT
BRANCH   2   7
HETATM    7  N   UNL     1      42.211 -16.054   1.972  1.00  0.00    -0.321 N 
HETATM    8  C   UNL     1      40.972 -15.459   2.020  1.00  0.00     0.274 C 
HETATM    9  O   UNL     1      40.092 -15.685   2.842  1.00  0.00    -0.266 OA
HETATM   10  H   UNL     1      42.746 -15.742   1.156  1.00  0.00     0.169 HD
BRANCH   8  11
HETATM   11  C   UNL     1      40.708 -14.519   0.886  1.00  0.00     0.126 A 
HETATM   12  N   UNL     1      39.980 -15.040  -0.132  1.00  0.00    -0.231 NA
HETATM   13  C   UNL     1      39.661 -14.176  -1.119  1.00  0.00     0.127 A 
HETATM   14 CL   UNL     1      38.677 -14.847  -2.350  1.00  0.00    -0.062 Cl
HETATM   15  C   UNL     1      40.051 -12.847  -1.160  1.00  0.00     0.044 A 
HETATM   16  C   UNL     1      40.824 -12.357  -0.109  1.00  0.00     0.006 A 
HETATM   17  C   UNL     1      41.154 -13.204   0.944  1.00  0.00     0.037 A 
ENDBRANCH   8  11
ENDBRANCH   2   7
BRANCH   1  18
HETATM   18  C   UNL     1      43.172 -15.451   4.990  1.00  0.00     0.273 C 
BRANCH  18  19
HETATM   19  N   UNL     1      41.793 -15.340   5.531  1.00  0.00    -0.072 N 
HETATM   20  H   UNL     1      41.111 -15.690   4.851  1.00  0.00     0.277 HD
HETATM   21  H   UNL     1      41.653 -14.320   5.608  1.00  0.00     0.277 HD
BRANCH  19  22
HETATM   22  C   UNL     1      41.577 -15.898   6.886  1.00  0.00     0.228 C 
HETATM   23  C   UNL     1      42.824 -15.653   7.712  1.00  0.00     0.034 C 
ENDBRANCH  19  22
ENDBRANCH  18  19
ENDBRANCH   1  18
TORSDOF 5
ENDMDL
MODEL 2
REMARK VINA RESULT:      -6.8      8.480     11.645
REMARK  5 active torsions:
REMARK  status: ('A' for Active; 'I' for Inactive)
REMARK    1  A    between atoms: C_2  and  N_3 
REMARK    2  A    between atoms: N_3  and  C_6 
REMARK    3  A    between atoms: C_6  and  C_7 
REMARK    4  A    between atoms: C_8  and  N_9 
REMARK       I    between atoms: N_9  and  C_10 
REMARK    5  A    between atoms: C_10  and  C_11 
ROOT
HETATM    1  C   UNL     1      41.510  -9.151  13.149  1.00  0.00    -0.006 A 
HETATM    2  C   UNL     1      42.775  -8.714  12.698  1.00  0.00     0.043 A 
HETATM    3  C   UNL     1      43.432  -7.701  13.432  1.00  0.00     0.030 A 
HETATM    4  C   UNL     1      42.861  -7.100  14.553  1.00  0.00     0.002 A 
HETATM    5  C   UNL     1      41.609  -7.503  14.978  1.00  0.00     0.001 A 
HETATM    6  C   UNL     1      40.947  -8.517  14.290  1.00  0.00     0.011 A 
ENDROOT
BRANCH   2   7
HETATM    7  N   UNL     1      43.523  -9.137  11.571  1.00  0.00    -0.321 N 
HETATM    8  C   UNL     1      43.975 -10.366  11.148  1.00  0.00     0.274 C 
HETATM    9  O   UNL     1      43.923 -11.413  11.782  1.00  0.00    -0.266 OA
HETATM   10  H   UNL     1      43.734  -8.404  10.888  1.00  0.00     0.169 HD
BRANCH   8  11
HETATM   11  C   UNL     1      44.656 -10.333   9.816  1.00  0.00     0.126 A 
HETATM   12  N   UNL     1      44.323 -11.345   8.978  1.00  0.00    -0.231 NA
HETATM   13  C   UNL     1      44.863 -11.276   7.743  1.00  0.00     0.127 A 
HETATM   14 CL   UNL     1      44.361 -12.527   6.685  1.00  0.00    -0.062 Cl
HETATM   15  C   UNL     1      45.732 -10.284   7.316  1.00  0.00     0.044 A 
HETATM   16  C   UNL     1      46.073  -9.278   8.217  1.00  0.00     0.006 A 
HETATM   17  C   UNL     1      45.518  -9.292   9.493  1.00  0.00     0.037 A 
ENDBRANCH   8  11
ENDBRANCH   2   7
BRANCH   1  18
HETATM   18  C   UNL     1      40.665 -10.254  12.562  1.00  0.00     0.273 C 
BRANCH  18  19
HETATM   19  N   UNL     1      39.375  -9.757  12.019  1.00  0.00    -0.072 N 
HETATM   20  H   UNL     1      38.812  -9.333  12.762  1.00  0.00     0.277 HD
HETATM   21  H   UNL     1      38.895 -10.622  11.727  1.00  0.00     0.277 HD
BRANCH  19  22
HETATM   22  C   UNL     1      39.461  -8.898  10.816  1.00  0.00     0.228 C 
HETATM   23  C   UNL     1      39.140  -9.741   9.597  1.00  0.00     0.034 C 
ENDBRANCH  19  22
ENDBRANCH  18  19
ENDBRANCH   1  18
TORSDOF 5
ENDMDL
MODEL 3
REMARK VINA RESULT:      -6.7      1.428      1.674
REMARK  5 active torsions:
REMARK  status: ('A' for Active; 'I' for Inactive)
REMARK    1  A    between atoms: C_2  and  N_3 
REMARK    2  A    between atoms: N_3  and  C_6 
REMARK    3  A    between atoms: C_6  and  C_7 
REMARK    4  A    between atoms: C_8  and  N_9 
REMARK       I    between atoms: N_9  and  C_10 
REMARK    5  A    between atoms: C_10  and  C_11 
ROOT
HETATM    1  C   UNL     1      43.340 -16.927   4.178  1.00  0.00    -0.006 A 
HETATM    2  C   UNL     1      42.828 -17.099   2.873  1.00  0.00     0.043 A 
HETATM    3  C   UNL     1      43.057 -18.333   2.224  1.00  0.00     0.030 A 
HETATM    4  C   UNL     1      43.795 -19.361   2.810  1.00  0.00     0.002 A 
HETATM    5  C   UNL     1      44.324 -19.184   4.075  1.00  0.00     0.001 A 
HETATM    6  C   UNL     1      44.095 -17.987   4.750  1.00  0.00     0.011 A 
ENDROOT
BRANCH   2   7
HETATM    7  N   UNL     1      42.099 -16.191   2.067  1.00  0.00    -0.321 N 
HETATM    8  C   UNL     1      40.886 -15.560   2.219  1.00  0.00     0.274 C 
HETATM    9  O   UNL     1      40.065 -15.775   3.103  1.00  0.00    -0.266 OA
HETATM   10  H   UNL     1      42.579 -15.881   1.216  1.00  0.00     0.169 HD
BRANCH   8  11
HETATM   11  C   UNL     1      40.565 -14.594   1.123  1.00  0.00     0.126 A 
HETATM   12  N   UNL     1      40.988 -13.324   1.338  1.00  0.00    -0.231 NA
HETATM   13  C   UNL     1      40.783 -12.464   0.318  1.00  0.00     0.127 A 
HETATM   14 CL   UNL     1      41.398 -10.889   0.591  1.00  0.00    -0.062 Cl
HETATM   15  C   UNL     1      40.158 -12.791  -0.876  1.00  0.00     0.044 A 
HETATM   16  C   UNL     1      39.710 -14.099  -1.046  1.00  0.00     0.006 A 
HETATM   17  C   UNL     1      39.925 -15.028  -0.032  1.00  0.00     0.037 A 
ENDBRANCH   8  11
ENDBRANCH   2   7
BRANCH   1  18
HETATM   18  C   UNL     1      43.161 -15.728   5.076  1.00  0.00     0.273 C 
BRANCH  18  19
HETATM   19  N   UNL     1      41.794 -15.646   5.652  1.00  0.00    -0.072 N 
HETATM   20  H   UNL     1      41.153 -16.264   5.146  1.00  0.00     0.277 HD
HETATM   21  H   UNL     1      41.511 -14.675   5.445  1.00  0.00     0.277 HD
BRANCH  19  22
HETATM   22  C   UNL     1      41.694 -15.810   7.120  1.00  0.00     0.228 C 
HETATM   23  C   UNL     1      43.095 -15.841   7.699  1.00  0.00     0.034 C 
ENDBRANCH  19  22
ENDBRANCH  18  19
ENDBRANCH   1  18
TORSDOF 5
ENDMDL
MODEL 4
REMARK VINA RESULT:      -6.6      3.025      3.221
REMARK  5 active torsions:
REMARK  status: ('A' for Active; 'I' for Inactive)
REMARK    1  A    between atoms: C_2  and  N_3 
REMARK    2  A    between atoms: N_3  and  C_6 
REMARK    3  A    between atoms: C_6  and  C_7 
REMARK    4  A    between atoms: C_8  and  N_9 
REMARK       I    between atoms: N_9  and  C_10 
REMARK    5  A    between atoms: C_10  and  C_11 
ROOT
HETATM    1  C   UNL     1      43.840 -17.707   4.685  1.00  0.00    -0.006 A 
HETATM    2  C   UNL     1      43.262 -17.003   3.606  1.00  0.00     0.043 A 
HETATM    3  C   UNL     1      42.963 -17.718   2.425  1.00  0.00     0.030 A 
HETATM    4  C   UNL     1      43.250 -19.075   2.280  1.00  0.00     0.002 A 
HETATM    5  C   UNL     1      43.844 -19.761   3.323  1.00  0.00     0.001 A 
HETATM    6  C   UNL     1      44.129 -19.088   4.509  1.00  0.00     0.011 A 
ENDROOT
BRANCH   2   7
HETATM    7  N   UNL     1      42.929 -15.629   3.505  1.00  0.00    -0.321 N 
HETATM    8  C   UNL     1      41.765 -14.925   3.709  1.00  0.00     0.274 C 
HETATM    9  O   UNL     1      40.656 -15.404   3.915  1.00  0.00    -0.266 OA
HETATM   10  H   UNL     1      43.713 -15.005   3.294  1.00  0.00     0.169 HD
BRANCH   8  11
HETATM   11  C   UNL     1      41.922 -13.443   3.571  1.00  0.00     0.126 A 
HETATM   12  N   UNL     1      40.768 -12.736   3.643  1.00  0.00    -0.231 NA
HETATM   13  C   UNL     1      40.908 -11.394   3.610  1.00  0.00     0.127 A 
HETATM   14 CL   UNL     1      39.439 -10.530   3.780  1.00  0.00    -0.062 Cl
HETATM   15  C   UNL     1      42.118 -10.730   3.477  1.00  0.00     0.044 A 
HETATM   16  C   UNL     1      43.278 -11.494   3.375  1.00  0.00     0.006 A 
HETATM   17  C   UNL     1      43.186 -12.881   3.434  1.00  0.00     0.037 A 
ENDBRANCH   8  11
ENDBRANCH   2   7
BRANCH   1  18
HETATM   18  C   UNL     1      44.179 -17.164   6.051  1.00  0.00     0.273 C 
BRANCH  18  19
HETATM   19  N   UNL     1      43.054 -17.298   7.013  1.00  0.00    -0.072 N 
HETATM   20  H   UNL     1      43.384 -17.689   7.900  1.00  0.00     0.277 HD
HETATM   21  H   UNL     1      42.451 -18.009   6.570  1.00  0.00     0.277 HD
BRANCH  19  22
HETATM   22  C   UNL     1      42.213 -16.094   7.205  1.00  0.00     0.228 C 
HETATM   23  C   UNL     1      43.110 -14.872   7.192  1.00  0.00     0.034 C 
ENDBRANCH  19  22
ENDBRANCH  18  19
ENDBRANCH   1  18
TORSDOF 5
ENDMDL
MODEL 5
REMARK VINA RESULT:      -6.6      1.274      3.157
REMARK  5 active torsions:
REMARK  status: ('A' for Active; 'I' for Inactive)
REMARK    1  A    between atoms: C_2  and  N_3 
REMARK    2  A    between atoms: N_3  and  C_6 
REMARK    3  A    between atoms: C_6  and  C_7 
REMARK    4  A    between atoms: C_8  and  N_9 
REMARK       I    between atoms: N_9  and  C_10 
REMARK    5  A    between atoms: C_10  and  C_11 
ROOT
HETATM    1  C   UNL     1      43.431 -16.795   4.144  1.00  0.00    -0.006 A 
HETATM    2  C   UNL     1      42.898 -15.508   3.909  1.00  0.00     0.043 A 
HETATM    3  C   UNL     1      42.980 -14.553   4.947  1.00  0.00     0.030 A 
HETATM    4  C   UNL     1      43.533 -14.847   6.193  1.00  0.00     0.002 A 
HETATM    5  C   UNL     1      44.027 -16.115   6.436  1.00  0.00     0.001 A 
HETATM    6  C   UNL     1      43.981 -17.071   5.425  1.00  0.00     0.011 A 
ENDROOT
BRANCH   2   7
HETATM    7  N   UNL     1      42.254 -14.999   2.755  1.00  0.00    -0.321 N 
HETATM    8  C   UNL     1      40.968 -15.095   2.274  1.00  0.00     0.274 C 
HETATM    9  O   UNL     1      40.079 -15.807   2.724  1.00  0.00    -0.266 OA
HETATM   10  H   UNL     1      42.827 -14.381   2.172  1.00  0.00     0.169 HD
BRANCH   8  11
HETATM   11  C   UNL     1      40.725 -14.291   1.035  1.00  0.00     0.126 A 
HETATM   12  N   UNL     1      40.074 -14.950   0.045  1.00  0.00    -0.231 NA
HETATM   13  C   UNL     1      39.770 -14.209  -1.041  1.00  0.00     0.127 A 
HETATM   14 CL   UNL     1      38.881 -15.050  -2.240  1.00  0.00    -0.062 Cl
HETATM   15  C   UNL     1      40.106 -12.874  -1.205  1.00  0.00     0.044 A 
HETATM   16  C   UNL     1      40.801 -12.241  -0.177  1.00  0.00     0.006 A 
HETATM   17  C   UNL     1      41.111 -12.958   0.975  1.00  0.00     0.037 A 
ENDBRANCH   8  11
ENDBRANCH   2   7
BRANCH   1  18
HETATM   18  C   UNL     1      43.509 -17.940   3.166  1.00  0.00     0.273 C 
BRANCH  18  19
HETATM   19  N   UNL     1      44.284 -19.091   3.697  1.00  0.00    -0.072 N 
HETATM   20  H   UNL     1      44.404 -19.007   4.710  1.00  0.00     0.277 HD
HETATM   21  H   UNL     1      45.214 -18.967   3.267  1.00  0.00     0.277 HD
BRANCH  19  22
HETATM   22  C   UNL     1      43.812 -20.436   3.295  1.00  0.00     0.228 C 
HETATM   23  C   UNL     1      43.509 -20.417   1.809  1.00  0.00     0.034 C 
ENDBRANCH  19  22
ENDBRANCH  18  19
ENDBRANCH   1  18
TORSDOF 5
ENDMDL
MODEL 6
REMARK VINA RESULT:      -6.5      3.067      5.467
REMARK  5 active torsions:
REMARK  status: ('A' for Active; 'I' for Inactive)
REMARK    1  A    between atoms: C_2  and  N_3 
REMARK    2  A    between atoms: N_3  and  C_6 
REMARK    3  A    between atoms: C_6  and  C_7 
REMARK    4  A    between atoms: C_8  and  N_9 
REMARK       I    between atoms: N_9  and  C_10 
REMARK    5  A    between atoms: C_10  and  C_11 
ROOT
HETATM    1  C   UNL     1      43.273 -17.187   2.750  1.00  0.00    -0.006 A 
HETATM    2  C   UNL     1      43.556 -16.777   4.071  1.00  0.00     0.043 A 
HETATM    3  C   UNL     1      44.008 -17.751   4.990  1.00  0.00     0.030 A 
HETATM    4  C   UNL     1      44.149 -19.095   4.646  1.00  0.00     0.002 A 
HETATM    5  C   UNL     1      43.844 -19.505   3.362  1.00  0.00     0.001 A 
HETATM    6  C   UNL     1      43.418 -18.564   2.428  1.00  0.00     0.011 A 
ENDROOT
BRANCH   2   7
HETATM    7  N   UNL     1      43.442 -15.492   4.657  1.00  0.00    -0.321 N 
HETATM    8  C   UNL     1      42.368 -14.704   4.999  1.00  0.00     0.274 C 
HETATM    9  O   UNL     1      41.194 -14.924   4.726  1.00  0.00    -0.266 OA
HETATM   10  H   UNL     1      44.328 -15.066   4.947  1.00  0.00     0.169 HD
BRANCH   8  11
HETATM   11  C   UNL     1      42.746 -13.435   5.696  1.00  0.00     0.126 A 
HETATM   12  N   UNL     1      41.916 -12.388   5.469  1.00  0.00    -0.231 NA
HETATM   13  C   UNL     1      42.197 -11.264   6.162  1.00  0.00     0.127 A 
HETATM   14 CL   UNL     1      41.085  -9.987   5.910  1.00  0.00    -0.062 Cl
HETATM   15  C   UNL     1      43.266 -11.121   7.033  1.00  0.00     0.044 A 
HETATM   16  C   UNL     1      44.114 -12.211   7.216  1.00  0.00     0.006 A 
HETATM   17  C   UNL     1      43.847 -13.400   6.544  1.00  0.00     0.037 A 
ENDBRANCH   8  11
ENDBRANCH   2   7
BRANCH   1  18
HETATM   18  C   UNL     1      42.844 -16.314   1.597  1.00  0.00     0.273 C 
BRANCH  18  19
HETATM   19  N   UNL     1      41.435 -15.859   1.722  1.00  0.00    -0.072 N 
HETATM   20  H   UNL     1      41.107 -15.965   2.686  1.00  0.00     0.277 HD
HETATM   21  H   UNL     1      40.916 -16.539   1.145  1.00  0.00     0.277 HD
BRANCH  19  22
HETATM   22  C   UNL     1      41.130 -14.520   1.167  1.00  0.00     0.228 C 
HETATM   23  C   UNL     1      40.072 -14.673   0.092  1.00  0.00     0.034 C 
ENDBRANCH  19  22
ENDBRANCH  18  19
ENDBRANCH   1  18
TORSDOF 5
ENDMDL
MODEL 7
REMARK VINA RESULT:      -6.4     14.368     15.911
REMARK  5 active torsions:
REMARK  status: ('A' for Active; 'I' for Inactive)
REMARK    1  A    between atoms: C_2  and  N_3 
REMARK    2  A    between atoms: N_3  and  C_6 
REMARK    3  A    between atoms: C_6  and  C_7 
REMARK    4  A    between atoms: C_8  and  N_9 
REMARK       I    between atoms: N_9  and  C_10 
REMARK    5  A    between atoms: C_10  and  C_11 
ROOT
HETATM    1  C   UNL     1      44.727 -29.474  -0.912  1.00  0.00    -0.006 A 
HETATM    2  C   UNL     1      46.088 -29.097  -0.917  1.00  0.00     0.043 A 
HETATM    3  C   UNL     1      46.596 -28.447  -2.064  1.00  0.00     0.030 A 
HETATM    4  C   UNL     1      45.815 -28.200  -3.192  1.00  0.00     0.002 A 
HETATM    5  C   UNL     1      44.491 -28.597  -3.203  1.00  0.00     0.001 A 
HETATM    6  C   UNL     1      43.954 -29.219  -2.078  1.00  0.00     0.011 A 
ENDROOT
BRANCH   2   7
HETATM    7  N   UNL     1      47.076 -29.282   0.082  1.00  0.00    -0.321 N 
HETATM    8  C   UNL     1      47.206 -28.829   1.374  1.00  0.00     0.274 C 
HETATM    9  O   UNL     1      46.493 -27.999   1.924  1.00  0.00    -0.266 OA
HETATM   10  H   UNL     1      47.830 -29.930  -0.166  1.00  0.00     0.169 HD
BRANCH   8  11
HETATM   11  C   UNL     1      48.399 -29.379   2.090  1.00  0.00     0.126 A 
HETATM   12  N   UNL     1      49.178 -30.208   1.353  1.00  0.00    -0.231 NA
HETATM   13  C   UNL     1      50.303 -30.639   1.960  1.00  0.00     0.127 A 
HETATM   14 CL   UNL     1      51.302 -31.621   0.975  1.00  0.00    -0.062 Cl
HETATM   15  C   UNL     1      50.672 -30.318   3.257  1.00  0.00     0.044 A 
HETATM   16  C   UNL     1      49.830 -29.487   3.993  1.00  0.00     0.006 A 
HETATM   17  C   UNL     1      48.672 -28.995   3.398  1.00  0.00     0.037 A 
ENDBRANCH   8  11
ENDBRANCH   2   7
BRANCH   1  18
HETATM   18  C   UNL     1      43.964 -30.116   0.220  1.00  0.00     0.273 C 
BRANCH  18  19
HETATM   19  N   UNL     1      43.576 -29.140   1.270  1.00  0.00    -0.072 N 
HETATM   20  H   UNL     1      43.860 -28.193   1.004  1.00  0.00     0.277 HD
HETATM   21  H   UNL     1      44.158 -29.419   2.076  1.00  0.00     0.277 HD
BRANCH  19  22
HETATM   22  C   UNL     1      42.169 -29.200   1.729  1.00  0.00     0.228 C 
HETATM   23  C   UNL     1      41.718 -30.647   1.715  1.00  0.00     0.034 C 
ENDBRANCH  19  22
ENDBRANCH  18  19
ENDBRANCH   1  18
TORSDOF 5
ENDMDL
MODEL 8
REMARK VINA RESULT:      -6.4      2.684      2.936
REMARK  5 active torsions:
REMARK  status: ('A' for Active; 'I' for Inactive)
REMARK    1  A    between atoms: C_2  and  N_3 
REMARK    2  A    between atoms: N_3  and  C_6 
REMARK    3  A    between atoms: C_6  and  C_7 
REMARK    4  A    between atoms: C_8  and  N_9 
REMARK       I    between atoms: N_9  and  C_10 
REMARK    5  A    between atoms: C_10  and  C_11 
ROOT
HETATM    1  C   UNL     1      43.786 -17.856   4.372  1.00  0.00    -0.006 A 
HETATM    2  C   UNL     1      42.950 -17.274   3.393  1.00  0.00     0.043 A 
HETATM    3  C   UNL     1      42.586 -18.059   2.276  1.00  0.00     0.030 A 
HETATM    4  C   UNL     1      43.048 -19.362   2.094  1.00  0.00     0.002 A 
HETATM    5  C   UNL     1      43.891 -19.923   3.035  1.00  0.00     0.001 A 
HETATM    6  C   UNL     1      44.249 -19.183   4.159  1.00  0.00     0.011 A 
ENDROOT
BRANCH   2   7
HETATM    7  N   UNL     1      42.403 -15.969   3.339  1.00  0.00    -0.321 N 
HETATM    8  C   UNL     1      42.681 -14.862   2.571  1.00  0.00     0.274 C 
HETATM    9  O   UNL     1      43.625 -14.735   1.801  1.00  0.00    -0.266 OA
HETATM   10  H   UNL     1      41.593 -15.810   3.947  1.00  0.00     0.169 HD
BRANCH   8  11
HETATM   11  C   UNL     1      41.753 -13.712   2.810  1.00  0.00     0.126 A 
HETATM   12  N   UNL     1      42.065 -12.576   2.138  1.00  0.00    -0.231 NA
HETATM   13  C   UNL     1      41.186 -11.562   2.276  1.00  0.00     0.127 A 
HETATM   14 CL   UNL     1      41.569 -10.170   1.354  1.00  0.00    -0.062 Cl
HETATM   15  C   UNL     1      40.046 -11.607   3.063  1.00  0.00     0.044 A 
HETATM   16  C   UNL     1      39.776 -12.782   3.761  1.00  0.00     0.006 A 
HETATM   17  C   UNL     1      40.640 -13.865   3.627  1.00  0.00     0.037 A 
ENDBRANCH   8  11
ENDBRANCH   2   7
BRANCH   1  18
HETATM   18  C   UNL     1      44.244 -17.230   5.666  1.00  0.00     0.273 C 
BRANCH  18  19
HETATM   19  N   UNL     1      43.247 -17.382   6.757  1.00  0.00    -0.072 N 
HETATM   20  H   UNL     1      43.702 -17.694   7.619  1.00  0.00     0.277 HD
HETATM   21  H   UNL     1      42.654 -18.159   6.425  1.00  0.00     0.277 HD
BRANCH  19  22
HETATM   22  C   UNL     1      42.344 -16.230   6.981  1.00  0.00     0.228 C 
HETATM   23  C   UNL     1      43.152 -14.953   6.861  1.00  0.00     0.034 C 
ENDBRANCH  19  22
ENDBRANCH  18  19
ENDBRANCH   1  18
TORSDOF 5
ENDMDL
MODEL 9
REMARK VINA RESULT:      -6.2      3.058      6.401
REMARK  5 active torsions:
REMARK  status: ('A' for Active; 'I' for Inactive)
REMARK    1  A    between atoms: C_2  and  N_3 
REMARK    2  A    between atoms: N_3  and  C_6 
REMARK    3  A    between atoms: C_6  and  C_7 
REMARK    4  A    between atoms: C_8  and  N_9 
REMARK       I    between atoms: N_9  and  C_10 
REMARK    5  A    between atoms: C_10  and  C_11 
ROOT
HETATM    1  C   UNL     1      40.838 -12.265   0.603  1.00  0.00    -0.006 A 
HETATM    2  C   UNL     1      40.850 -13.678   0.602  1.00  0.00     0.043 A 
HETATM    3  C   UNL     1      40.022 -14.351  -0.325  1.00  0.00     0.030 A 
HETATM    4  C   UNL     1      39.178 -13.674  -1.204  1.00  0.00     0.002 A 
HETATM    5  C   UNL     1      39.141 -12.293  -1.184  1.00  0.00     0.001 A 
HETATM    6  C   UNL     1      39.962 -11.600  -0.298  1.00  0.00     0.011 A 
ENDROOT
BRANCH   2   7
HETATM    7  N   UNL     1      41.580 -14.571   1.424  1.00  0.00    -0.321 N 
HETATM    8  C   UNL     1      41.514 -14.888   2.761  1.00  0.00     0.274 C 
HETATM    9  O   UNL     1      40.836 -14.317   3.607  1.00  0.00    -0.266 OA
HETATM   10  H   UNL     1      42.264 -15.155   0.934  1.00  0.00     0.169 HD
BRANCH   8  11
HETATM   11  C   UNL     1      42.446 -15.985   3.169  1.00  0.00     0.126 A 
HETATM   12  N   UNL     1      43.115 -15.768   4.328  1.00  0.00    -0.231 NA
HETATM   13  C   UNL     1      43.890 -16.788   4.751  1.00  0.00     0.127 A 
HETATM   14 CL   UNL     1      44.659 -16.511   6.256  1.00  0.00    -0.062 Cl
HETATM   15  C   UNL     1      44.057 -17.986   4.072  1.00  0.00     0.044 A 
HETATM   16  C   UNL     1      43.376 -18.159   2.869  1.00  0.00     0.006 A 
HETATM   17  C   UNL     1      42.543 -17.144   2.408  1.00  0.00     0.037 A 
ENDBRANCH   8  11
ENDBRANCH   2   7
BRANCH   1  18
HETATM   18  C   UNL     1      41.680 -11.348   1.454  1.00  0.00     0.273 C 
BRANCH  18  19
HETATM   19  N   UNL     1      41.252 -11.339   2.877  1.00  0.00    -0.072 N 
HETATM   20  H   UNL     1      40.721 -12.186   3.099  1.00  0.00     0.277 HD
HETATM   21  H   UNL     1      40.593 -10.545   2.918  1.00  0.00     0.277 HD
BRANCH  19  22
HETATM   22  C   UNL     1      42.309 -11.057   3.875  1.00  0.00     0.228 C 
HETATM   23  C   UNL     1      43.566 -11.802   3.469  1.00  0.00     0.034 C 
ENDBRANCH  19  22
ENDBRANCH  18  19
ENDBRANCH   1  18
TORSDOF 5
ENDMDL
MODEL 10
REMARK VINA RESULT:      -6.1      2.014      2.265
REMARK  5 active torsions:
REMARK  status: ('A' for Active; 'I' for Inactive)
REMARK    1  A    between atoms: C_2  and  N_3 
REMARK    2  A    between atoms: N_3  and  C_6 
REMARK    3  A    between atoms: C_6  and  C_7 
REMARK    4  A    between atoms: C_8  and  N_9 
REMARK       I    between atoms: N_9  and  C_10 
REMARK    5  A    between atoms: C_10  and  C_11 
ROOT
HETATM    1  C   UNL     1      42.778 -16.072   4.879  1.00  0.00    -0.006 A 
HETATM    2  C   UNL     1      42.634 -16.306   3.494  1.00  0.00     0.043 A 
HETATM    3  C   UNL     1      43.241 -17.458   2.945  1.00  0.00     0.030 A 
HETATM    4  C   UNL     1      44.000 -18.341   3.712  1.00  0.00     0.002 A 
HETATM    5  C   UNL     1      44.169 -18.098   5.062  1.00  0.00     0.001 A 
HETATM    6  C   UNL     1      43.563 -16.983   5.637  1.00  0.00     0.011 A 
ENDROOT
BRANCH   2   7
HETATM    7  N   UNL     1      41.958 -15.533   2.517  1.00  0.00    -0.321 N 
HETATM    8  C   UNL     1      42.111 -14.243   2.066  1.00  0.00     0.274 C 
HETATM    9  O   UNL     1      42.844 -13.390   2.551  1.00  0.00    -0.266 OA
HETATM   10  H   UNL     1      41.242 -16.035   1.983  1.00  0.00     0.169 HD
BRANCH   8  11
HETATM   11  C   UNL     1      41.207 -13.889   0.927  1.00  0.00     0.126 A 
HETATM   12  N   UNL     1      41.306 -12.608   0.494  1.00  0.00    -0.231 NA
HETATM   13  C   UNL     1      40.561 -12.303  -0.589  1.00  0.00     0.127 A 
HETATM   14 CL   UNL     1      40.768 -10.700  -1.156  1.00  0.00    -0.062 Cl
HETATM   15  C   UNL     1      39.709 -13.186  -1.234  1.00  0.00     0.044 A 
HETATM   16  C   UNL     1      39.613 -14.485  -0.740  1.00  0.00     0.006 A 
HETATM   17  C   UNL     1      40.384 -14.853   0.358  1.00  0.00     0.037 A 
ENDBRANCH   8  11
ENDBRANCH   2   7
BRANCH   1  18
HETATM   18  C   UNL     1      42.166 -14.951   5.681  1.00  0.00     0.273 C 
BRANCH  18  19
HETATM   19  N   UNL     1      42.956 -13.695   5.599  1.00  0.00    -0.072 N 
HETATM   20  H   UNL     1      42.339 -12.891   5.454  1.00  0.00     0.277 HD
HETATM   21  H   UNL     1      43.504 -13.819   4.734  1.00  0.00     0.277 HD
BRANCH  19  22
HETATM   22  C   UNL     1      43.935 -13.467   6.687  1.00  0.00     0.228 C 
HETATM   23  C   UNL     1      43.878 -12.006   7.088  1.00  0.00     0.034 C 
ENDBRANCH  19  22
ENDBRANCH  18  19
ENDBRANCH   1  18
TORSDOF 5
ENDMDL
