MODEL 1
REMARK VINA RESULT:      -8.3      0.000      0.000
REMARK  9 active torsions:
REMARK  status: ('A' for Active; 'I' for Inactive)
REMARK    1  A    between atoms: C_2  and  O_3 
REMARK    2  A    between atoms: O_3  and  C_4 
REMARK    3  A    between atoms: C_4  and  C_5 
REMARK    4  A    between atoms: C_7  and  C_8 
REMARK       I    between atoms: C_8  and  N_9 
REMARK    5  A    between atoms: N_9  and  N_10 
REMARK    6  A    between atoms: N_10  and  C_11 
REMARK    7  A    between atoms: C_11  and  N_12 
REMARK    8  A    between atoms: N_12  and  C_13 
REMARK    9  A    between atoms: C_13  and  C_14 
ROOT
HETATM    1  C   UNL     1      41.675 -13.351   3.996  1.00  0.00     0.078 A 
HETATM    2  O   UNL     1      41.579 -12.590   5.124  1.00  0.00    -0.307 OA
HETATM    3  C   UNL     1      40.258 -12.267   5.302  1.00  0.00     0.145 A 
HETATM    4  C   UNL     1      39.522 -12.801   4.258  1.00  0.00     0.045 A 
HETATM    5  C   UNL     1      40.431 -13.500   3.425  1.00  0.00     0.038 A 
ENDROOT
BRANCH   3   6
HETATM    6  C   UNL     1      39.909 -11.499   6.480  1.00  0.00     0.293 C 
HETATM    7  N   UNL     1      40.958 -10.815   7.074  1.00  0.00    -0.262 N 
HETATM    8  H   UNL     1      41.918 -10.849   6.751  1.00  0.00     0.190 HD
HETATM    9  O   UNL     1      38.771 -11.416   6.948  1.00  0.00    -0.264 OA
BRANCH   7  10
HETATM   10  N   UNL     1      40.671  -9.964   8.153  1.00  0.00    -0.274 N 
HETATM   11  H   UNL     1      39.885 -10.279   8.719  1.00  0.00     0.189 HD
BRANCH  10  12
HETATM   12  C   UNL     1      41.649  -9.198   8.733  1.00  0.00     0.186 C 
HETATM   13  S   UNL     1      41.781  -7.536   8.588  1.00  0.00    -0.040 SA
BRANCH  12  14
HETATM   14  N   UNL     1      42.536  -9.862   9.529  1.00  0.00    -0.364 N 
HETATM   15  H   UNL     1      42.280 -10.832   9.703  1.00  0.00     0.162 HD
BRANCH  14  16
HETATM   16  C   UNL     1      43.964  -9.586   9.653  1.00  0.00     0.154 C 
BRANCH  16  17
HETATM   17  C   UNL     1      44.803 -10.608   8.889  1.00  0.00     0.139 C 
HETATM   18  O   UNL     1      43.955 -11.584   8.250  1.00  0.00    -0.384 OA
HETATM   19  C   UNL     1      44.578 -11.977   7.017  1.00  0.00     0.168 C 
HETATM   20  C   UNL     1      45.863 -11.184   6.879  1.00  0.00     0.029 C 
HETATM   21  C   UNL     1      45.616  -9.990   7.767  1.00  0.00     0.035 C 
ENDBRANCH  16  17
ENDBRANCH  14  16
ENDBRANCH  12  14
ENDBRANCH  10  12
ENDBRANCH   7  10
ENDBRANCH   3   6
BRANCH   1  22
HETATM   22  C   UNL     1      43.031 -13.844   3.643  1.00  0.00     0.240 C 
BRANCH  22  23
HETATM   23  O   UNL     1      42.837 -15.031   2.878  1.00  0.00    -0.345 OA
BRANCH  23  24
HETATM   24  C   UNL     1      43.215 -16.212   3.461  1.00  0.00     0.069 A 
HETATM   25  C   UNL     1      43.598 -16.377   4.801  1.00  0.00     0.037 A 
HETATM   26  C   UNL     1      43.993 -17.632   5.283  1.00  0.00     0.010 A 
HETATM   27  C   UNL     1      43.983 -18.708   4.413  1.00  0.00    -0.052 A 
HETATM   28  C   UNL     1      43.600 -18.548   3.079  1.00  0.00    -0.049 A 
HETATM   29  C   UNL     1      44.401 -20.119   4.681  1.00  0.00     0.039 C 
HETATM   30  C   UNL     1      43.226 -17.307   2.590  1.00  0.00     0.044 A 
HETATM   31  C   UNL     1      43.715 -19.838   2.331  1.00  0.00     0.039 C 
HETATM   32  C   UNL     1      43.769 -20.849   3.486  1.00  0.00     0.009 C 
ENDBRANCH  23  24
ENDBRANCH  22  23
ENDBRANCH   1  22
TORSDOF 9
ENDMDL
MODEL 2
REMARK VINA RESULT:      -8.3      2.549      4.351
REMARK  9 active torsions:
REMARK  status: ('A' for Active; 'I' for Inactive)
REMARK    1  A    between atoms: C_2  and  O_3 
REMARK    2  A    between atoms: O_3  and  C_4 
REMARK    3  A    between atoms: C_4  and  C_5 
REMARK    4  A    between atoms: C_7  and  C_8 
REMARK       I    between atoms: C_8  and  N_9 
REMARK    5  A    between atoms: N_9  and  N_10 
REMARK    6  A    between atoms: N_10  and  C_11 
REMARK    7  A    between atoms: C_11  and  N_12 
REMARK    8  A    between atoms: N_12  and  C_13 
REMARK    9  A    between atoms: C_13  and  C_14 
ROOT
HETATM    1  C   UNL     1      44.464 -11.918   6.682  1.00  0.00     0.078 A 
HETATM    2  O   UNL     1      44.001 -11.687   7.943  1.00  0.00    -0.307 OA
HETATM    3  C   UNL     1      44.908 -10.882   8.584  1.00  0.00     0.145 A 
HETATM    4  C   UNL     1      45.968 -10.633   7.729  1.00  0.00     0.045 A 
HETATM    5  C   UNL     1      45.679 -11.293   6.508  1.00  0.00     0.038 A 
ENDROOT
BRANCH   3   6
HETATM    6  C   UNL     1      44.593 -10.459   9.934  1.00  0.00     0.293 C 
HETATM    7  N   UNL     1      43.524 -11.113  10.525  1.00  0.00    -0.262 N 
HETATM    8  H   UNL     1      42.962 -11.821  10.066  1.00  0.00     0.190 HD
HETATM    9  O   UNL     1      45.214  -9.596  10.558  1.00  0.00    -0.264 OA
BRANCH   7  10
HETATM   10  N   UNL     1      43.232 -10.831  11.869  1.00  0.00    -0.274 N 
HETATM   11  H   UNL     1      44.052 -10.851  12.473  1.00  0.00     0.189 HD
BRANCH  10  12
HETATM   12  C   UNL     1      42.165 -10.043  12.215  1.00  0.00     0.186 C 
HETATM   13  S   UNL     1      42.065  -9.115  13.603  1.00  0.00    -0.040 SA
BRANCH  12  14
HETATM   14  N   UNL     1      41.144  -9.988  11.311  1.00  0.00    -0.364 N 
HETATM   15  H   UNL     1      40.647 -10.870  11.204  1.00  0.00     0.162 HD
BRANCH  14  16
HETATM   16  C   UNL     1      40.357  -8.809  10.964  1.00  0.00     0.154 C 
BRANCH  16  17
HETATM   17  C   UNL     1      40.886  -8.130   9.702  1.00  0.00     0.139 C 
HETATM   18  O   UNL     1      42.051  -7.334  10.005  1.00  0.00    -0.384 OA
HETATM   19  C   UNL     1      42.930  -7.379   8.870  1.00  0.00     0.168 C 
HETATM   20  C   UNL     1      42.283  -8.267   7.825  1.00  0.00     0.029 C 
HETATM   21  C   UNL     1      41.342  -9.115   8.643  1.00  0.00     0.035 C 
ENDBRANCH  16  17
ENDBRANCH  14  16
ENDBRANCH  12  14
ENDBRANCH  10  12
ENDBRANCH   7  10
ENDBRANCH   3   6
BRANCH   1  22
HETATM   22  C   UNL     1      43.602 -12.745   5.799  1.00  0.00     0.240 C 
BRANCH  22  23
HETATM   23  O   UNL     1      43.292 -13.925   6.534  1.00  0.00    -0.345 OA
BRANCH  23  24
HETATM   24  C   UNL     1      43.499 -15.122   5.900  1.00  0.00     0.069 A 
HETATM   25  C   UNL     1      44.104 -16.255   6.467  1.00  0.00     0.037 A 
HETATM   26  C   UNL     1      44.288 -17.420   5.713  1.00  0.00     0.010 A 
HETATM   27  C   UNL     1      43.848 -17.436   4.401  1.00  0.00    -0.052 A 
HETATM   28  C   UNL     1      43.243 -16.312   3.834  1.00  0.00    -0.049 A 
HETATM   29  C   UNL     1      43.974 -18.537   3.396  1.00  0.00     0.039 C 
HETATM   30  C   UNL     1      43.074 -15.149   4.567  1.00  0.00     0.044 A 
HETATM   31  C   UNL     1      42.898 -16.557   2.399  1.00  0.00     0.039 C 
HETATM   32  C   UNL     1      42.955 -18.091   2.336  1.00  0.00     0.009 C 
ENDBRANCH  23  24
ENDBRANCH  22  23
ENDBRANCH   1  22
TORSDOF 9
ENDMDL
MODEL 3
REMARK VINA RESULT:      -8.2      2.210      3.234
REMARK  9 active torsions:
REMARK  status: ('A' for Active; 'I' for Inactive)
REMARK    1  A    between atoms: C_2  and  O_3 
REMARK    2  A    between atoms: O_3  and  C_4 
REMARK    3  A    between atoms: C_4  and  C_5 
REMARK    4  A    between atoms: C_7  and  C_8 
REMARK       I    between atoms: C_8  and  N_9 
REMARK    5  A    between atoms: N_9  and  N_10 
REMARK    6  A    between atoms: N_10  and  C_11 
REMARK    7  A    between atoms: C_11  and  N_12 
REMARK    8  A    between atoms: N_12  and  C_13 
REMARK    9  A    between atoms: C_13  and  C_14 
ROOT
HETATM    1  C   UNL     1      41.166 -13.838   3.885  1.00  0.00     0.078 A 
HETATM    2  O   UNL     1      42.321 -13.244   4.299  1.00  0.00    -0.307 OA
HETATM    3  C   UNL     1      41.997 -12.307   5.246  1.00  0.00     0.145 A 
HETATM    4  C   UNL     1      40.622 -12.288   5.406  1.00  0.00     0.045 A 
HETATM    5  C   UNL     1      40.091 -13.273   4.536  1.00  0.00     0.038 A 
ENDROOT
BRANCH   3   6
HETATM    6  C   UNL     1      43.085 -11.582   5.872  1.00  0.00     0.293 C 
HETATM    7  N   UNL     1      43.324 -11.901   7.199  1.00  0.00    -0.262 N 
HETATM    8  H   UNL     1      42.779 -12.569   7.733  1.00  0.00     0.190 HD
HETATM    9  O   UNL     1      43.786 -10.744   5.300  1.00  0.00    -0.264 OA
BRANCH   7  10
HETATM   10  N   UNL     1      44.431 -11.318   7.835  1.00  0.00    -0.274 N 
HETATM   11  H   UNL     1      45.283 -11.354   7.278  1.00  0.00     0.189 HD
BRANCH  10  12
HETATM   12  C   UNL     1      44.275 -10.313   8.754  1.00  0.00     0.186 C 
HETATM   13  S   UNL     1      45.043  -8.829   8.696  1.00  0.00    -0.040 SA
BRANCH  12  14
HETATM   14  N   UNL     1      43.374 -10.550   9.752  1.00  0.00    -0.364 N 
HETATM   15  H   UNL     1      42.620 -11.176   9.479  1.00  0.00     0.162 HD
BRANCH  14  16
HETATM   16  C   UNL     1      43.644 -10.522  11.186  1.00  0.00     0.154 C 
BRANCH  16  17
HETATM   17  C   UNL     1      42.779  -9.486  11.902  1.00  0.00     0.139 C 
HETATM   18  O   UNL     1      42.167 -10.060  13.075  1.00  0.00    -0.384 OA
HETATM   19  C   UNL     1      42.065  -9.033  14.074  1.00  0.00     0.168 C 
HETATM   20  C   UNL     1      42.667  -7.768  13.493  1.00  0.00     0.029 C 
HETATM   21  C   UNL     1      43.572  -8.296  12.408  1.00  0.00     0.035 C 
ENDBRANCH  16  17
ENDBRANCH  14  16
ENDBRANCH  12  14
ENDBRANCH  10  12
ENDBRANCH   7  10
ENDBRANCH   3   6
BRANCH   1  22
HETATM   22  C   UNL     1      41.300 -14.922   2.878  1.00  0.00     0.240 C 
BRANCH  22  23
HETATM   23  O   UNL     1      42.693 -15.200   2.775  1.00  0.00    -0.345 OA
BRANCH  23  24
HETATM   24  C   UNL     1      43.138 -16.359   3.355  1.00  0.00     0.069 A 
HETATM   25  C   UNL     1      43.623 -16.484   4.667  1.00  0.00     0.037 A 
HETATM   26  C   UNL     1      44.079 -17.718   5.146  1.00  0.00     0.010 A 
HETATM   27  C   UNL     1      44.028 -18.815   4.304  1.00  0.00    -0.052 A 
HETATM   28  C   UNL     1      43.544 -18.696   3.000  1.00  0.00    -0.049 A 
HETATM   29  C   UNL     1      44.495 -20.211   4.573  1.00  0.00     0.039 C 
HETATM   30  C   UNL     1      43.108 -17.474   2.511  1.00  0.00     0.044 A 
HETATM   31  C   UNL     1      43.631 -20.001   2.275  1.00  0.00     0.039 C 
HETATM   32  C   UNL     1      43.792 -20.982   3.446  1.00  0.00     0.009 C 
ENDBRANCH  23  24
ENDBRANCH  22  23
ENDBRANCH   1  22
TORSDOF 9
ENDMDL
MODEL 4
REMARK VINA RESULT:      -8.1      3.272      9.768
REMARK  9 active torsions:
REMARK  status: ('A' for Active; 'I' for Inactive)
REMARK    1  A    between atoms: C_2  and  O_3 
REMARK    2  A    between atoms: O_3  and  C_4 
REMARK    3  A    between atoms: C_4  and  C_5 
REMARK    4  A    between atoms: C_7  and  C_8 
REMARK       I    between atoms: C_8  and  N_9 
REMARK    5  A    between atoms: N_9  and  N_10 
REMARK    6  A    between atoms: N_10  and  C_11 
REMARK    7  A    between atoms: C_11  and  N_12 
REMARK    8  A    between atoms: N_12  and  C_13 
REMARK    9  A    between atoms: C_13  and  C_14 
ROOT
HETATM    1  C   UNL     1      45.285 -10.625   8.675  1.00  0.00     0.078 A 
HETATM    2  O   UNL     1      44.353 -11.592   8.437  1.00  0.00    -0.307 OA
HETATM    3  C   UNL     1      44.489 -11.996   7.134  1.00  0.00     0.145 A 
HETATM    4  C   UNL     1      45.494 -11.254   6.537  1.00  0.00     0.045 A 
HETATM    5  C   UNL     1      46.007 -10.380   7.528  1.00  0.00     0.038 A 
ENDROOT
BRANCH   3   6
HETATM    6  C   UNL     1      43.628 -13.066   6.670  1.00  0.00     0.293 C 
HETATM    7  N   UNL     1      43.024 -12.849   5.442  1.00  0.00    -0.262 N 
HETATM    8  H   UNL     1      43.132 -12.003   4.893  1.00  0.00     0.190 HD
HETATM    9  O   UNL     1      43.430 -14.118   7.281  1.00  0.00    -0.264 OA
BRANCH   7  10
HETATM   10  N   UNL     1      42.264 -13.888   4.881  1.00  0.00    -0.274 N 
HETATM   11  H   UNL     1      42.716 -14.799   4.945  1.00  0.00     0.189 HD
BRANCH  10  12
HETATM   12  C   UNL     1      40.896 -13.822   4.832  1.00  0.00     0.186 C 
HETATM   13  S   UNL     1      39.965 -12.636   5.556  1.00  0.00    -0.040 SA
BRANCH  12  14
HETATM   14  N   UNL     1      40.278 -14.778   4.080  1.00  0.00    -0.364 N 
HETATM   15  H   UNL     1      39.592 -15.322   4.599  1.00  0.00     0.162 HD
BRANCH  14  16
HETATM   16  C   UNL     1      40.043 -14.730   2.640  1.00  0.00     0.154 C 
BRANCH  16  17
HETATM   17  C   UNL     1      41.157 -15.430   1.864  1.00  0.00     0.139 C 
HETATM   18  O   UNL     1      42.307 -14.568   1.739  1.00  0.00    -0.384 OA
HETATM   19  C   UNL     1      43.486 -15.388   1.766  1.00  0.00     0.168 C 
HETATM   20  C   UNL     1      43.038 -16.826   1.940  1.00  0.00     0.029 C 
HETATM   21  C   UNL     1      41.669 -16.679   2.556  1.00  0.00     0.035 C 
ENDBRANCH  16  17
ENDBRANCH  14  16
ENDBRANCH  12  14
ENDBRANCH  10  12
ENDBRANCH   7  10
ENDBRANCH   3   6
BRANCH   1  22
HETATM   22  C   UNL     1      45.334 -10.075  10.054  1.00  0.00     0.240 C 
BRANCH  22  23
HETATM   23  O   UNL     1      44.249  -9.156  10.155  1.00  0.00    -0.345 OA
BRANCH  23  24
HETATM   24  C   UNL     1      43.540  -9.163  11.327  1.00  0.00     0.069 A 
HETATM   25  C   UNL     1      42.743 -10.220  11.796  1.00  0.00     0.037 A 
HETATM   26  C   UNL     1      42.037 -10.104  13.000  1.00  0.00     0.010 A 
HETATM   27  C   UNL     1      42.154  -8.931  13.726  1.00  0.00    -0.052 A 
HETATM   28  C   UNL     1      42.948  -7.879  13.265  1.00  0.00    -0.049 A 
HETATM   29  C   UNL     1      41.469  -8.561  15.003  1.00  0.00     0.039 C 
HETATM   30  C   UNL     1      43.634  -7.978  12.065  1.00  0.00     0.044 A 
HETATM   31  C   UNL     1      42.878  -6.708  14.193  1.00  0.00     0.039 C 
HETATM   32  C   UNL     1      42.322  -7.370  15.464  1.00  0.00     0.009 C 
ENDBRANCH  23  24
ENDBRANCH  22  23
ENDBRANCH   1  22
TORSDOF 9
ENDMDL
MODEL 5
REMARK VINA RESULT:      -8.1      4.021      5.883
REMARK  9 active torsions:
REMARK  status: ('A' for Active; 'I' for Inactive)
REMARK    1  A    between atoms: C_2  and  O_3 
REMARK    2  A    between atoms: O_3  and  C_4 
REMARK    3  A    between atoms: C_4  and  C_5 
REMARK    4  A    between atoms: C_7  and  C_8 
REMARK       I    between atoms: C_8  and  N_9 
REMARK    5  A    between atoms: N_9  and  N_10 
REMARK    6  A    between atoms: N_10  and  C_11 
REMARK    7  A    between atoms: C_11  and  N_12 
REMARK    8  A    between atoms: N_12  and  C_13 
REMARK    9  A    between atoms: C_13  and  C_14 
ROOT
HETATM    1  C   UNL     1      41.765 -14.619   6.338  1.00  0.00     0.078 A 
HETATM    2  O   UNL     1      42.427 -14.088   5.271  1.00  0.00    -0.307 OA
HETATM    3  C   UNL     1      41.528 -13.356   4.539  1.00  0.00     0.145 A 
HETATM    4  C   UNL     1      40.281 -13.455   5.132  1.00  0.00     0.045 A 
HETATM    5  C   UNL     1      40.436 -14.260   6.289  1.00  0.00     0.038 A 
ENDROOT
BRANCH   3   6
HETATM    6  C   UNL     1      42.027 -12.651   3.375  1.00  0.00     0.293 C 
HETATM    7  N   UNL     1      41.074 -11.949   2.655  1.00  0.00    -0.262 N 
HETATM    8  H   UNL     1      40.085 -11.931   2.880  1.00  0.00     0.190 HD
HETATM    9  O   UNL     1      43.208 -12.633   3.023  1.00  0.00    -0.264 OA
BRANCH   7  10
HETATM   10  N   UNL     1      41.504 -11.154   1.580  1.00  0.00    -0.274 N 
HETATM   11  H   UNL     1      42.388 -10.679   1.757  1.00  0.00     0.189 HD
BRANCH  10  12
HETATM   12  C   UNL     1      41.150 -11.452   0.290  1.00  0.00     0.186 C 
HETATM   13  S   UNL     1      40.797 -10.324  -0.894  1.00  0.00    -0.040 SA
BRANCH  12  14
HETATM   14  N   UNL     1      41.148 -12.776  -0.040  1.00  0.00    -0.364 N 
HETATM   15  H   UNL     1      42.057 -13.223   0.065  1.00  0.00     0.162 HD
BRANCH  14  16
HETATM   16  C   UNL     1      40.014 -13.690   0.055  1.00  0.00     0.154 C 
BRANCH  16  17
HETATM   17  C   UNL     1      40.434 -15.054   0.598  1.00  0.00     0.139 C 
HETATM   18  O   UNL     1      41.862 -15.105   0.791  1.00  0.00    -0.384 OA
HETATM   19  C   UNL     1      42.130 -15.937   1.931  1.00  0.00     0.168 C 
HETATM   20  C   UNL     1      40.796 -16.403   2.481  1.00  0.00     0.029 C 
HETATM   21  C   UNL     1      39.837 -15.363   1.958  1.00  0.00     0.035 C 
ENDBRANCH  16  17
ENDBRANCH  14  16
ENDBRANCH  12  14
ENDBRANCH  10  12
ENDBRANCH   7  10
ENDBRANCH   3   6
BRANCH   1  22
HETATM   22  C   UNL     1      42.574 -15.423   7.290  1.00  0.00     0.240 C 
BRANCH  22  23
HETATM   23  O   UNL     1      43.717 -15.868   6.564  1.00  0.00    -0.345 OA
BRANCH  23  24
HETATM   24  C   UNL     1      43.699 -17.161   6.114  1.00  0.00     0.069 A 
HETATM   25  C   UNL     1      43.470 -18.300   6.903  1.00  0.00     0.037 A 
HETATM   26  C   UNL     1      43.502 -19.581   6.337  1.00  0.00     0.010 A 
HETATM   27  C   UNL     1      43.751 -19.700   4.981  1.00  0.00    -0.052 A 
HETATM   28  C   UNL     1      43.977 -18.569   4.192  1.00  0.00    -0.049 A 
HETATM   29  C   UNL     1      43.878 -20.949   4.169  1.00  0.00     0.039 C 
HETATM   30  C   UNL     1      43.965 -17.300   4.747  1.00  0.00     0.044 A 
HETATM   31  C   UNL     1      44.267 -18.954   2.776  1.00  0.00     0.039 C 
HETATM   32  C   UNL     1      43.734 -20.395   2.744  1.00  0.00     0.009 C 
ENDBRANCH  23  24
ENDBRANCH  22  23
ENDBRANCH   1  22
TORSDOF 9
ENDMDL
MODEL 6
REMARK VINA RESULT:      -7.9      5.229      7.227
REMARK  9 active torsions:
REMARK  status: ('A' for Active; 'I' for Inactive)
REMARK    1  A    between atoms: C_2  and  O_3 
REMARK    2  A    between atoms: O_3  and  C_4 
REMARK    3  A    between atoms: C_4  and  C_5 
REMARK    4  A    between atoms: C_7  and  C_8 
REMARK       I    between atoms: C_8  and  N_9 
REMARK    5  A    between atoms: N_9  and  N_10 
REMARK    6  A    between atoms: N_10  and  C_11 
REMARK    7  A    between atoms: C_11  and  N_12 
REMARK    8  A    between atoms: N_12  and  C_13 
REMARK    9  A    between atoms: C_13  and  C_14 
ROOT
HETATM    1  C   UNL     1      41.477 -13.351   3.366  1.00  0.00     0.078 A 
HETATM    2  O   UNL     1      40.820 -13.156   2.187  1.00  0.00    -0.307 OA
HETATM    3  C   UNL     1      39.573 -12.666   2.476  1.00  0.00     0.145 A 
HETATM    4  C   UNL     1      39.431 -12.583   3.850  1.00  0.00     0.045 A 
HETATM    5  C   UNL     1      40.655 -13.017   4.419  1.00  0.00     0.038 A 
ENDROOT
BRANCH   3   6
HETATM    6  C   UNL     1      38.709 -12.332   1.361  1.00  0.00     0.293 C 
HETATM    7  N   UNL     1      39.036 -12.936   0.157  1.00  0.00    -0.262 N 
HETATM    8  H   UNL     1      39.832 -13.549   0.023  1.00  0.00     0.190 HD
HETATM    9  O   UNL     1      37.732 -11.584   1.434  1.00  0.00    -0.264 OA
BRANCH   7  10
HETATM   10  N   UNL     1      38.179 -12.744  -0.938  1.00  0.00    -0.274 N 
HETATM   11  H   UNL     1      37.544 -11.956  -0.822  1.00  0.00     0.189 HD
BRANCH  10  12
HETATM   12  C   UNL     1      38.544 -13.128  -2.202  1.00  0.00     0.186 C 
HETATM   13  S   UNL     1      38.675 -14.711  -2.726  1.00  0.00    -0.040 SA
BRANCH  12  14
HETATM   14  N   UNL     1      38.758 -12.119  -3.096  1.00  0.00    -0.364 N 
HETATM   15  H   UNL     1      38.875 -12.442  -4.054  1.00  0.00     0.162 HD
BRANCH  14  16
HETATM   16  C   UNL     1      38.283 -10.743  -2.979  1.00  0.00     0.154 C 
BRANCH  16  17
HETATM   17  C   UNL     1      39.358  -9.823  -2.405  1.00  0.00     0.139 C 
HETATM   18  O   UNL     1      39.404  -9.932  -0.967  1.00  0.00    -0.384 OA
HETATM   19  C   UNL     1      40.767  -9.757  -0.550  1.00  0.00     0.168 C 
HETATM   20  C   UNL     1      41.606  -9.553  -1.797  1.00  0.00     0.029 C 
HETATM   21  C   UNL     1      40.756 -10.176  -2.876  1.00  0.00     0.035 C 
ENDBRANCH  16  17
ENDBRANCH  14  16
ENDBRANCH  12  14
ENDBRANCH  10  12
ENDBRANCH   7  10
ENDBRANCH   3   6
BRANCH   1  22
HETATM   22  C   UNL     1      42.874 -13.846   3.274  1.00  0.00     0.240 C 
BRANCH  22  23
HETATM   23  O   UNL     1      42.821 -15.056   2.525  1.00  0.00    -0.345 OA
BRANCH  23  24
HETATM   24  C   UNL     1      43.187 -16.204   3.176  1.00  0.00     0.069 A 
HETATM   25  C   UNL     1      43.548 -16.298   4.530  1.00  0.00     0.037 A 
HETATM   26  C   UNL     1      43.933 -17.525   5.085  1.00  0.00     0.010 A 
HETATM   27  C   UNL     1      43.936 -18.647   4.273  1.00  0.00    -0.052 A 
HETATM   28  C   UNL     1      43.574 -18.558   2.927  1.00  0.00    -0.049 A 
HETATM   29  C   UNL     1      44.347 -20.041   4.624  1.00  0.00     0.039 C 
HETATM   30  C   UNL     1      43.210 -17.345   2.366  1.00  0.00     0.044 A 
HETATM   31  C   UNL     1      43.700 -19.887   2.251  1.00  0.00     0.039 C 
HETATM   32  C   UNL     1      43.733 -20.834   3.460  1.00  0.00     0.009 C 
ENDBRANCH  23  24
ENDBRANCH  22  23
ENDBRANCH   1  22
TORSDOF 9
ENDMDL
MODEL 7
REMARK VINA RESULT:      -7.8      3.645      9.885
REMARK  9 active torsions:
REMARK  status: ('A' for Active; 'I' for Inactive)
REMARK    1  A    between atoms: C_2  and  O_3 
REMARK    2  A    between atoms: O_3  and  C_4 
REMARK    3  A    between atoms: C_4  and  C_5 
REMARK    4  A    between atoms: C_7  and  C_8 
REMARK       I    between atoms: C_8  and  N_9 
REMARK    5  A    between atoms: N_9  and  N_10 
REMARK    6  A    between atoms: N_10  and  C_11 
REMARK    7  A    between atoms: C_11  and  N_12 
REMARK    8  A    between atoms: N_12  and  C_13 
REMARK    9  A    between atoms: C_13  and  C_14 
ROOT
HETATM    1  C   UNL     1      44.836 -10.294   9.803  1.00  0.00     0.078 A 
HETATM    2  O   UNL     1      44.406 -11.101   8.792  1.00  0.00    -0.307 OA
HETATM    3  C   UNL     1      45.024 -10.696   7.637  1.00  0.00     0.145 A 
HETATM    4  C   UNL     1      45.825  -9.602   7.918  1.00  0.00     0.045 A 
HETATM    5  C   UNL     1      45.707  -9.349   9.308  1.00  0.00     0.038 A 
ENDROOT
BRANCH   3   6
HETATM    6  C   UNL     1      44.755 -11.452   6.431  1.00  0.00     0.293 C 
HETATM    7  N   UNL     1      43.867 -12.505   6.578  1.00  0.00    -0.262 N 
HETATM    8  H   UNL     1      43.438 -12.773   7.457  1.00  0.00     0.190 HD
HETATM    9  O   UNL     1      45.245 -11.204   5.327  1.00  0.00    -0.264 OA
BRANCH   7  10
HETATM   10  N   UNL     1      43.476 -13.212   5.430  1.00  0.00    -0.274 N 
HETATM   11  H   UNL     1      44.058 -14.027   5.239  1.00  0.00     0.189 HD
BRANCH  10  12
HETATM   12  C   UNL     1      42.176 -13.203   4.997  1.00  0.00     0.186 C 
HETATM   13  S   UNL     1      41.172 -11.864   4.998  1.00  0.00    -0.040 SA
BRANCH  12  14
HETATM   14  N   UNL     1      41.708 -14.376   4.480  1.00  0.00    -0.364 N 
HETATM   15  H   UNL     1      42.221 -14.692   3.660  1.00  0.00     0.162 HD
BRANCH  14  16
HETATM   16  C   UNL     1      41.040 -15.443   5.219  1.00  0.00     0.154 C 
BRANCH  16  17
HETATM   17  C   UNL     1      42.043 -16.432   5.811  1.00  0.00     0.139 C 
HETATM   18  O   UNL     1      43.279 -16.405   5.069  1.00  0.00    -0.384 OA
HETATM   19  C   UNL     1      44.356 -16.652   5.986  1.00  0.00     0.168 C 
HETATM   20  C   UNL     1      43.753 -16.816   7.367  1.00  0.00     0.029 C 
HETATM   21  C   UNL     1      42.429 -16.104   7.241  1.00  0.00     0.035 C 
ENDBRANCH  16  17
ENDBRANCH  14  16
ENDBRANCH  12  14
ENDBRANCH  10  12
ENDBRANCH   7  10
ENDBRANCH   3   6
BRANCH   1  22
HETATM   22  C   UNL     1      44.311 -10.593  11.160  1.00  0.00     0.240 C 
BRANCH  22  23
HETATM   23  O   UNL     1      42.905 -10.367  11.103  1.00  0.00    -0.345 OA
BRANCH  23  24
HETATM   24  C   UNL     1      42.331  -9.758  12.187  1.00  0.00     0.069 A 
HETATM   25  C   UNL     1      41.087 -10.088  12.749  1.00  0.00     0.037 A 
HETATM   26  C   UNL     1      40.585  -9.375  13.845  1.00  0.00     0.010 A 
HETATM   27  C   UNL     1      41.348  -8.348  14.372  1.00  0.00    -0.052 A 
HETATM   28  C   UNL     1      42.587  -8.018  13.819  1.00  0.00    -0.049 A 
HETATM   29  C   UNL     1      41.006  -7.426  15.499  1.00  0.00     0.039 C 
HETATM   30  C   UNL     1      43.083  -8.706  12.723  1.00  0.00     0.044 A 
HETATM   31  C   UNL     1      43.197  -6.851  14.529  1.00  0.00     0.039 C 
HETATM   32  C   UNL     1      42.386  -6.839  15.833  1.00  0.00     0.009 C 
ENDBRANCH  23  24
ENDBRANCH  22  23
ENDBRANCH   1  22
TORSDOF 9
ENDMDL
MODEL 8
REMARK VINA RESULT:      -7.5      4.330      8.032
REMARK  9 active torsions:
REMARK  status: ('A' for Active; 'I' for Inactive)
REMARK    1  A    between atoms: C_2  and  O_3 
REMARK    2  A    between atoms: O_3  and  C_4 
REMARK    3  A    between atoms: C_4  and  C_5 
REMARK    4  A    between atoms: C_7  and  C_8 
REMARK       I    between atoms: C_8  and  N_9 
REMARK    5  A    between atoms: N_9  and  N_10 
REMARK    6  A    between atoms: N_10  and  C_11 
REMARK    7  A    between atoms: C_11  and  N_12 
REMARK    8  A    between atoms: N_12  and  C_13 
REMARK    9  A    between atoms: C_13  and  C_14 
ROOT
HETATM    1  C   UNL     1      42.444 -15.030   6.006  1.00  0.00     0.078 A 
HETATM    2  O   UNL     1      42.448 -15.257   4.662  1.00  0.00    -0.307 OA
HETATM    3  C   UNL     1      41.285 -15.908   4.341  1.00  0.00     0.145 A 
HETATM    4  C   UNL     1      40.557 -16.122   5.500  1.00  0.00     0.045 A 
HETATM    5  C   UNL     1      41.299 -15.554   6.565  1.00  0.00     0.038 A 
ENDROOT
BRANCH   3   6
HETATM    6  C   UNL     1      41.046 -16.207   2.943  1.00  0.00     0.293 C 
HETATM    7  N   UNL     1      40.038 -15.470   2.344  1.00  0.00    -0.262 N 
HETATM    8  H   UNL     1      39.468 -14.783   2.825  1.00  0.00     0.190 HD
HETATM    9  O   UNL     1      41.681 -17.036   2.288  1.00  0.00    -0.264 OA
BRANCH   7  10
HETATM   10  N   UNL     1      39.826 -15.628   0.965  1.00  0.00    -0.274 N 
HETATM   11  H   UNL     1      39.065 -16.268   0.744  1.00  0.00     0.189 HD
BRANCH  10  12
HETATM   12  C   UNL     1      40.143 -14.632   0.078  1.00  0.00     0.186 C 
HETATM   13  S   UNL     1      39.393 -14.385  -1.397  1.00  0.00    -0.040 SA
BRANCH  12  14
HETATM   14  N   UNL     1      41.109 -13.757   0.481  1.00  0.00    -0.364 N 
HETATM   15  H   UNL     1      42.056 -14.101   0.337  1.00  0.00     0.162 HD
BRANCH  14  16
HETATM   16  C   UNL     1      40.997 -12.302   0.520  1.00  0.00     0.154 C 
BRANCH  16  17
HETATM   17  C   UNL     1      40.651 -11.801   1.921  1.00  0.00     0.139 C 
HETATM   18  O   UNL     1      39.357 -12.291   2.329  1.00  0.00    -0.384 OA
HETATM   19  C   UNL     1      39.390 -12.510   3.748  1.00  0.00     0.168 C 
HETATM   20  C   UNL     1      40.783 -12.160   4.234  1.00  0.00     0.029 C 
HETATM   21  C   UNL     1      41.616 -12.293   2.984  1.00  0.00     0.035 C 
ENDBRANCH  16  17
ENDBRANCH  14  16
ENDBRANCH  12  14
ENDBRANCH  10  12
ENDBRANCH   7  10
ENDBRANCH   3   6
BRANCH   1  22
HETATM   22  C   UNL     1      43.610 -14.294   6.559  1.00  0.00     0.240 C 
BRANCH  22  23
HETATM   23  O   UNL     1      43.676 -13.061   5.848  1.00  0.00    -0.345 OA
BRANCH  23  24
HETATM   24  C   UNL     1      44.217 -11.991   6.512  1.00  0.00     0.069 A 
HETATM   25  C   UNL     1      45.587 -11.712   6.635  1.00  0.00     0.037 A 
HETATM   26  C   UNL     1      46.028 -10.600   7.363  1.00  0.00     0.010 A 
HETATM   27  C   UNL     1      45.084  -9.774   7.948  1.00  0.00    -0.052 A 
HETATM   28  C   UNL     1      43.719 -10.047   7.826  1.00  0.00    -0.049 A 
HETATM   29  C   UNL     1      45.311  -8.568   8.802  1.00  0.00     0.039 C 
HETATM   30  C   UNL     1      43.275 -11.155   7.122  1.00  0.00     0.044 A 
HETATM   31  C   UNL     1      42.904  -9.044   8.578  1.00  0.00     0.039 C 
HETATM   32  C   UNL     1      43.924  -7.910   8.763  1.00  0.00     0.009 C 
ENDBRANCH  23  24
ENDBRANCH  22  23
ENDBRANCH   1  22
TORSDOF 9
ENDMDL
MODEL 9
REMARK VINA RESULT:      -7.4      3.675      5.964
REMARK  9 active torsions:
REMARK  status: ('A' for Active; 'I' for Inactive)
REMARK    1  A    between atoms: C_2  and  O_3 
REMARK    2  A    between atoms: O_3  and  C_4 
REMARK    3  A    between atoms: C_4  and  C_5 
REMARK    4  A    between atoms: C_7  and  C_8 
REMARK       I    between atoms: C_8  and  N_9 
REMARK    5  A    between atoms: N_9  and  N_10 
REMARK    6  A    between atoms: N_10  and  C_11 
REMARK    7  A    between atoms: C_11  and  N_12 
REMARK    8  A    between atoms: N_12  and  C_13 
REMARK    9  A    between atoms: C_13  and  C_14 
ROOT
HETATM    1  C   UNL     1      44.943 -10.923   7.838  1.00  0.00     0.078 A 
HETATM    2  O   UNL     1      43.938 -10.929   8.760  1.00  0.00    -0.307 OA
HETATM    3  C   UNL     1      44.286 -10.067   9.768  1.00  0.00     0.145 A 
HETATM    4  C   UNL     1      45.537  -9.539   9.494  1.00  0.00     0.045 A 
HETATM    5  C   UNL     1      45.954 -10.085   8.254  1.00  0.00     0.038 A 
ENDROOT
BRANCH   3   6
HETATM    6  C   UNL     1      43.333  -9.871  10.842  1.00  0.00     0.293 C 
HETATM    7  N   UNL     1      42.030 -10.239  10.551  1.00  0.00    -0.262 N 
HETATM    8  H   UNL     1      41.723 -10.597   9.653  1.00  0.00     0.190 HD
HETATM    9  O   UNL     1      43.619  -9.427  11.956  1.00  0.00    -0.264 OA
BRANCH   7  10
HETATM   10  N   UNL     1      41.076 -10.179  11.579  1.00  0.00    -0.274 N 
HETATM   11  H   UNL     1      41.335 -10.719  12.404  1.00  0.00     0.189 HD
BRANCH  10  12
HETATM   12  C   UNL     1      40.252  -9.093  11.723  1.00  0.00     0.186 C 
HETATM   13  S   UNL     1      39.315  -8.429  10.506  1.00  0.00    -0.040 SA
BRANCH  12  14
HETATM   14  N   UNL     1      40.168  -8.567  12.979  1.00  0.00    -0.364 N 
HETATM   15  H   UNL     1      39.290  -8.087  13.161  1.00  0.00     0.162 HD
BRANCH  14  16
HETATM   16  C   UNL     1      40.838  -9.070  14.175  1.00  0.00     0.154 C 
BRANCH  16  17
HETATM   17  C   UNL     1      41.677  -7.986  14.849  1.00  0.00     0.139 C 
HETATM   18  O   UNL     1      41.454  -6.708  14.218  1.00  0.00    -0.384 OA
HETATM   19  C   UNL     1      41.554  -5.689  15.226  1.00  0.00     0.168 C 
HETATM   20  C   UNL     1      41.829  -6.379  16.548  1.00  0.00     0.029 C 
HETATM   21  C   UNL     1      41.319  -7.778  16.308  1.00  0.00     0.035 C 
ENDBRANCH  16  17
ENDBRANCH  14  16
ENDBRANCH  12  14
ENDBRANCH  10  12
ENDBRANCH   7  10
ENDBRANCH   3   6
BRANCH   1  22
HETATM   22  C   UNL     1      44.744 -11.770   6.634  1.00  0.00     0.240 C 
BRANCH  22  23
HETATM   23  O   UNL     1      43.885 -12.834   7.031  1.00  0.00    -0.345 OA
BRANCH  23  24
HETATM   24  C   UNL     1      43.592 -13.780   6.085  1.00  0.00     0.069 A 
HETATM   25  C   UNL     1      42.966 -13.539   4.852  1.00  0.00     0.037 A 
HETATM   26  C   UNL     1      42.691 -14.592   3.970  1.00  0.00     0.010 A 
HETATM   27  C   UNL     1      43.062 -15.875   4.335  1.00  0.00    -0.052 A 
HETATM   28  C   UNL     1      43.688 -16.119   5.560  1.00  0.00    -0.049 A 
HETATM   29  C   UNL     1      42.835 -17.151   3.589  1.00  0.00     0.039 C 
HETATM   30  C   UNL     1      43.947 -15.085   6.446  1.00  0.00     0.044 A 
HETATM   31  C   UNL     1      43.948 -17.580   5.746  1.00  0.00     0.039 C 
HETATM   32  C   UNL     1      43.818 -18.092   4.303  1.00  0.00     0.009 C 
ENDBRANCH  23  24
ENDBRANCH  22  23
ENDBRANCH   1  22
TORSDOF 9
ENDMDL
MODEL 10
REMARK VINA RESULT:      -7.4      4.980      7.320
REMARK  9 active torsions:
REMARK  status: ('A' for Active; 'I' for Inactive)
REMARK    1  A    between atoms: C_2  and  O_3 
REMARK    2  A    between atoms: O_3  and  C_4 
REMARK    3  A    between atoms: C_4  and  C_5 
REMARK    4  A    between atoms: C_7  and  C_8 
REMARK       I    between atoms: C_8  and  N_9 
REMARK    5  A    between atoms: N_9  and  N_10 
REMARK    6  A    between atoms: N_10  and  C_11 
REMARK    7  A    between atoms: C_11  and  N_12 
REMARK    8  A    between atoms: N_12  and  C_13 
REMARK    9  A    between atoms: C_13  and  C_14 
ROOT
HETATM    1  C   UNL     1      41.831 -13.234   2.666  1.00  0.00     0.078 A 
HETATM    2  O   UNL     1      41.076 -12.448   1.847  1.00  0.00    -0.307 OA
HETATM    3  C   UNL     1      41.595 -11.179   1.884  1.00  0.00     0.145 A 
HETATM    4  C   UNL     1      42.667 -11.160   2.761  1.00  0.00     0.045 A 
HETATM    5  C   UNL     1      42.820 -12.479   3.257  1.00  0.00     0.038 A 
ENDROOT
BRANCH   3   6
HETATM    6  C   UNL     1      40.978 -10.177   1.039  1.00  0.00     0.293 C 
HETATM    7  N   UNL     1      41.660  -9.888  -0.131  1.00  0.00    -0.262 N 
HETATM    8  H   UNL     1      42.544 -10.307  -0.397  1.00  0.00     0.190 HD
HETATM    9  O   UNL     1      39.914  -9.607   1.294  1.00  0.00    -0.264 OA
BRANCH   7  10
HETATM   10  N   UNL     1      41.064  -9.007  -1.049  1.00  0.00    -0.274 N 
HETATM   11  H   UNL     1      41.523  -8.098  -1.093  1.00  0.00     0.189 HD
BRANCH  10  12
HETATM   12  C   UNL     1      40.396  -9.474  -2.150  1.00  0.00     0.186 C 
HETATM   13  S   UNL     1      40.922  -9.319  -3.731  1.00  0.00    -0.040 SA
BRANCH  12  14
HETATM   14  N   UNL     1      39.243 -10.161  -1.904  1.00  0.00    -0.364 N 
HETATM   15  H   UNL     1      38.669  -9.744  -1.175  1.00  0.00     0.162 HD
BRANCH  14  16
HETATM   16  C   UNL     1      38.502 -10.980  -2.859  1.00  0.00     0.154 C 
BRANCH  16  17
HETATM   17  C   UNL     1      38.581 -12.465  -2.508  1.00  0.00     0.139 C 
HETATM   18  O   UNL     1      39.578 -13.124  -3.314  1.00  0.00    -0.384 OA
HETATM   19  C   UNL     1      40.177 -14.163  -2.524  1.00  0.00     0.168 C 
HETATM   20  C   UNL     1      39.530 -14.125  -1.153  1.00  0.00     0.029 C 
HETATM   21  C   UNL     1      39.001 -12.715  -1.072  1.00  0.00     0.035 C 
ENDBRANCH  16  17
ENDBRANCH  14  16
ENDBRANCH  12  14
ENDBRANCH  10  12
ENDBRANCH   7  10
ENDBRANCH   3   6
BRANCH   1  22
HETATM   22  C   UNL     1      41.458 -14.670   2.738  1.00  0.00     0.240 C 
BRANCH  22  23
HETATM   23  O   UNL     1      42.554 -15.396   2.190  1.00  0.00    -0.345 OA
BRANCH  23  24
HETATM   24  C   UNL     1      43.027 -16.451   2.925  1.00  0.00     0.069 A 
HETATM   25  C   UNL     1      43.487 -16.386   4.249  1.00  0.00     0.037 A 
HETATM   26  C   UNL     1      43.976 -17.529   4.894  1.00  0.00     0.010 A 
HETATM   27  C   UNL     1      43.982 -18.728   4.202  1.00  0.00    -0.052 A 
HETATM   28  C   UNL     1      43.521 -18.798   2.885  1.00  0.00    -0.049 A 
HETATM   29  C   UNL     1      44.491 -20.058   4.659  1.00  0.00     0.039 C 
HETATM   30  C   UNL     1      43.054 -17.668   2.234  1.00  0.00     0.044 A 
HETATM   31  C   UNL     1      43.670 -20.183   2.339  1.00  0.00     0.039 C 
HETATM   32  C   UNL     1      43.840 -20.996   3.632  1.00  0.00     0.009 C 
ENDBRANCH  23  24
ENDBRANCH  22  23
ENDBRANCH   1  22
TORSDOF 9
ENDMDL
