MODEL 1
REMARK VINA RESULT:      -9.9      0.000      0.000
REMARK  8 active torsions:
REMARK  status: ('A' for Active; 'I' for Inactive)
REMARK    1  A    between atoms: C_6  and  N_7 
REMARK       I    between atoms: N_7  and  C_8 
REMARK    2  A    between atoms: C_8  and  C_9 
REMARK    3  A    between atoms: C_9  and  S_10 
REMARK    4  A    between atoms: S_10  and  C_11 
REMARK    5  A    between atoms: N_12  and  C_13 
REMARK    6  A    between atoms: C_13  and  C_14 
REMARK    7  A    between atoms: C_25  and  C_26 
REMARK       I    between atoms: C_26  and  N_27 
REMARK    8  A    between atoms: C_30  and  C_31 
REMARK       I    between atoms: C_31  and  N_32 
ROOT
HETATM    1  C   UNL     1      42.634 -11.627   5.097  1.00  0.00     0.172 C 
HETATM    2  N   UNL     1      41.952 -10.587   5.697  1.00  0.00    -0.286 N 
HETATM    3  C   UNL     1      41.406  -9.570   4.920  1.00  0.00     0.262 C 
HETATM    4  O   UNL     1      40.898  -8.548   5.375  1.00  0.00    -0.267 OA
HETATM    5  C   UNL     1      41.442  -9.764   3.462  1.00  0.00     0.061 A 
HETATM    6  C   UNL     1      42.099 -10.894   2.974  1.00  0.00     0.076 A 
HETATM    7  C   UNL     1      40.796  -8.865   2.603  1.00  0.00     0.020 A 
HETATM    8  C   UNL     1      40.780  -9.117   1.233  1.00  0.00     0.018 A 
HETATM    9  C   UNL     1      41.395 -10.272   0.743  1.00  0.00     0.034 A 
HETATM   10  C   UNL     1      42.078 -11.144   1.601  1.00  0.00     0.050 A 
HETATM   11  N   UNL     1      42.760 -11.794   3.820  1.00  0.00    -0.224 NA
ENDROOT
BRANCH   1  12
HETATM   12  S   UNL     1      43.464 -12.807   6.084  1.00  0.00    -0.082 SA
BRANCH  12  13
HETATM   13  C   UNL     1      42.033 -13.839   6.507  1.00  0.00     0.185 C 
BRANCH  13  14
HETATM   14  C   UNL     1      41.929 -15.123   5.699  1.00  0.00     0.231 C 
HETATM   15  N   UNL     1      43.123 -15.617   5.209  1.00  0.00    -0.326 N 
HETATM   16  H   UNL     1      43.942 -15.023   5.332  1.00  0.00     0.169 HD
HETATM   17  O   UNL     1      40.832 -15.672   5.596  1.00  0.00    -0.272 OA
BRANCH  15  18
HETATM   18  C   UNL     1      43.323 -16.813   4.486  1.00  0.00     0.036 A 
HETATM   19  C   UNL     1      43.766 -18.008   5.055  1.00  0.00     0.053 A 
HETATM   20  C   UNL     1      43.940 -19.153   4.267  1.00  0.00     0.042 A 
HETATM   21  C   UNL     1      43.655 -19.132   2.894  1.00  0.00    -0.040 A 
HETATM   22 CL   UNL     1      44.527 -20.584   5.044  1.00  0.00    -0.084 Cl
HETATM   23  C   UNL     1      43.845 -20.335   2.015  1.00  0.00     0.050 C 
HETATM   24  C   UNL     1      43.230 -17.924   2.324  1.00  0.00     0.011 A 
HETATM   25  C   UNL     1      43.068 -16.779   3.112  1.00  0.00     0.030 A 
ENDBRANCH  15  18
ENDBRANCH  13  14
ENDBRANCH  12  13
ENDBRANCH   1  12
BRANCH   2  26
HETATM   26  C   UNL     1      41.706 -10.476   7.137  1.00  0.00     0.199 C 
BRANCH  26  27
HETATM   27  C   UNL     1      42.746  -9.595   7.738  1.00  0.00     0.070 A 
HETATM   28  O   UNL     1      42.325  -8.414   8.274  1.00  0.00    -0.325 OA
HETATM   29  C   UNL     1      43.429  -7.772   8.733  1.00  0.00     0.142 A 
HETATM   30  C   UNL     1      44.557  -8.523   8.501  1.00  0.00     0.027 A 
HETATM   31  C   UNL     1      44.117  -9.705   7.858  1.00  0.00     0.036 A 
ENDBRANCH  26  27
ENDBRANCH   2  26
BRANCH   9  32
HETATM   32  C   UNL     1      41.350 -10.538  -0.709  1.00  0.00     0.253 C 
HETATM   33  N   UNL     1      40.735 -11.710  -1.159  1.00  0.00    -0.348 N 
HETATM   34  C   UNL     1      40.666 -11.900  -2.607  1.00  0.00     0.127 C 
HETATM   35  C   UNL     1      39.713 -12.423  -0.393  1.00  0.00     0.127 C 
HETATM   36  C   UNL     1      40.659 -13.380  -2.983  1.00  0.00     0.034 C 
HETATM   37  C   UNL     1      39.618 -14.193  -2.205  1.00  0.00     0.081 C 
HETATM   38  C   UNL     1      39.732 -13.917  -0.701  1.00  0.00     0.034 C 
HETATM   39  O   UNL     1      41.873  -9.704  -1.443  1.00  0.00    -0.267 OA
BRANCH  37  40
HETATM   40  C   UNL     1      38.203 -13.946  -2.713  1.00  0.00     0.219 C 
HETATM   41  N   UNL     1      37.937 -14.454  -3.952  1.00  0.00    -0.370 N 
HETATM   42  H   UNL     1      38.671 -14.725  -4.591  1.00  0.00     0.159 HD
HETATM   43  H   UNL     1      37.031 -14.228  -4.345  1.00  0.00     0.159 HD
HETATM   44  O   UNL     1      37.335 -13.348  -2.091  1.00  0.00    -0.273 OA
ENDBRANCH  37  40
ENDBRANCH   9  32
TORSDOF 8
ENDMDL
MODEL 2
REMARK VINA RESULT:      -9.7      1.999      2.173
REMARK  8 active torsions:
REMARK  status: ('A' for Active; 'I' for Inactive)
REMARK    1  A    between atoms: C_6  and  N_7 
REMARK       I    between atoms: N_7  and  C_8 
REMARK    2  A    between atoms: C_8  and  C_9 
REMARK    3  A    between atoms: C_9  and  S_10 
REMARK    4  A    between atoms: S_10  and  C_11 
REMARK    5  A    between atoms: N_12  and  C_13 
REMARK    6  A    between atoms: C_13  and  C_14 
REMARK    7  A    between atoms: C_25  and  C_26 
REMARK       I    between atoms: C_26  and  N_27 
REMARK    8  A    between atoms: C_30  and  C_31 
REMARK       I    between atoms: C_31  and  N_32 
ROOT
HETATM    1  C   UNL     1      40.282 -11.487   5.170  1.00  0.00     0.172 C 
HETATM    2  N   UNL     1      39.242 -10.751   5.700  1.00  0.00    -0.286 N 
HETATM    3  C   UNL     1      38.504  -9.898   4.885  1.00  0.00     0.262 C 
HETATM    4  O   UNL     1      37.650  -9.115   5.296  1.00  0.00    -0.267 OA
HETATM    5  C   UNL     1      38.775  -9.969   3.441  1.00  0.00     0.061 A 
HETATM    6  C   UNL     1      39.806 -10.806   3.015  1.00  0.00     0.076 A 
HETATM    7  C   UNL     1      37.989  -9.253   2.528  1.00  0.00     0.020 A 
HETATM    8  C   UNL     1      38.218  -9.401   1.162  1.00  0.00     0.018 A 
HETATM    9  C   UNL     1      39.219 -10.275   0.727  1.00  0.00     0.034 A 
HETATM   10  C   UNL     1      40.031 -10.953   1.645  1.00  0.00     0.050 A 
HETATM   11  N   UNL     1      40.608 -11.517   3.917  1.00  0.00    -0.224 NA
ENDROOT
BRANCH   1  12
HETATM   12  S   UNL     1      41.314 -12.422   6.226  1.00  0.00    -0.082 SA
BRANCH  12  13
HETATM   13  C   UNL     1      42.462 -13.051   4.970  1.00  0.00     0.185 C 
BRANCH  13  14
HETATM   14  C   UNL     1      42.247 -14.511   4.602  1.00  0.00     0.231 C 
HETATM   15  N   UNL     1      43.315 -15.132   3.984  1.00  0.00    -0.326 N 
HETATM   16  H   UNL     1      44.100 -14.535   3.727  1.00  0.00     0.169 HD
HETATM   17  O   UNL     1      41.196 -15.057   4.933  1.00  0.00    -0.272 OA
BRANCH  15  18
HETATM   18  C   UNL     1      43.409 -16.486   3.593  1.00  0.00     0.036 A 
HETATM   19  C   UNL     1      43.833 -17.517   4.434  1.00  0.00     0.053 A 
HETATM   20  C   UNL     1      43.899 -18.836   3.969  1.00  0.00     0.042 A 
HETATM   21  C   UNL     1      43.523 -19.157   2.657  1.00  0.00    -0.040 A 
HETATM   22 CL   UNL     1      44.469 -20.048   5.064  1.00  0.00    -0.084 Cl
HETATM   23  C   UNL     1      43.596 -20.557   2.117  1.00  0.00     0.050 C 
HETATM   24  C   UNL     1      43.117 -18.115   1.810  1.00  0.00     0.011 A 
HETATM   25  C   UNL     1      43.063 -16.796   2.275  1.00  0.00     0.030 A 
ENDBRANCH  15  18
ENDBRANCH  13  14
ENDBRANCH  12  13
ENDBRANCH   1  12
BRANCH   2  26
HETATM   26  C   UNL     1      38.801 -10.821   7.096  1.00  0.00     0.199 C 
BRANCH  26  27
HETATM   27  C   UNL     1      39.413  -9.694   7.853  1.00  0.00     0.070 A 
HETATM   28  O   UNL     1      38.828  -9.352   9.037  1.00  0.00    -0.325 OA
HETATM   29  C   UNL     1      39.526  -8.298   9.533  1.00  0.00     0.142 A 
HETATM   30  C   UNL     1      40.554  -7.957   8.686  1.00  0.00     0.027 A 
HETATM   31  C   UNL     1      40.484  -8.860   7.598  1.00  0.00     0.036 A 
ENDBRANCH  26  27
ENDBRANCH   2  26
BRANCH   9  32
HETATM   32  C   UNL     1      39.435 -10.439  -0.724  1.00  0.00     0.253 C 
HETATM   33  N   UNL     1      39.610 -11.728  -1.236  1.00  0.00    -0.348 N 
HETATM   34  C   UNL     1      39.764 -11.843  -2.685  1.00  0.00     0.127 C 
HETATM   35  C   UNL     1      39.103 -12.929  -0.571  1.00  0.00     0.127 C 
HETATM   36  C   UNL     1      40.608 -13.057  -3.069  1.00  0.00     0.034 C 
HETATM   37  C   UNL     1      40.141 -14.352  -2.395  1.00  0.00     0.081 C 
HETATM   38  C   UNL     1      39.972 -14.143  -0.885  1.00  0.00     0.034 C 
HETATM   39  O   UNL     1      39.459  -9.416  -1.401  1.00  0.00    -0.267 OA
BRANCH  37  40
HETATM   40  C   UNL     1      38.869 -14.901  -3.029  1.00  0.00     0.219 C 
HETATM   41  N   UNL     1      38.377 -16.035  -2.450  1.00  0.00    -0.370 N 
HETATM   42  H   UNL     1      38.937 -16.614  -1.841  1.00  0.00     0.159 HD
HETATM   43  H   UNL     1      37.582 -16.464  -2.908  1.00  0.00     0.159 HD
HETATM   44  O   UNL     1      38.294 -14.396  -3.985  1.00  0.00    -0.273 OA
ENDBRANCH  37  40
ENDBRANCH   9  32
TORSDOF 8
ENDMDL
MODEL 3
REMARK VINA RESULT:      -9.6      2.682      7.728
REMARK  8 active torsions:
REMARK  status: ('A' for Active; 'I' for Inactive)
REMARK    1  A    between atoms: C_6  and  N_7 
REMARK       I    between atoms: N_7  and  C_8 
REMARK    2  A    between atoms: C_8  and  C_9 
REMARK    3  A    between atoms: C_9  and  S_10 
REMARK    4  A    between atoms: S_10  and  C_11 
REMARK    5  A    between atoms: N_12  and  C_13 
REMARK    6  A    between atoms: C_13  and  C_14 
REMARK    7  A    between atoms: C_25  and  C_26 
REMARK       I    between atoms: C_26  and  N_27 
REMARK    8  A    between atoms: C_30  and  C_31 
REMARK       I    between atoms: C_31  and  N_32 
ROOT
HETATM    1  C   UNL     1      39.404 -12.491   2.612  1.00  0.00     0.172 C 
HETATM    2  N   UNL     1      38.680 -11.540   1.923  1.00  0.00    -0.286 N 
HETATM    3  C   UNL     1      38.289 -10.365   2.557  1.00  0.00     0.262 C 
HETATM    4  O   UNL     1      37.538  -9.527   2.062  1.00  0.00    -0.267 OA
HETATM    5  C   UNL     1      38.837 -10.130   3.903  1.00  0.00     0.061 A 
HETATM    6  C   UNL     1      39.618 -11.136   4.470  1.00  0.00     0.076 A 
HETATM    7  C   UNL     1      38.614  -8.915   4.565  1.00  0.00     0.020 A 
HETATM    8  C   UNL     1      39.211  -8.690   5.804  1.00  0.00     0.018 A 
HETATM    9  C   UNL     1      40.033  -9.676   6.355  1.00  0.00     0.034 A 
HETATM   10  C   UNL     1      40.215 -10.906   5.710  1.00  0.00     0.050 A 
HETATM   11  N   UNL     1      39.837 -12.361   3.825  1.00  0.00    -0.224 NA
ENDROOT
BRANCH   1  12
HETATM   12  S   UNL     1      39.743 -14.036   1.868  1.00  0.00    -0.082 SA
BRANCH  12  13
HETATM   13  C   UNL     1      41.478 -13.735   1.433  1.00  0.00     0.185 C 
BRANCH  13  14
HETATM   14  C   UNL     1      42.454 -14.737   2.029  1.00  0.00     0.231 C 
HETATM   15  N   UNL     1      41.903 -15.939   2.430  1.00  0.00    -0.326 N 
HETATM   16  H   UNL     1      40.887 -16.003   2.399  1.00  0.00     0.169 HD
HETATM   17  O   UNL     1      43.653 -14.458   2.049  1.00  0.00    -0.272 OA
BRANCH  15  18
HETATM   18  C   UNL     1      42.582 -17.060   2.956  1.00  0.00     0.036 A 
HETATM   19  C   UNL     1      42.888 -18.207   2.220  1.00  0.00     0.053 A 
HETATM   20  C   UNL     1      43.565 -19.278   2.817  1.00  0.00     0.042 A 
HETATM   21  C   UNL     1      43.969 -19.217   4.158  1.00  0.00    -0.040 A 
HETATM   22 CL   UNL     1      43.874 -20.676   1.845  1.00  0.00    -0.084 Cl
HETATM   23  C   UNL     1      44.681 -20.352   4.837  1.00  0.00     0.050 C 
HETATM   24  C   UNL     1      43.641 -18.072   4.898  1.00  0.00     0.011 A 
HETATM   25  C   UNL     1      42.955 -17.008   4.302  1.00  0.00     0.030 A 
ENDBRANCH  15  18
ENDBRANCH  13  14
ENDBRANCH  12  13
ENDBRANCH   1  12
BRANCH   2  26
HETATM   26  C   UNL     1      38.305 -11.644   0.510  1.00  0.00     0.199 C 
BRANCH  26  27
HETATM   27  C   UNL     1      39.471 -11.252  -0.330  1.00  0.00     0.070 A 
HETATM   28  O   UNL     1      39.828 -12.105  -1.332  1.00  0.00    -0.325 OA
HETATM   29  C   UNL     1      40.917 -11.567  -1.940  1.00  0.00     0.142 A 
HETATM   30  C   UNL     1      41.265 -10.379  -1.344  1.00  0.00     0.027 A 
HETATM   31  C   UNL     1      40.330 -10.172  -0.302  1.00  0.00     0.036 A 
ENDBRANCH  26  27
ENDBRANCH   2  26
BRANCH   9  32
HETATM   32  C   UNL     1      40.677  -9.415   7.658  1.00  0.00     0.253 C 
HETATM   33  N   UNL     1      42.037  -9.699   7.805  1.00  0.00    -0.348 N 
HETATM   34  C   UNL     1      42.641  -9.370   9.095  1.00  0.00     0.127 C 
HETATM   35  C   UNL     1      42.972  -9.746   6.680  1.00  0.00     0.127 C 
HETATM   36  C   UNL     1      43.816 -10.290   9.421  1.00  0.00     0.034 C 
HETATM   37  C   UNL     1      44.830 -10.397   8.276  1.00  0.00     0.081 C 
HETATM   38  C   UNL     1      44.120 -10.712   6.954  1.00  0.00     0.034 C 
HETATM   39  O   UNL     1      39.963  -8.966   8.550  1.00  0.00    -0.267 OA
BRANCH  37  40
HETATM   40  C   UNL     1      45.698  -9.150   8.162  1.00  0.00     0.219 C 
HETATM   41  N   UNL     1      46.949  -9.361   7.656  1.00  0.00    -0.370 N 
HETATM   42  H   UNL     1      47.365 -10.281   7.616  1.00  0.00     0.159 HD
HETATM   43  H   UNL     1      47.572  -8.562   7.651  1.00  0.00     0.159 HD
HETATM   44  O   UNL     1      45.344  -8.024   8.483  1.00  0.00    -0.273 OA
ENDBRANCH  37  40
ENDBRANCH   9  32
TORSDOF 8
ENDMDL
MODEL 4
REMARK VINA RESULT:      -9.6      1.960      2.341
REMARK  8 active torsions:
REMARK  status: ('A' for Active; 'I' for Inactive)
REMARK    1  A    between atoms: C_6  and  N_7 
REMARK       I    between atoms: N_7  and  C_8 
REMARK    2  A    between atoms: C_8  and  C_9 
REMARK    3  A    between atoms: C_9  and  S_10 
REMARK    4  A    between atoms: S_10  and  C_11 
REMARK    5  A    between atoms: N_12  and  C_13 
REMARK    6  A    between atoms: C_13  and  C_14 
REMARK    7  A    between atoms: C_25  and  C_26 
REMARK       I    between atoms: C_26  and  N_27 
REMARK    8  A    between atoms: C_30  and  C_31 
REMARK       I    between atoms: C_31  and  N_32 
ROOT
HETATM    1  C   UNL     1      42.771 -13.331   5.829  1.00  0.00     0.172 C 
HETATM    2  N   UNL     1      43.832 -12.489   5.564  1.00  0.00    -0.286 N 
HETATM    3  C   UNL     1      43.889 -11.795   4.359  1.00  0.00     0.262 C 
HETATM    4  O   UNL     1      44.853 -11.129   3.989  1.00  0.00    -0.267 OA
HETATM    5  C   UNL     1      42.698 -11.871   3.499  1.00  0.00     0.061 A 
HETATM    6  C   UNL     1      41.655 -12.701   3.907  1.00  0.00     0.076 A 
HETATM    7  C   UNL     1      42.605 -11.097   2.335  1.00  0.00     0.020 A 
HETATM    8  C   UNL     1      41.433 -11.130   1.581  1.00  0.00     0.018 A 
HETATM    9  C   UNL     1      40.366 -11.924   2.011  1.00  0.00     0.034 A 
HETATM   10  C   UNL     1      40.482 -12.730   3.151  1.00  0.00     0.050 A 
HETATM   11  N   UNL     1      41.740 -13.491   5.062  1.00  0.00    -0.224 NA
ENDROOT
BRANCH   1  12
HETATM   12  S   UNL     1      42.789 -14.330   7.263  1.00  0.00    -0.082 SA
BRANCH  12  13
HETATM   13  C   UNL     1      41.234 -15.220   6.973  1.00  0.00     0.185 C 
BRANCH  13  14
HETATM   14  C   UNL     1      41.313 -16.278   5.884  1.00  0.00     0.231 C 
HETATM   15  N   UNL     1      42.589 -16.673   5.530  1.00  0.00    -0.326 N 
HETATM   16  H   UNL     1      43.356 -16.144   5.941  1.00  0.00     0.169 HD
HETATM   17  O   UNL     1      40.268 -16.761   5.449  1.00  0.00    -0.272 OA
BRANCH  15  18
HETATM   18  C   UNL     1      42.949 -17.672   4.599  1.00  0.00     0.036 A 
HETATM   19  C   UNL     1      43.504 -18.904   4.948  1.00  0.00     0.053 A 
HETATM   20  C   UNL     1      43.835 -19.844   3.963  1.00  0.00     0.042 A 
HETATM   21  C   UNL     1      43.598 -19.578   2.607  1.00  0.00    -0.040 A 
HETATM   22 CL   UNL     1      44.552 -21.331   4.478  1.00  0.00    -0.084 Cl
HETATM   23  C   UNL     1      43.954 -20.553   1.521  1.00  0.00     0.050 C 
HETATM   24  C   UNL     1      43.059 -18.331   2.260  1.00  0.00     0.011 A 
HETATM   25  C   UNL     1      42.740 -17.390   3.246  1.00  0.00     0.030 A 
ENDBRANCH  15  18
ENDBRANCH  13  14
ENDBRANCH  12  13
ENDBRANCH   1  12
BRANCH   2  26
HETATM   26  C   UNL     1      44.930 -12.219   6.496  1.00  0.00     0.199 C 
BRANCH  26  27
HETATM   27  C   UNL     1      44.494 -11.177   7.468  1.00  0.00     0.070 A 
HETATM   28  O   UNL     1      45.191 -11.089   8.637  1.00  0.00    -0.325 OA
HETATM   29  C   UNL     1      44.609 -10.105   9.371  1.00  0.00     0.142 A 
HETATM   30  C   UNL     1      43.548  -9.558   8.690  1.00  0.00     0.027 A 
HETATM   31  C   UNL     1      43.472 -10.249   7.457  1.00  0.00     0.036 A 
ENDBRANCH  26  27
ENDBRANCH   2  26
BRANCH   9  32
HETATM   32  C   UNL     1      39.123 -11.931   1.216  1.00  0.00     0.253 C 
HETATM   33  N   UNL     1      39.172 -12.391  -0.104  1.00  0.00    -0.348 N 
HETATM   34  C   UNL     1      37.904 -12.433  -0.831  1.00  0.00     0.127 C 
HETATM   35  C   UNL     1      40.194 -13.318  -0.591  1.00  0.00     0.127 C 
HETATM   36  C   UNL     1      38.109 -12.251  -2.334  1.00  0.00     0.034 C 
HETATM   37  C   UNL     1      39.181 -13.183  -2.911  1.00  0.00     0.081 C 
HETATM   38  C   UNL     1      40.466 -13.109  -2.077  1.00  0.00     0.034 C 
HETATM   39  O   UNL     1      38.108 -11.515   1.767  1.00  0.00    -0.267 OA
BRANCH  37  40
HETATM   40  C   UNL     1      38.682 -14.617  -3.043  1.00  0.00     0.219 C 
HETATM   41  N   UNL     1      38.015 -14.893  -4.201  1.00  0.00    -0.370 N 
HETATM   42  H   UNL     1      37.643 -14.164  -4.794  1.00  0.00     0.159 HD
HETATM   43  H   UNL     1      37.601 -15.815  -4.273  1.00  0.00     0.159 HD
HETATM   44  O   UNL     1      38.846 -15.491  -2.201  1.00  0.00    -0.273 OA
ENDBRANCH  37  40
ENDBRANCH   9  32
TORSDOF 8
ENDMDL
MODEL 5
REMARK VINA RESULT:      -9.5      4.263      9.292
REMARK  8 active torsions:
REMARK  status: ('A' for Active; 'I' for Inactive)
REMARK    1  A    between atoms: C_6  and  N_7 
REMARK       I    between atoms: N_7  and  C_8 
REMARK    2  A    between atoms: C_8  and  C_9 
REMARK    3  A    between atoms: C_9  and  S_10 
REMARK    4  A    between atoms: S_10  and  C_11 
REMARK    5  A    between atoms: N_12  and  C_13 
REMARK    6  A    between atoms: C_13  and  C_14 
REMARK    7  A    between atoms: C_25  and  C_26 
REMARK       I    between atoms: C_26  and  N_27 
REMARK    8  A    between atoms: C_30  and  C_31 
REMARK       I    between atoms: C_31  and  N_32 
ROOT
HETATM    1  C   UNL     1      42.292 -11.627   6.108  1.00  0.00     0.172 C 
HETATM    2  N   UNL     1      40.971 -11.838   5.768  1.00  0.00    -0.286 N 
HETATM    3  C   UNL     1      39.959 -11.172   6.452  1.00  0.00     0.262 C 
HETATM    4  O   UNL     1      38.760 -11.395   6.303  1.00  0.00    -0.267 OA
HETATM    5  C   UNL     1      40.381 -10.129   7.400  1.00  0.00     0.061 A 
HETATM    6  C   UNL     1      41.749  -9.958   7.609  1.00  0.00     0.076 A 
HETATM    7  C   UNL     1      39.436  -9.310   8.032  1.00  0.00     0.020 A 
HETATM    8  C   UNL     1      39.869  -8.279   8.864  1.00  0.00     0.018 A 
HETATM    9  C   UNL     1      41.240  -8.072   9.039  1.00  0.00     0.034 A 
HETATM   10  C   UNL     1      42.179  -8.922   8.440  1.00  0.00     0.050 A 
HETATM   11  N   UNL     1      42.705 -10.778   6.994  1.00  0.00    -0.224 NA
ENDROOT
BRANCH   1  12
HETATM   12  S   UNL     1      43.547 -12.592   5.367  1.00  0.00    -0.082 SA
BRANCH  12  13
HETATM   13  C   UNL     1      43.805 -13.764   6.728  1.00  0.00     0.185 C 
BRANCH  13  14
HETATM   14  C   UNL     1      43.776 -15.225   6.307  1.00  0.00     0.231 C 
HETATM   15  N   UNL     1      43.662 -15.452   4.949  1.00  0.00    -0.326 N 
HETATM   16  H   UNL     1      43.494 -14.633   4.367  1.00  0.00     0.169 HD
HETATM   17  O   UNL     1      43.926 -16.093   7.167  1.00  0.00    -0.272 OA
BRANCH  15  18
HETATM   18  C   UNL     1      43.671 -16.698   4.285  1.00  0.00     0.036 A 
HETATM   19  C   UNL     1      44.024 -17.906   4.890  1.00  0.00     0.053 A 
HETATM   20  C   UNL     1      44.007 -19.101   4.161  1.00  0.00     0.042 A 
HETATM   21  C   UNL     1      43.617 -19.118   2.814  1.00  0.00    -0.040 A 
HETATM   22 CL   UNL     1      44.493 -20.548   4.975  1.00  0.00    -0.084 Cl
HETATM   23  C   UNL     1      43.603 -20.377   1.995  1.00  0.00     0.050 C 
HETATM   24  C   UNL     1      43.284 -17.899   2.206  1.00  0.00     0.011 A 
HETATM   25  C   UNL     1      43.312 -16.705   2.934  1.00  0.00     0.030 A 
ENDBRANCH  15  18
ENDBRANCH  13  14
ENDBRANCH  12  13
ENDBRANCH   1  12
BRANCH   2  26
HETATM   26  C   UNL     1      40.523 -12.708   4.677  1.00  0.00     0.199 C 
BRANCH  26  27
HETATM   27  C   UNL     1      40.407 -14.103   5.187  1.00  0.00     0.070 A 
HETATM   28  O   UNL     1      40.477 -15.107   4.268  1.00  0.00    -0.325 OA
HETATM   29  C   UNL     1      40.323 -16.274   4.945  1.00  0.00     0.142 A 
HETATM   30  C   UNL     1      40.157 -16.036   6.288  1.00  0.00     0.027 A 
HETATM   31  C   UNL     1      40.212 -14.630   6.448  1.00  0.00     0.036 A 
ENDBRANCH  26  27
ENDBRANCH   2  26
BRANCH   9  32
HETATM   32  C   UNL     1      41.684  -6.962   9.905  1.00  0.00     0.253 C 
HETATM   33  N   UNL     1      41.368  -7.004  11.266  1.00  0.00    -0.348 N 
HETATM   34  C   UNL     1      41.879  -5.911  12.092  1.00  0.00     0.127 C 
HETATM   35  C   UNL     1      41.098  -8.248  11.988  1.00  0.00     0.127 C 
HETATM   36  C   UNL     1      40.975  -5.639  13.293  1.00  0.00     0.034 C 
HETATM   37  C   UNL     1      40.638  -6.905  14.089  1.00  0.00     0.081 C 
HETATM   38  C   UNL     1      40.141  -8.014  13.153  1.00  0.00     0.034 C 
HETATM   39  O   UNL     1      42.303  -6.050   9.365  1.00  0.00    -0.267 OA
BRANCH  37  40
HETATM   40  C   UNL     1      41.810  -7.376  14.940  1.00  0.00     0.219 C 
HETATM   41  N   UNL     1      41.489  -8.266  15.925  1.00  0.00    -0.370 N 
HETATM   42  H   UNL     1      40.539  -8.395  16.243  1.00  0.00     0.159 HD
HETATM   43  H   UNL     1      42.237  -8.526  16.556  1.00  0.00     0.159 HD
HETATM   44  O   UNL     1      42.970  -7.015  14.788  1.00  0.00    -0.273 OA
ENDBRANCH  37  40
ENDBRANCH   9  32
TORSDOF 8
ENDMDL
MODEL 6
REMARK VINA RESULT:      -9.4      5.501      9.610
REMARK  8 active torsions:
REMARK  status: ('A' for Active; 'I' for Inactive)
REMARK    1  A    between atoms: C_6  and  N_7 
REMARK       I    between atoms: N_7  and  C_8 
REMARK    2  A    between atoms: C_8  and  C_9 
REMARK    3  A    between atoms: C_9  and  S_10 
REMARK    4  A    between atoms: S_10  and  C_11 
REMARK    5  A    between atoms: N_12  and  C_13 
REMARK    6  A    between atoms: C_13  and  C_14 
REMARK    7  A    between atoms: C_25  and  C_26 
REMARK       I    between atoms: C_26  and  N_27 
REMARK    8  A    between atoms: C_30  and  C_31 
REMARK       I    between atoms: C_31  and  N_32 
ROOT
HETATM    1  C   UNL     1      41.694  -9.230   9.308  1.00  0.00     0.172 C 
HETATM    2  N   UNL     1      42.898  -9.147   9.979  1.00  0.00    -0.286 N 
HETATM    3  C   UNL     1      44.024  -9.790   9.473  1.00  0.00     0.262 C 
HETATM    4  O   UNL     1      45.097  -9.876  10.067  1.00  0.00    -0.267 OA
HETATM    5  C   UNL     1      43.897 -10.386   8.134  1.00  0.00     0.061 A 
HETATM    6  C   UNL     1      42.644 -10.345   7.523  1.00  0.00     0.076 A 
HETATM    7  C   UNL     1      45.011 -10.932   7.484  1.00  0.00     0.020 A 
HETATM    8  C   UNL     1      44.877 -11.418   6.185  1.00  0.00     0.018 A 
HETATM    9  C   UNL     1      43.635 -11.336   5.549  1.00  0.00     0.034 A 
HETATM   10  C   UNL     1      42.514 -10.830   6.220  1.00  0.00     0.050 A 
HETATM   11  N   UNL     1      41.518  -9.814   8.167  1.00  0.00    -0.224 NA
ENDROOT
BRANCH   1  12
HETATM   12  S   UNL     1      40.247  -8.569  10.033  1.00  0.00    -0.082 SA
BRANCH  12  13
HETATM   13  C   UNL     1      39.856  -9.957  11.134  1.00  0.00     0.185 C 
BRANCH  13  14
HETATM   14  C   UNL     1      39.982  -9.635  12.614  1.00  0.00     0.231 C 
HETATM   15  N   UNL     1      40.130  -8.296  12.921  1.00  0.00    -0.326 N 
HETATM   16  H   UNL     1      40.256  -7.663  12.133  1.00  0.00     0.169 HD
HETATM   17  O   UNL     1      39.873 -10.548  13.432  1.00  0.00    -0.272 OA
BRANCH  15  18
HETATM   18  C   UNL     1      40.208  -7.715  14.206  1.00  0.00     0.036 A 
HETATM   19  C   UNL     1      39.383  -6.679  14.649  1.00  0.00     0.053 A 
HETATM   20  C   UNL     1      39.524  -6.157  15.941  1.00  0.00     0.042 A 
HETATM   21  C   UNL     1      40.482  -6.673  16.826  1.00  0.00    -0.040 A 
HETATM   22 CL   UNL     1      38.487  -4.850  16.399  1.00  0.00    -0.084 Cl
HETATM   23  C   UNL     1      40.675  -6.128  18.212  1.00  0.00     0.050 C 
HETATM   24  C   UNL     1      41.321  -7.699  16.369  1.00  0.00     0.011 A 
HETATM   25  C   UNL     1      41.185  -8.212  15.074  1.00  0.00     0.030 A 
ENDBRANCH  15  18
ENDBRANCH  13  14
ENDBRANCH  12  13
ENDBRANCH   1  12
BRANCH   2  26
HETATM   26  C   UNL     1      43.114  -8.376  11.205  1.00  0.00     0.199 C 
BRANCH  26  27
HETATM   27  C   UNL     1      42.880  -6.933  10.916  1.00  0.00     0.070 A 
HETATM   28  O   UNL     1      42.244  -6.203  11.877  1.00  0.00    -0.325 OA
HETATM   29  C   UNL     1      42.116  -4.941  11.394  1.00  0.00     0.142 A 
HETATM   30  C   UNL     1      42.662  -4.846  10.137  1.00  0.00     0.027 A 
HETATM   31  C   UNL     1      43.159  -6.135   9.825  1.00  0.00     0.036 A 
ENDBRANCH  26  27
ENDBRANCH   2  26
BRANCH   9  32
HETATM   32  C   UNL     1      43.514 -11.834   4.164  1.00  0.00     0.253 C 
HETATM   33  N   UNL     1      43.137 -13.164   3.959  1.00  0.00    -0.348 N 
HETATM   34  C   UNL     1      42.975 -13.593   2.571  1.00  0.00     0.127 C 
HETATM   35  C   UNL     1      42.377 -13.941   4.939  1.00  0.00     0.127 C 
HETATM   36  C   UNL     1      43.264 -15.084   2.403  1.00  0.00     0.034 C 
HETATM   37  C   UNL     1      42.509 -15.959   3.409  1.00  0.00     0.081 C 
HETATM   38  C   UNL     1      42.701 -15.429   4.835  1.00  0.00     0.034 C 
HETATM   39  O   UNL     1      43.766 -11.038   3.264  1.00  0.00    -0.267 OA
BRANCH  37  40
HETATM   40  C   UNL     1      41.033 -16.095   3.057  1.00  0.00     0.219 C 
HETATM   41  N   UNL     1      40.195 -16.243   4.124  1.00  0.00    -0.370 N 
HETATM   42  H   UNL     1      40.531 -16.512   5.038  1.00  0.00     0.159 HD
HETATM   43  H   UNL     1      39.221 -16.420   3.910  1.00  0.00     0.159 HD
HETATM   44  O   UNL     1      40.585 -16.076   1.918  1.00  0.00    -0.273 OA
ENDBRANCH  37  40
ENDBRANCH   9  32
TORSDOF 8
ENDMDL
MODEL 7
REMARK VINA RESULT:      -9.4      4.677      8.616
REMARK  8 active torsions:
REMARK  status: ('A' for Active; 'I' for Inactive)
REMARK    1  A    between atoms: C_6  and  N_7 
REMARK       I    between atoms: N_7  and  C_8 
REMARK    2  A    between atoms: C_8  and  C_9 
REMARK    3  A    between atoms: C_9  and  S_10 
REMARK    4  A    between atoms: S_10  and  C_11 
REMARK    5  A    between atoms: N_12  and  C_13 
REMARK    6  A    between atoms: C_13  and  C_14 
REMARK    7  A    between atoms: C_25  and  C_26 
REMARK       I    between atoms: C_26  and  N_27 
REMARK    8  A    between atoms: C_30  and  C_31 
REMARK       I    between atoms: C_31  and  N_32 
ROOT
HETATM    1  C   UNL     1      42.774 -11.216   6.182  1.00  0.00     0.172 C 
HETATM    2  N   UNL     1      41.478 -10.751   6.289  1.00  0.00    -0.286 N 
HETATM    3  C   UNL     1      40.471 -11.306   5.506  1.00  0.00     0.262 C 
HETATM    4  O   UNL     1      39.324 -10.870   5.443  1.00  0.00    -0.267 OA
HETATM    5  C   UNL     1      40.827 -12.500   4.723  1.00  0.00     0.061 A 
HETATM    6  C   UNL     1      42.157 -12.920   4.750  1.00  0.00     0.076 A 
HETATM    7  C   UNL     1      39.849 -13.210   4.014  1.00  0.00     0.020 A 
HETATM    8  C   UNL     1      40.202 -14.381   3.346  1.00  0.00     0.018 A 
HETATM    9  C   UNL     1      41.522 -14.833   3.410  1.00  0.00     0.034 A 
HETATM   10  C   UNL     1      42.505 -14.095   4.082  1.00  0.00     0.050 A 
HETATM   11  N   UNL     1      43.147 -12.211   5.444  1.00  0.00    -0.224 NA
ENDROOT
BRANCH   1  12
HETATM   12  S   UNL     1      44.064 -10.403   7.037  1.00  0.00    -0.082 SA
BRANCH  12  13
HETATM   13  C   UNL     1      43.991 -11.359   8.577  1.00  0.00     0.185 C 
BRANCH  13  14
HETATM   14  C   UNL     1      44.099 -10.518   9.840  1.00  0.00     0.231 C 
HETATM   15  N   UNL     1      42.909  -9.997  10.311  1.00  0.00    -0.326 N 
HETATM   16  H   UNL     1      42.092 -10.124   9.716  1.00  0.00     0.169 HD
HETATM   17  O   UNL     1      45.194 -10.415  10.392  1.00  0.00    -0.272 OA
BRANCH  15  18
HETATM   18  C   UNL     1      42.712  -9.238  11.486  1.00  0.00     0.036 A 
HETATM   19  C   UNL     1      42.666  -7.842  11.518  1.00  0.00     0.053 A 
HETATM   20  C   UNL     1      42.466  -7.162  12.726  1.00  0.00     0.042 A 
HETATM   21  C   UNL     1      42.289  -7.865  13.927  1.00  0.00    -0.040 A 
HETATM   22 CL   UNL     1      42.457  -5.433  12.684  1.00  0.00    -0.084 Cl
HETATM   23  C   UNL     1      42.090  -7.170  15.244  1.00  0.00     0.050 C 
HETATM   24  C   UNL     1      42.357  -9.264  13.892  1.00  0.00     0.011 A 
HETATM   25  C   UNL     1      42.567  -9.941  12.685  1.00  0.00     0.030 A 
ENDBRANCH  15  18
ENDBRANCH  13  14
ENDBRANCH  12  13
ENDBRANCH   1  12
BRANCH   2  26
HETATM   26  C   UNL     1      41.044  -9.708   7.222  1.00  0.00     0.199 C 
BRANCH  26  27
HETATM   27  C   UNL     1      41.321  -8.374   6.618  1.00  0.00     0.070 A 
HETATM   28  O   UNL     1      41.721  -7.382   7.464  1.00  0.00    -0.325 OA
HETATM   29  C   UNL     1      41.887  -6.264   6.711  1.00  0.00     0.142 A 
HETATM   30  C   UNL     1      41.602  -6.523   5.392  1.00  0.00     0.027 A 
HETATM   31  C   UNL     1      41.236  -7.889   5.329  1.00  0.00     0.036 A 
ENDBRANCH  26  27
ENDBRANCH   2  26
BRANCH   9  32
HETATM   32  C   UNL     1      41.876 -16.088   2.716  1.00  0.00     0.253 C 
HETATM   33  N   UNL     1      42.747 -16.981   3.347  1.00  0.00    -0.348 N 
HETATM   34  C   UNL     1      43.021 -18.234   2.645  1.00  0.00     0.127 C 
HETATM   35  C   UNL     1      42.929 -17.033   4.797  1.00  0.00     0.127 C 
HETATM   36  C   UNL     1      44.406 -18.781   2.985  1.00  0.00     0.034 C 
HETATM   37  C   UNL     1      44.672 -18.849   4.493  1.00  0.00     0.081 C 
HETATM   38  C   UNL     1      44.331 -17.512   5.162  1.00  0.00     0.034 C 
HETATM   39  O   UNL     1      41.384 -16.266   1.606  1.00  0.00    -0.267 OA
BRANCH  37  40
HETATM   40  C   UNL     1      43.934 -20.008   5.153  1.00  0.00     0.219 C 
HETATM   41  N   UNL     1      43.913 -21.165   4.430  1.00  0.00    -0.370 N 
HETATM   42  H   UNL     1      44.121 -21.186   3.441  1.00  0.00     0.159 HD
HETATM   43  H   UNL     1      43.356 -21.922   4.809  1.00  0.00     0.159 HD
HETATM   44  O   UNL     1      43.390 -19.953   6.248  1.00  0.00    -0.273 OA
ENDBRANCH  37  40
ENDBRANCH   9  32
TORSDOF 8
ENDMDL
MODEL 8
REMARK VINA RESULT:      -9.3      3.042      8.675
REMARK  8 active torsions:
REMARK  status: ('A' for Active; 'I' for Inactive)
REMARK    1  A    between atoms: C_6  and  N_7 
REMARK       I    between atoms: N_7  and  C_8 
REMARK    2  A    between atoms: C_8  and  C_9 
REMARK    3  A    between atoms: C_9  and  S_10 
REMARK    4  A    between atoms: S_10  and  C_11 
REMARK    5  A    between atoms: N_12  and  C_13 
REMARK    6  A    between atoms: C_13  and  C_14 
REMARK    7  A    between atoms: C_25  and  C_26 
REMARK       I    between atoms: C_26  and  N_27 
REMARK    8  A    between atoms: C_30  and  C_31 
REMARK       I    between atoms: C_31  and  N_32 
ROOT
HETATM    1  C   UNL     1      42.784 -10.912   5.215  1.00  0.00     0.172 C 
HETATM    2  N   UNL     1      42.116 -10.255   4.202  1.00  0.00    -0.286 N 
HETATM    3  C   UNL     1      41.427  -9.076   4.470  1.00  0.00     0.262 C 
HETATM    4  O   UNL     1      40.704  -8.498   3.662  1.00  0.00    -0.267 OA
HETATM    5  C   UNL     1      41.606  -8.499   5.812  1.00  0.00     0.061 A 
HETATM    6  C   UNL     1      42.366  -9.222   6.732  1.00  0.00     0.076 A 
HETATM    7  C   UNL     1      41.068  -7.246   6.131  1.00  0.00     0.020 A 
HETATM    8  C   UNL     1      41.320  -6.690   7.383  1.00  0.00     0.018 A 
HETATM    9  C   UNL     1      42.120  -7.387   8.292  1.00  0.00     0.034 A 
HETATM   10  C   UNL     1      42.618  -8.660   7.984  1.00  0.00     0.050 A 
HETATM   11  N   UNL     1      42.899 -10.482   6.431  1.00  0.00    -0.224 NA
ENDROOT
BRANCH   1  12
HETATM   12  S   UNL     1      43.500 -12.478   4.914  1.00  0.00    -0.082 SA
BRANCH  12  13
HETATM   13  C   UNL     1      42.234 -13.497   5.721  1.00  0.00     0.185 C 
BRANCH  13  14
HETATM   14  C   UNL     1      42.072 -14.885   5.121  1.00  0.00     0.231 C 
HETATM   15  N   UNL     1      43.217 -15.434   4.576  1.00  0.00    -0.326 N 
HETATM   16  H   UNL     1      44.030 -14.823   4.521  1.00  0.00     0.169 HD
HETATM   17  O   UNL     1      40.984 -15.451   5.219  1.00  0.00    -0.272 OA
BRANCH  15  18
HETATM   18  C   UNL     1      43.365 -16.720   4.011  1.00  0.00     0.036 A 
HETATM   19  C   UNL     1      43.808 -17.840   4.718  1.00  0.00     0.053 A 
HETATM   20  C   UNL     1      43.928 -19.083   4.084  1.00  0.00     0.042 A 
HETATM   21  C   UNL     1      43.588 -19.238   2.732  1.00  0.00    -0.040 A 
HETATM   22 CL   UNL     1      44.519 -20.412   5.022  1.00  0.00    -0.084 Cl
HETATM   23  C   UNL     1      43.720 -20.550   2.014  1.00  0.00     0.050 C 
HETATM   24  C   UNL     1      43.163 -18.106   2.022  1.00  0.00     0.011 A 
HETATM   25  C   UNL     1      43.055 -16.863   2.656  1.00  0.00     0.030 A 
ENDBRANCH  15  18
ENDBRANCH  13  14
ENDBRANCH  12  13
ENDBRANCH   1  12
BRANCH   2  26
HETATM   26  C   UNL     1      42.100 -10.686   2.802  1.00  0.00     0.199 C 
BRANCH  26  27
HETATM   27  C   UNL     1      41.161 -11.834   2.660  1.00  0.00     0.070 A 
HETATM   28  O   UNL     1      41.581 -12.889   1.905  1.00  0.00    -0.325 OA
HETATM   29  C   UNL     1      40.568 -13.794   1.892  1.00  0.00     0.142 A 
HETATM   30  C   UNL     1      39.503 -13.338   2.631  1.00  0.00     0.027 A 
HETATM   31  C   UNL     1      39.884 -12.070   3.130  1.00  0.00     0.036 A 
ENDBRANCH  26  27
ENDBRANCH   2  26
BRANCH   9  32
HETATM   32  C   UNL     1      42.398  -6.775   9.607  1.00  0.00     0.253 C 
HETATM   33  N   UNL     1      41.602  -7.136  10.698  1.00  0.00    -0.348 N 
HETATM   34  C   UNL     1      41.953  -6.547  11.989  1.00  0.00     0.127 C 
HETATM   35  C   UNL     1      40.876  -8.404  10.774  1.00  0.00     0.127 C 
HETATM   36  C   UNL     1      40.731  -6.403  12.895  1.00  0.00     0.034 C 
HETATM   37  C   UNL     1      39.913  -7.694  13.010  1.00  0.00     0.081 C 
HETATM   38  C   UNL     1      39.613  -8.268  11.620  1.00  0.00     0.034 C 
HETATM   39  O   UNL     1      43.319  -5.965   9.659  1.00  0.00    -0.267 OA
BRANCH  37  40
HETATM   40  C   UNL     1      40.591  -8.724  13.905  1.00  0.00     0.219 C 
HETATM   41  N   UNL     1      40.315 -10.026  13.601  1.00  0.00    -0.370 N 
HETATM   42  H   UNL     1      39.529 -10.287  13.022  1.00  0.00     0.159 HD
HETATM   43  H   UNL     1      40.686 -10.724  14.235  1.00  0.00     0.159 HD
HETATM   44  O   UNL     1      41.338  -8.452  14.837  1.00  0.00    -0.273 OA
ENDBRANCH  37  40
ENDBRANCH   9  32
TORSDOF 8
ENDMDL
MODEL 9
REMARK VINA RESULT:      -9.2      3.321      9.104
REMARK  8 active torsions:
REMARK  status: ('A' for Active; 'I' for Inactive)
REMARK    1  A    between atoms: C_6  and  N_7 
REMARK       I    between atoms: N_7  and  C_8 
REMARK    2  A    between atoms: C_8  and  C_9 
REMARK    3  A    between atoms: C_9  and  S_10 
REMARK    4  A    between atoms: S_10  and  C_11 
REMARK    5  A    between atoms: N_12  and  C_13 
REMARK    6  A    between atoms: C_13  and  C_14 
REMARK    7  A    between atoms: C_25  and  C_26 
REMARK       I    between atoms: C_26  and  N_27 
REMARK    8  A    between atoms: C_30  and  C_31 
REMARK       I    between atoms: C_31  and  N_32 
ROOT
HETATM    1  C   UNL     1      42.247 -11.538   6.124  1.00  0.00     0.172 C 
HETATM    2  N   UNL     1      40.995 -11.509   5.544  1.00  0.00    -0.286 N 
HETATM    3  C   UNL     1      40.018 -10.649   6.036  1.00  0.00     0.262 C 
HETATM    4  O   UNL     1      38.846 -10.650   5.666  1.00  0.00    -0.267 OA
HETATM    5  C   UNL     1      40.447  -9.679   7.055  1.00  0.00     0.061 A 
HETATM    6  C   UNL     1      41.762  -9.759   7.514  1.00  0.00     0.076 A 
HETATM    7  C   UNL     1      39.573  -8.683   7.509  1.00  0.00     0.020 A 
HETATM    8  C   UNL     1      40.031  -7.730   8.416  1.00  0.00     0.018 A 
HETATM    9  C   UNL     1      41.361  -7.776   8.843  1.00  0.00     0.034 A 
HETATM   10  C   UNL     1      42.218  -8.801   8.420  1.00  0.00     0.050 A 
HETATM   11  N   UNL     1      42.643 -10.758   7.078  1.00  0.00    -0.224 NA
ENDROOT
BRANCH   1  12
HETATM   12  S   UNL     1      43.414 -12.738   5.618  1.00  0.00    -0.082 SA
BRANCH  12  13
HETATM   13  C   UNL     1      42.954 -14.049   6.785  1.00  0.00     0.185 C 
BRANCH  13  14
HETATM   14  C   UNL     1      42.703 -15.402   6.138  1.00  0.00     0.231 C 
HETATM   15  N   UNL     1      43.559 -15.736   5.107  1.00  0.00    -0.326 N 
HETATM   16  H   UNL     1      44.201 -15.009   4.798  1.00  0.00     0.169 HD
HETATM   17  O   UNL     1      41.827 -16.129   6.605  1.00  0.00    -0.272 OA
BRANCH  15  18
HETATM   18  C   UNL     1      43.590 -16.945   4.377  1.00  0.00     0.036 A 
HETATM   19  C   UNL     1      43.986 -18.173   4.912  1.00  0.00     0.053 A 
HETATM   20  C   UNL     1      43.989 -19.329   4.120  1.00  0.00     0.042 A 
HETATM   21  C   UNL     1      43.577 -19.285   2.780  1.00  0.00    -0.040 A 
HETATM   22 CL   UNL     1      44.527 -20.803   4.849  1.00  0.00    -0.084 Cl
HETATM   23  C   UNL     1      43.583 -20.499   1.896  1.00  0.00     0.050 C 
HETATM   24  C   UNL     1      43.200 -18.046   2.243  1.00  0.00     0.011 A 
HETATM   25  C   UNL     1      43.209 -16.891   3.034  1.00  0.00     0.030 A 
ENDBRANCH  15  18
ENDBRANCH  13  14
ENDBRANCH  12  13
ENDBRANCH   1  12
BRANCH   2  26
HETATM   26  C   UNL     1      40.599 -12.308   4.381  1.00  0.00     0.199 C 
BRANCH  26  27
HETATM   27  C   UNL     1      40.857 -11.520   3.143  1.00  0.00     0.070 A 
HETATM   28  O   UNL     1      39.770 -11.022   2.487  1.00  0.00    -0.325 OA
HETATM   29  C   UNL     1      40.234 -10.371   1.390  1.00  0.00     0.142 A 
HETATM   30  C   UNL     1      41.606 -10.441   1.330  1.00  0.00     0.027 A 
HETATM   31  C   UNL     1      42.012 -11.183   2.465  1.00  0.00     0.036 A 
ENDBRANCH  26  27
ENDBRANCH   2  26
BRANCH   9  32
HETATM   32  C   UNL     1      41.839  -6.746   9.786  1.00  0.00     0.253 C 
HETATM   33  N   UNL     1      41.497  -6.860  11.137  1.00  0.00    -0.348 N 
HETATM   34  C   UNL     1      42.041  -5.847  12.039  1.00  0.00     0.127 C 
HETATM   35  C   UNL     1      41.156  -8.134  11.771  1.00  0.00     0.127 C 
HETATM   36  C   UNL     1      41.129  -5.612  13.241  1.00  0.00     0.034 C 
HETATM   37  C   UNL     1      40.719  -6.909  13.948  1.00  0.00     0.081 C 
HETATM   38  C   UNL     1      40.190  -7.931  12.934  1.00  0.00     0.034 C 
HETATM   39  O   UNL     1      42.509  -5.831   9.316  1.00  0.00    -0.267 OA
BRANCH  37  40
HETATM   40  C   UNL     1      41.853  -7.488  14.785  1.00  0.00     0.219 C 
HETATM   41  N   UNL     1      42.591  -6.569  15.472  1.00  0.00    -0.370 N 
HETATM   42  H   UNL     1      42.574  -5.585  15.242  1.00  0.00     0.159 HD
HETATM   43  H   UNL     1      43.402  -6.922  15.966  1.00  0.00     0.159 HD
HETATM   44  O   UNL     1      42.117  -8.681  14.869  1.00  0.00    -0.273 OA
ENDBRANCH  37  40
ENDBRANCH   9  32
TORSDOF 8
ENDMDL
MODEL 10
REMARK VINA RESULT:      -9.1      3.327      7.713
REMARK  8 active torsions:
REMARK  status: ('A' for Active; 'I' for Inactive)
REMARK    1  A    between atoms: C_6  and  N_7 
REMARK       I    between atoms: N_7  and  C_8 
REMARK    2  A    between atoms: C_8  and  C_9 
REMARK    3  A    between atoms: C_9  and  S_10 
REMARK    4  A    between atoms: S_10  and  C_11 
REMARK    5  A    between atoms: N_12  and  C_13 
REMARK    6  A    between atoms: C_13  and  C_14 
REMARK    7  A    between atoms: C_25  and  C_26 
REMARK       I    between atoms: C_26  and  N_27 
REMARK    8  A    between atoms: C_30  and  C_31 
REMARK       I    between atoms: C_31  and  N_32 
ROOT
HETATM    1  C   UNL     1      38.229 -11.707  -0.558  1.00  0.00     0.172 C 
HETATM    2  N   UNL     1      37.978 -10.352  -0.638  1.00  0.00    -0.286 N 
HETATM    3  C   UNL     1      37.885  -9.590   0.523  1.00  0.00     0.262 C 
HETATM    4  O   UNL     1      37.539  -8.411   0.551  1.00  0.00    -0.267 OA
HETATM    5  C   UNL     1      38.242 -10.262   1.782  1.00  0.00     0.061 A 
HETATM    6  C   UNL     1      38.549 -11.622   1.727  1.00  0.00     0.076 A 
HETATM    7  C   UNL     1      38.314  -9.544   2.983  1.00  0.00     0.020 A 
HETATM    8  C   UNL     1      38.732 -10.189   4.144  1.00  0.00     0.018 A 
HETATM    9  C   UNL     1      39.086 -11.540   4.086  1.00  0.00     0.034 A 
HETATM   10  C   UNL     1      38.969 -12.264   2.893  1.00  0.00     0.050 A 
HETATM   11  N   UNL     1      38.468 -12.355   0.536  1.00  0.00    -0.224 NA
ENDROOT
BRANCH   1  12
HETATM   12  S   UNL     1      38.172 -12.690  -2.003  1.00  0.00    -0.082 SA
BRANCH  12  13
HETATM   13  C   UNL     1      39.876 -13.312  -1.954  1.00  0.00     0.185 C 
BRANCH  13  14
HETATM   14  C   UNL     1      40.127 -14.360  -0.881  1.00  0.00     0.231 C 
HETATM   15  N   UNL     1      41.135 -14.062   0.017  1.00  0.00    -0.326 N 
HETATM   16  H   UNL     1      41.690 -13.233  -0.186  1.00  0.00     0.169 HD
HETATM   17  O   UNL     1      39.392 -15.346  -0.830  1.00  0.00    -0.272 OA
BRANCH  15  18
HETATM   18  C   UNL     1      41.535 -14.822   1.138  1.00  0.00     0.036 A 
HETATM   19  C   UNL     1      40.735 -15.040   2.262  1.00  0.00     0.053 A 
HETATM   20  C   UNL     1      41.207 -15.806   3.335  1.00  0.00     0.042 A 
HETATM   21  C   UNL     1      42.482 -16.389   3.299  1.00  0.00    -0.040 A 
HETATM   22 CL   UNL     1      40.168 -15.998   4.706  1.00  0.00    -0.084 Cl
HETATM   23  C   UNL     1      43.028 -17.203   4.437  1.00  0.00     0.050 C 
HETATM   24  C   UNL     1      43.288 -16.150   2.177  1.00  0.00     0.011 A 
HETATM   25  C   UNL     1      42.818 -15.374   1.111  1.00  0.00     0.030 A 
ENDBRANCH  15  18
ENDBRANCH  13  14
ENDBRANCH  12  13
ENDBRANCH   1  12
BRANCH   2  26
HETATM   26  C   UNL     1      37.834  -9.606  -1.891  1.00  0.00     0.199 C 
BRANCH  26  27
HETATM   27  C   UNL     1      39.189  -9.263  -2.406  1.00  0.00     0.070 A 
HETATM   28  O   UNL     1      39.615  -9.924  -3.520  1.00  0.00    -0.325 OA
HETATM   29  C   UNL     1      40.869  -9.478  -3.790  1.00  0.00     0.142 A 
HETATM   30  C   UNL     1      41.256  -8.537  -2.866  1.00  0.00     0.027 A 
HETATM   31  C   UNL     1      40.171  -8.395  -1.969  1.00  0.00     0.036 A 
ENDBRANCH  26  27
ENDBRANCH   2  26
BRANCH   9  32
HETATM   32  C   UNL     1      39.549 -12.205   5.320  1.00  0.00     0.253 C 
HETATM   33  N   UNL     1      40.903 -12.529   5.442  1.00  0.00    -0.348 N 
HETATM   34  C   UNL     1      41.322 -13.134   6.705  1.00  0.00     0.127 C 
HETATM   35  C   UNL     1      41.962 -11.833   4.710  1.00  0.00     0.127 C 
HETATM   36  C   UNL     1      42.528 -14.053   6.520  1.00  0.00     0.034 C 
HETATM   37  C   UNL     1      43.674 -13.391   5.745  1.00  0.00     0.081 C 
HETATM   38  C   UNL     1      43.152 -12.752   4.452  1.00  0.00     0.034 C 
HETATM   39  O   UNL     1      38.699 -12.446   6.173  1.00  0.00    -0.267 OA
BRANCH  37  40
HETATM   40  C   UNL     1      44.435 -12.384   6.599  1.00  0.00     0.219 C 
HETATM   41  N   UNL     1      43.869 -12.107   7.809  1.00  0.00    -0.370 N 
HETATM   42  H   UNL     1      42.904 -12.329   8.015  1.00  0.00     0.159 HD
HETATM   43  H   UNL     1      44.311 -11.378   8.356  1.00  0.00     0.159 HD
HETATM   44  O   UNL     1      45.481 -11.842   6.267  1.00  0.00    -0.273 OA
ENDBRANCH  37  40
ENDBRANCH   9  32
TORSDOF 8
ENDMDL
