MODEL 1
REMARK VINA RESULT:      -9.3      0.000      0.000
REMARK  9 active torsions:
REMARK  status: ('A' for Active; 'I' for Inactive)
REMARK    1  A    between atoms: C_2  and  N_3 
REMARK    2  A    between atoms: C_2  and  C_11 
REMARK    3  A    between atoms: N_3  and  C_4 
REMARK    4  A    between atoms: N_12  and  C_13 
REMARK    5  A    between atoms: C_19  and  S_20 
REMARK    6  A    between atoms: S_20  and  C_21 
REMARK    7  A    between atoms: C_21  and  C_22 
REMARK       I    between atoms: C_22  and  N_23 
REMARK    8  A    between atoms: N_23  and  C_24 
REMARK    9  A    between atoms: C_26  and  N_27 
REMARK       I    between atoms: N_27  and  C_28 
ROOT
HETATM    1  C   UNL     1      41.804 -14.040   6.330  1.00  0.00     0.158 A 
HETATM    2  N   UNL     1      42.120 -12.681   6.332  1.00  0.00    -0.274 N 
HETATM    3  C   UNL     1      40.897 -12.060   6.127  1.00  0.00     0.196 A 
HETATM    4  N   UNL     1      39.959 -12.955   5.915  1.00  0.00    -0.122 NA
HETATM    5  N   UNL     1      40.520 -14.187   6.043  1.00  0.00    -0.131 NA
ENDROOT
BRANCH   3   6
HETATM    6  S   UNL     1      40.630 -10.354   5.956  1.00  0.00    -0.080 SA
BRANCH   6   7
HETATM    7  C   UNL     1      40.982 -10.121   4.186  1.00  0.00     0.185 C 
BRANCH   7   8
HETATM    8  C   UNL     1      40.238 -11.163   3.365  1.00  0.00     0.231 C 
HETATM    9  N   UNL     1      41.034 -12.225   2.961  1.00  0.00    -0.326 N 
HETATM   10  H   UNL     1      42.020 -12.177   3.220  1.00  0.00     0.169 HD
HETATM   11  O   UNL     1      39.047 -11.010   3.109  1.00  0.00    -0.272 OA
BRANCH   9  12
HETATM   12  C   UNL     1      40.655 -13.320   2.153  1.00  0.00     0.036 A 
HETATM   13  C   UNL     1      40.661 -13.123   0.758  1.00  0.00     0.059 A 
HETATM   14  C   UNL     1      40.285 -14.147  -0.118  1.00  0.00     0.036 A 
HETATM   15  C   UNL     1      39.886 -15.375   0.424  1.00  0.00     0.029 A 
HETATM   16  C   UNL     1      39.884 -15.584   1.801  1.00  0.00     0.004 A 
HETATM   17  C   UNL     1      40.270 -14.558   2.662  1.00  0.00     0.029 A 
BRANCH  14  18
HETATM   18  N   UNL     1      40.240 -14.055  -1.522  1.00  0.00    -0.327 N 
HETATM   19  C   UNL     1      39.295 -13.676  -2.425  1.00  0.00     0.218 C 
HETATM   20  C   UNL     1      37.974 -13.110  -2.004  1.00  0.00     0.117 C 
HETATM   21  O   UNL     1      39.570 -13.788  -3.624  1.00  0.00    -0.274 OA
HETATM   22  H   UNL     1      41.090 -14.320  -2.008  1.00  0.00     0.169 HD
ENDBRANCH  14  18
ENDBRANCH   9  12
ENDBRANCH   7   8
ENDBRANCH   6   7
ENDBRANCH   3   6
BRANCH   2  23
HETATM   23  C   UNL     1      43.398 -12.086   6.502  1.00  0.00     0.043 A 
HETATM   24  C   UNL     1      44.231 -11.890   5.393  1.00  0.00     0.030 A 
HETATM   25  C   UNL     1      45.492 -11.313   5.561  1.00  0.00     0.002 A 
HETATM   26  C   UNL     1      45.922 -10.926   6.828  1.00  0.00     0.000 A 
HETATM   27  C   UNL     1      45.094 -11.113   7.932  1.00  0.00     0.002 A 
HETATM   28  C   UNL     1      43.832 -11.691   7.774  1.00  0.00     0.030 A 
ENDBRANCH   2  23
BRANCH   1  29
HETATM   29  C   UNL     1      42.716 -15.180   6.738  1.00  0.00     0.150 C 
HETATM   30  C   UNL     1      41.914 -16.479   6.903  1.00  0.00     0.040 C 
BRANCH  29  31
HETATM   31  N   UNL     1      43.759 -15.407   5.724  1.00  0.00    -0.379 N 
HETATM   32  H   UNL     1      44.096 -14.529   5.332  1.00  0.00     0.160 HD
BRANCH  31  33
HETATM   33  C   UNL     1      43.738 -16.466   4.827  1.00  0.00     0.028 A 
HETATM   34  C   UNL     1      44.275 -17.700   5.226  1.00  0.00     0.030 A 
HETATM   35  C   UNL     1      44.232 -18.821   4.389  1.00  0.00     0.021 A 
HETATM   36  C   UNL     1      43.621 -18.724   3.145  1.00  0.00     0.011 A 
HETATM   37 BR   UNL     1      43.532 -20.238   2.018  1.00  0.00    -0.051 Br
HETATM   38  C   UNL     1      43.061 -17.519   2.735  1.00  0.00     0.021 A 
HETATM   39  C   UNL     1      43.120 -16.400   3.575  1.00  0.00     0.030 A 
ENDBRANCH  31  33
ENDBRANCH  29  31
ENDBRANCH   1  29
TORSDOF 9
ENDMDL
MODEL 2
REMARK VINA RESULT:      -9.2      4.117      8.537
REMARK  9 active torsions:
REMARK  status: ('A' for Active; 'I' for Inactive)
REMARK    1  A    between atoms: C_2  and  N_3 
REMARK    2  A    between atoms: C_2  and  C_11 
REMARK    3  A    between atoms: N_3  and  C_4 
REMARK    4  A    between atoms: N_12  and  C_13 
REMARK    5  A    between atoms: C_19  and  S_20 
REMARK    6  A    between atoms: S_20  and  C_21 
REMARK    7  A    between atoms: C_21  and  C_22 
REMARK       I    between atoms: C_22  and  N_23 
REMARK    8  A    between atoms: N_23  and  C_24 
REMARK    9  A    between atoms: C_26  and  N_27 
REMARK       I    between atoms: N_27  and  C_28 
ROOT
HETATM    1  C   UNL     1      42.120 -12.011   3.842  1.00  0.00     0.158 A 
HETATM    2  N   UNL     1      42.517 -12.676   5.003  1.00  0.00    -0.274 N 
HETATM    3  C   UNL     1      43.421 -11.802   5.588  1.00  0.00     0.196 A 
HETATM    4  N   UNL     1      43.628 -10.767   4.806  1.00  0.00    -0.122 NA
HETATM    5  N   UNL     1      42.819 -10.893   3.721  1.00  0.00    -0.131 NA
ENDROOT
BRANCH   3   6
HETATM    6  S   UNL     1      44.330 -12.087   7.038  1.00  0.00    -0.080 SA
BRANCH   6   7
HETATM    7  C   UNL     1      45.691 -10.896   6.836  1.00  0.00     0.185 C 
BRANCH   7   8
HETATM    8  C   UNL     1      45.504  -9.724   7.786  1.00  0.00     0.231 C 
HETATM    9  N   UNL     1      44.246  -9.676   8.369  1.00  0.00    -0.326 N 
HETATM   10  H   UNL     1      43.583 -10.394   8.077  1.00  0.00     0.169 HD
HETATM   11  O   UNL     1      46.419  -8.924   7.965  1.00  0.00    -0.272 OA
BRANCH   9  12
HETATM   12  C   UNL     1      43.749  -8.690   9.251  1.00  0.00     0.036 A 
HETATM   13  C   UNL     1      43.626  -9.044  10.609  1.00  0.00     0.059 A 
HETATM   14  C   UNL     1      43.129  -8.136  11.550  1.00  0.00     0.036 A 
HETATM   15  C   UNL     1      42.739  -6.865  11.109  1.00  0.00     0.029 A 
HETATM   16  C   UNL     1      42.864  -6.502   9.771  1.00  0.00     0.004 A 
HETATM   17  C   UNL     1      43.370  -7.412   8.845  1.00  0.00     0.029 A 
BRANCH  14  18
HETATM   18  N   UNL     1      42.950  -8.388  12.923  1.00  0.00    -0.327 N 
HETATM   19  C   UNL     1      41.921  -8.850  13.684  1.00  0.00     0.218 C 
HETATM   20  C   UNL     1      40.641  -9.338  13.079  1.00  0.00     0.117 C 
HETATM   21  O   UNL     1      42.081  -8.882  14.909  1.00  0.00    -0.274 OA
HETATM   22  H   UNL     1      43.752  -8.197  13.514  1.00  0.00     0.169 HD
ENDBRANCH  14  18
ENDBRANCH   9  12
ENDBRANCH   7   8
ENDBRANCH   6   7
ENDBRANCH   3   6
BRANCH   2  23
HETATM   23  C   UNL     1      42.091 -13.949   5.464  1.00  0.00     0.043 A 
HETATM   24  C   UNL     1      40.802 -14.106   5.991  1.00  0.00     0.030 A 
HETATM   25  C   UNL     1      40.384 -15.356   6.452  1.00  0.00     0.002 A 
HETATM   26  C   UNL     1      41.243 -16.451   6.385  1.00  0.00     0.000 A 
HETATM   27  C   UNL     1      42.523 -16.300   5.855  1.00  0.00     0.002 A 
HETATM   28  C   UNL     1      42.949 -15.053   5.393  1.00  0.00     0.030 A 
ENDBRANCH   2  23
BRANCH   1  29
HETATM   29  C   UNL     1      40.973 -12.396   2.929  1.00  0.00     0.150 C 
HETATM   30  C   UNL     1      40.279 -11.141   2.378  1.00  0.00     0.040 C 
BRANCH  29  31
HETATM   31  N   UNL     1      41.453 -13.195   1.790  1.00  0.00    -0.379 N 
HETATM   32  H   UNL     1      40.957 -12.959   0.932  1.00  0.00     0.160 HD
BRANCH  31  33
HETATM   33  C   UNL     1      41.823 -14.529   1.892  1.00  0.00     0.028 A 
HETATM   34  C   UNL     1      43.170 -14.875   1.700  1.00  0.00     0.030 A 
HETATM   35  C   UNL     1      43.615 -16.193   1.846  1.00  0.00     0.021 A 
HETATM   36  C   UNL     1      42.713 -17.183   2.216  1.00  0.00     0.011 A 
HETATM   37 BR   UNL     1      43.308 -18.962   2.443  1.00  0.00    -0.051 Br
HETATM   38  C   UNL     1      41.377 -16.864   2.435  1.00  0.00     0.021 A 
HETATM   39  C   UNL     1      40.939 -15.544   2.275  1.00  0.00     0.030 A 
ENDBRANCH  31  33
ENDBRANCH  29  31
ENDBRANCH   1  29
TORSDOF 9
ENDMDL
MODEL 3
REMARK VINA RESULT:      -9.2      3.541      7.734
REMARK  9 active torsions:
REMARK  status: ('A' for Active; 'I' for Inactive)
REMARK    1  A    between atoms: C_2  and  N_3 
REMARK    2  A    between atoms: C_2  and  C_11 
REMARK    3  A    between atoms: N_3  and  C_4 
REMARK    4  A    between atoms: N_12  and  C_13 
REMARK    5  A    between atoms: C_19  and  S_20 
REMARK    6  A    between atoms: S_20  and  C_21 
REMARK    7  A    between atoms: C_21  and  C_22 
REMARK       I    between atoms: C_22  and  N_23 
REMARK    8  A    between atoms: N_23  and  C_24 
REMARK    9  A    between atoms: C_26  and  N_27 
REMARK       I    between atoms: N_27  and  C_28 
ROOT
HETATM    1  C   UNL     1      42.364 -11.973   3.837  1.00  0.00     0.158 A 
HETATM    2  N   UNL     1      42.757 -12.667   4.982  1.00  0.00    -0.274 N 
HETATM    3  C   UNL     1      43.757 -11.872   5.520  1.00  0.00     0.196 A 
HETATM    4  N   UNL     1      44.015 -10.859   4.725  1.00  0.00    -0.122 NA
HETATM    5  N   UNL     1      43.149 -10.918   3.678  1.00  0.00    -0.131 NA
ENDROOT
BRANCH   3   6
HETATM    6  S   UNL     1      44.704 -12.231   6.929  1.00  0.00    -0.080 SA
BRANCH   6   7
HETATM    7  C   UNL     1      45.824 -10.797   6.972  1.00  0.00     0.185 C 
BRANCH   7   8
HETATM    8  C   UNL     1      45.324  -9.775   7.981  1.00  0.00     0.231 C 
HETATM    9  N   UNL     1      44.364 -10.274   8.849  1.00  0.00    -0.326 N 
HETATM   10  H   UNL     1      44.074 -11.241   8.698  1.00  0.00     0.169 HD
HETATM   11  O   UNL     1      45.764  -8.629   7.966  1.00  0.00    -0.272 OA
BRANCH   9  12
HETATM   12  C   UNL     1      43.675  -9.568   9.860  1.00  0.00     0.036 A 
HETATM   13  C   UNL     1      42.351  -9.175   9.583  1.00  0.00     0.059 A 
HETATM   14  C   UNL     1      41.598  -8.459  10.520  1.00  0.00     0.036 A 
HETATM   15  C   UNL     1      42.197  -8.125  11.741  1.00  0.00     0.029 A 
HETATM   16  C   UNL     1      43.502  -8.515  12.029  1.00  0.00     0.004 A 
HETATM   17  C   UNL     1      44.237  -9.237  11.091  1.00  0.00     0.029 A 
BRANCH  14  18
HETATM   18  N   UNL     1      40.278  -8.005  10.343  1.00  0.00    -0.327 N 
HETATM   19  C   UNL     1      39.106  -8.591   9.974  1.00  0.00     0.218 C 
HETATM   20  C   UNL     1      38.989 -10.068   9.758  1.00  0.00     0.117 C 
HETATM   21  O   UNL     1      38.116  -7.863   9.844  1.00  0.00    -0.274 OA
HETATM   22  H   UNL     1      40.123  -7.020  10.528  1.00  0.00     0.169 HD
ENDBRANCH  14  18
ENDBRANCH   9  12
ENDBRANCH   7   8
ENDBRANCH   6   7
ENDBRANCH   3   6
BRANCH   2  23
HETATM   23  C   UNL     1      42.245 -13.899   5.469  1.00  0.00     0.043 A 
HETATM   24  C   UNL     1      40.938 -13.964   5.969  1.00  0.00     0.030 A 
HETATM   25  C   UNL     1      40.436 -15.174   6.455  1.00  0.00     0.002 A 
HETATM   26  C   UNL     1      41.231 -16.318   6.441  1.00  0.00     0.000 A 
HETATM   27  C   UNL     1      42.529 -16.258   5.938  1.00  0.00     0.002 A 
HETATM   28  C   UNL     1      43.039 -15.053   5.451  1.00  0.00     0.030 A 
ENDBRANCH   2  23
BRANCH   1  29
HETATM   29  C   UNL     1      41.148 -12.260   2.980  1.00  0.00     0.150 C 
HETATM   30  C   UNL     1      40.568 -10.955   2.412  1.00  0.00     0.040 C 
BRANCH  29  31
HETATM   31  N   UNL     1      41.496 -13.140   1.852  1.00  0.00    -0.379 N 
HETATM   32  H   UNL     1      40.878 -12.989   1.056  1.00  0.00     0.160 HD
BRANCH  31  33
HETATM   33  C   UNL     1      41.926 -14.450   2.006  1.00  0.00     0.028 A 
HETATM   34  C   UNL     1      40.988 -15.433   2.360  1.00  0.00     0.030 A 
HETATM   35  C   UNL     1      41.347 -16.780   2.475  1.00  0.00     0.021 A 
HETATM   36  C   UNL     1      42.655 -17.165   2.207  1.00  0.00     0.011 A 
HETATM   37 BR   UNL     1      43.147 -18.985   2.332  1.00  0.00    -0.051 Br
HETATM   38  C   UNL     1      43.600 -16.215   1.833  1.00  0.00     0.021 A 
HETATM   39  C   UNL     1      43.233 -14.867   1.733  1.00  0.00     0.030 A 
ENDBRANCH  31  33
ENDBRANCH  29  31
ENDBRANCH   1  29
TORSDOF 9
ENDMDL
MODEL 4
REMARK VINA RESULT:      -8.9      3.049      7.335
REMARK  9 active torsions:
REMARK  status: ('A' for Active; 'I' for Inactive)
REMARK    1  A    between atoms: C_2  and  N_3 
REMARK    2  A    between atoms: C_2  and  C_11 
REMARK    3  A    between atoms: N_3  and  C_4 
REMARK    4  A    between atoms: N_12  and  C_13 
REMARK    5  A    between atoms: C_19  and  S_20 
REMARK    6  A    between atoms: S_20  and  C_21 
REMARK    7  A    between atoms: C_21  and  C_22 
REMARK       I    between atoms: C_22  and  N_23 
REMARK    8  A    between atoms: N_23  and  C_24 
REMARK    9  A    between atoms: C_26  and  N_27 
REMARK       I    between atoms: N_27  and  C_28 
ROOT
HETATM    1  C   UNL     1      40.319 -13.900   3.200  1.00  0.00     0.158 A 
HETATM    2  N   UNL     1      40.506 -13.484   4.519  1.00  0.00    -0.274 N 
HETATM    3  C   UNL     1      39.779 -12.306   4.597  1.00  0.00     0.196 A 
HETATM    4  N   UNL     1      39.293 -11.989   3.418  1.00  0.00    -0.122 NA
HETATM    5  N   UNL     1      39.626 -12.979   2.549  1.00  0.00    -0.131 NA
ENDROOT
BRANCH   3   6
HETATM    6  S   UNL     1      39.672 -11.258   5.975  1.00  0.00    -0.080 SA
BRANCH   6   7
HETATM    7  C   UNL     1      40.353  -9.714   5.294  1.00  0.00     0.185 C 
BRANCH   7   8
HETATM    8  C   UNL     1      41.542  -9.258   6.124  1.00  0.00     0.231 C 
HETATM    9  N   UNL     1      42.116 -10.271   6.878  1.00  0.00    -0.326 N 
HETATM   10  H   UNL     1      41.666 -11.185   6.826  1.00  0.00     0.169 HD
HETATM   11  O   UNL     1      41.901  -8.083   6.093  1.00  0.00    -0.272 OA
BRANCH   9  12
HETATM   12  C   UNL     1      43.196 -10.159   7.782  1.00  0.00     0.036 A 
HETATM   13  C   UNL     1      42.961  -9.458   8.982  1.00  0.00     0.059 A 
HETATM   14  C   UNL     1      43.977  -9.285   9.928  1.00  0.00     0.036 A 
HETATM   15  C   UNL     1      45.244  -9.812   9.650  1.00  0.00     0.029 A 
HETATM   16  C   UNL     1      45.486 -10.514   8.471  1.00  0.00     0.004 A 
HETATM   17  C   UNL     1      44.462 -10.688   7.542  1.00  0.00     0.029 A 
BRANCH  14  18
HETATM   18  N   UNL     1      43.858  -8.593  11.148  1.00  0.00    -0.327 N 
HETATM   19  C   UNL     1      43.241  -8.844  12.334  1.00  0.00     0.218 C 
HETATM   20  C   UNL     1      42.563 -10.150  12.617  1.00  0.00     0.117 C 
HETATM   21  O   UNL     1      43.277  -7.962  13.198  1.00  0.00    -0.274 OA
HETATM   22  H   UNL     1      44.333  -7.697  11.193  1.00  0.00     0.169 HD
ENDBRANCH  14  18
ENDBRANCH   9  12
ENDBRANCH   7   8
ENDBRANCH   6   7
ENDBRANCH   3   6
BRANCH   2  23
HETATM   23  C   UNL     1      41.267 -14.124   5.532  1.00  0.00     0.043 A 
HETATM   24  C   UNL     1      40.784 -15.292   6.137  1.00  0.00     0.030 A 
HETATM   25  C   UNL     1      41.528 -15.918   7.139  1.00  0.00     0.002 A 
HETATM   26  C   UNL     1      42.753 -15.388   7.537  1.00  0.00     0.000 A 
HETATM   27  C   UNL     1      43.241 -14.231   6.933  1.00  0.00     0.002 A 
HETATM   28  C   UNL     1      42.502 -13.598   5.931  1.00  0.00     0.030 A 
ENDBRANCH   2  23
BRANCH   1  29
HETATM   29  C   UNL     1      40.697 -15.247   2.617  1.00  0.00     0.150 C 
HETATM   30  C   UNL     1      40.201 -15.364   1.167  1.00  0.00     0.040 C 
BRANCH  29  31
HETATM   31  N   UNL     1      42.157 -15.431   2.622  1.00  0.00    -0.379 N 
HETATM   32  H   UNL     1      42.596 -14.960   1.832  1.00  0.00     0.160 HD
BRANCH  31  33
HETATM   33  C   UNL     1      42.780 -16.610   3.006  1.00  0.00     0.028 A 
HETATM   34  C   UNL     1      43.494 -16.637   4.214  1.00  0.00     0.030 A 
HETATM   35  C   UNL     1      44.094 -17.809   4.684  1.00  0.00     0.021 A 
HETATM   36  C   UNL     1      43.961 -18.986   3.957  1.00  0.00     0.011 A 
HETATM   37 BR   UNL     1      44.745 -20.582   4.595  1.00  0.00    -0.051 Br
HETATM   38  C   UNL     1      43.240 -18.993   2.767  1.00  0.00     0.021 A 
HETATM   39  C   UNL     1      42.653 -17.811   2.300  1.00  0.00     0.030 A 
ENDBRANCH  31  33
ENDBRANCH  29  31
ENDBRANCH   1  29
TORSDOF 9
ENDMDL
MODEL 5
REMARK VINA RESULT:      -8.9      3.718      7.086
REMARK  9 active torsions:
REMARK  status: ('A' for Active; 'I' for Inactive)
REMARK    1  A    between atoms: C_2  and  N_3 
REMARK    2  A    between atoms: C_2  and  C_11 
REMARK    3  A    between atoms: N_3  and  C_4 
REMARK    4  A    between atoms: N_12  and  C_13 
REMARK    5  A    between atoms: C_19  and  S_20 
REMARK    6  A    between atoms: S_20  and  C_21 
REMARK    7  A    between atoms: C_21  and  C_22 
REMARK       I    between atoms: C_22  and  N_23 
REMARK    8  A    between atoms: N_23  and  C_24 
REMARK    9  A    between atoms: C_26  and  N_27 
REMARK       I    between atoms: N_27  and  C_28 
ROOT
HETATM    1  C   UNL     1      43.492 -11.356   5.186  1.00  0.00     0.158 A 
HETATM    2  N   UNL     1      42.255 -10.998   4.649  1.00  0.00    -0.274 N 
HETATM    3  C   UNL     1      42.481 -10.990   3.282  1.00  0.00     0.196 A 
HETATM    4  N   UNL     1      43.749 -11.215   3.026  1.00  0.00    -0.122 NA
HETATM    5  N   UNL     1      44.380 -11.445   4.208  1.00  0.00    -0.131 NA
ENDROOT
BRANCH   3   6
HETATM    6  S   UNL     1      41.335 -10.547   2.057  1.00  0.00    -0.080 SA
BRANCH   6   7
HETATM    7  C   UNL     1      41.460 -11.971   0.930  1.00  0.00     0.185 C 
BRANCH   7   8
HETATM    8  C   UNL     1      41.429 -13.268   1.723  1.00  0.00     0.231 C 
HETATM    9  N   UNL     1      42.628 -13.964   1.698  1.00  0.00    -0.326 N 
HETATM   10  H   UNL     1      43.375 -13.561   1.131  1.00  0.00     0.169 HD
HETATM   11  O   UNL     1      40.400 -13.613   2.300  1.00  0.00    -0.272 OA
BRANCH   9  12
HETATM   12  C   UNL     1      42.903 -15.217   2.291  1.00  0.00     0.036 A 
HETATM   13  C   UNL     1      43.148 -15.233   3.678  1.00  0.00     0.059 A 
HETATM   14  C   UNL     1      43.443 -16.427   4.346  1.00  0.00     0.036 A 
HETATM   15  C   UNL     1      43.505 -17.610   3.600  1.00  0.00     0.029 A 
HETATM   16  C   UNL     1      43.256 -17.608   2.230  1.00  0.00     0.004 A 
HETATM   17  C   UNL     1      42.953 -16.414   1.579  1.00  0.00     0.029 A 
BRANCH  14  18
HETATM   18  N   UNL     1      43.720 -16.555   5.720  1.00  0.00    -0.327 N 
HETATM   19  C   UNL     1      43.001 -16.374   6.861  1.00  0.00     0.218 C 
HETATM   20  C   UNL     1      41.538 -16.054   6.837  1.00  0.00     0.117 C 
HETATM   21  O   UNL     1      43.590 -16.509   7.938  1.00  0.00    -0.274 OA
HETATM   22  H   UNL     1      44.661 -16.855   5.953  1.00  0.00     0.169 HD
ENDBRANCH  14  18
ENDBRANCH   9  12
ENDBRANCH   7   8
ENDBRANCH   6   7
ENDBRANCH   3   6
BRANCH   2  23
HETATM   23  C   UNL     1      41.055 -10.709   5.351  1.00  0.00     0.043 A 
HETATM   24  C   UNL     1      40.810  -9.409   5.813  1.00  0.00     0.030 A 
HETATM   25  C   UNL     1      39.633  -9.126   6.510  1.00  0.00     0.002 A 
HETATM   26  C   UNL     1      38.698 -10.132   6.744  1.00  0.00     0.000 A 
HETATM   27  C   UNL     1      38.935 -11.424   6.280  1.00  0.00     0.002 A 
HETATM   28  C   UNL     1      40.109 -11.717   5.583  1.00  0.00     0.030 A 
ENDBRANCH   2  23
BRANCH   1  29
HETATM   29  C   UNL     1      43.775 -11.743   6.624  1.00  0.00     0.150 C 
HETATM   30  C   UNL     1      44.441 -13.125   6.690  1.00  0.00     0.040 C 
BRANCH  29  31
HETATM   31  N   UNL     1      44.673 -10.766   7.263  1.00  0.00    -0.379 N 
HETATM   32  H   UNL     1      45.651 -11.026   7.147  1.00  0.00     0.160 HD
BRANCH  31  33
HETATM   33  C   UNL     1      44.385 -10.132   8.463  1.00  0.00     0.028 A 
HETATM   34  C   UNL     1      43.059  -9.755   8.729  1.00  0.00     0.030 A 
HETATM   35  C   UNL     1      42.696  -9.164   9.944  1.00  0.00     0.021 A 
HETATM   36  C   UNL     1      43.660  -8.968  10.926  1.00  0.00     0.011 A 
HETATM   37 BR   UNL     1      43.176  -8.197  12.581  1.00  0.00    -0.051 Br
HETATM   38  C   UNL     1      44.977  -9.353  10.697  1.00  0.00     0.021 A 
HETATM   39  C   UNL     1      45.333  -9.932   9.473  1.00  0.00     0.030 A 
ENDBRANCH  31  33
ENDBRANCH  29  31
ENDBRANCH   1  29
TORSDOF 9
ENDMDL
MODEL 6
REMARK VINA RESULT:      -8.8      3.641      6.997
REMARK  9 active torsions:
REMARK  status: ('A' for Active; 'I' for Inactive)
REMARK    1  A    between atoms: C_2  and  N_3 
REMARK    2  A    between atoms: C_2  and  C_11 
REMARK    3  A    between atoms: N_3  and  C_4 
REMARK    4  A    between atoms: N_12  and  C_13 
REMARK    5  A    between atoms: C_19  and  S_20 
REMARK    6  A    between atoms: S_20  and  C_21 
REMARK    7  A    between atoms: C_21  and  C_22 
REMARK       I    between atoms: C_22  and  N_23 
REMARK    8  A    between atoms: N_23  and  C_24 
REMARK    9  A    between atoms: C_26  and  N_27 
REMARK       I    between atoms: N_27  and  C_28 
ROOT
HETATM    1  C   UNL     1      42.084 -13.547   5.862  1.00  0.00     0.158 A 
HETATM    2  N   UNL     1      42.503 -12.218   5.939  1.00  0.00    -0.274 N 
HETATM    3  C   UNL     1      41.540 -11.529   5.219  1.00  0.00     0.196 A 
HETATM    4  N   UNL     1      40.688 -12.367   4.673  1.00  0.00    -0.122 NA
HETATM    5  N   UNL     1      41.023 -13.622   5.074  1.00  0.00    -0.131 NA
ENDROOT
BRANCH   3   6
HETATM    6  S   UNL     1      41.536  -9.827   4.882  1.00  0.00    -0.080 SA
BRANCH   6   7
HETATM    7  C   UNL     1      39.761  -9.529   4.612  1.00  0.00     0.185 C 
BRANCH   7   8
HETATM    8  C   UNL     1      39.095  -9.125   5.918  1.00  0.00     0.231 C 
HETATM    9  N   UNL     1      39.993  -8.799   6.923  1.00  0.00    -0.326 N 
HETATM   10  H   UNL     1      40.983  -8.899   6.697  1.00  0.00     0.169 HD
HETATM   11  O   UNL     1      37.870  -9.121   6.009  1.00  0.00    -0.272 OA
BRANCH   9  12
HETATM   12  C   UNL     1      39.692  -8.434   8.255  1.00  0.00     0.036 A 
HETATM   13  C   UNL     1      39.587  -9.474   9.199  1.00  0.00     0.059 A 
HETATM   14  C   UNL     1      39.278  -9.206  10.537  1.00  0.00     0.036 A 
HETATM   15  C   UNL     1      39.058  -7.877  10.917  1.00  0.00     0.029 A 
HETATM   16  C   UNL     1      39.167  -6.840   9.994  1.00  0.00     0.004 A 
HETATM   17  C   UNL     1      39.486  -7.119   8.667  1.00  0.00     0.029 A 
BRANCH  14  18
HETATM   18  N   UNL     1      39.133 -10.165  11.557  1.00  0.00    -0.327 N 
HETATM   19  C   UNL     1      39.735 -10.381  12.759  1.00  0.00     0.218 C 
HETATM   20  C   UNL     1      40.740  -9.428  13.328  1.00  0.00     0.117 C 
HETATM   21  O   UNL     1      39.407 -11.390  13.392  1.00  0.00    -0.274 OA
HETATM   22  H   UNL     1      38.423 -10.872  11.399  1.00  0.00     0.169 HD
ENDBRANCH  14  18
ENDBRANCH   9  12
ENDBRANCH   7   8
ENDBRANCH   6   7
ENDBRANCH   3   6
BRANCH   2  23
HETATM   23  C   UNL     1      43.650 -11.706   6.601  1.00  0.00     0.043 A 
HETATM   24  C   UNL     1      43.533 -11.174   7.892  1.00  0.00     0.030 A 
HETATM   25  C   UNL     1      44.659 -10.663   8.541  1.00  0.00     0.002 A 
HETATM   26  C   UNL     1      45.901 -10.686   7.910  1.00  0.00     0.000 A 
HETATM   27  C   UNL     1      46.023 -11.222   6.630  1.00  0.00     0.002 A 
HETATM   28  C   UNL     1      44.902 -11.733   5.973  1.00  0.00     0.030 A 
ENDBRANCH   2  23
BRANCH   1  29
HETATM   29  C   UNL     1      42.631 -14.714   6.659  1.00  0.00     0.150 C 
HETATM   30  C   UNL     1      41.572 -15.819   6.794  1.00  0.00     0.040 C 
BRANCH  29  31
HETATM   31  N   UNL     1      43.817 -15.289   6.002  1.00  0.00    -0.379 N 
HETATM   32  H   UNL     1      44.513 -14.575   5.797  1.00  0.00     0.160 HD
BRANCH  31  33
HETATM   33  C   UNL     1      43.754 -16.315   5.070  1.00  0.00     0.028 A 
HETATM   34  C   UNL     1      44.183 -17.598   5.445  1.00  0.00     0.030 A 
HETATM   35  C   UNL     1      44.092 -18.686   4.570  1.00  0.00     0.021 A 
HETATM   36  C   UNL     1      43.538 -18.505   3.309  1.00  0.00     0.011 A 
HETATM   37 BR   UNL     1      43.383 -19.972   2.128  1.00  0.00    -0.051 Br
HETATM   38  C   UNL     1      43.083 -17.249   2.920  1.00  0.00     0.021 A 
HETATM   39  C   UNL     1      43.191 -16.164   3.799  1.00  0.00     0.030 A 
ENDBRANCH  31  33
ENDBRANCH  29  31
ENDBRANCH   1  29
TORSDOF 9
ENDMDL
MODEL 7
REMARK VINA RESULT:      -8.7      4.351      8.233
REMARK  9 active torsions:
REMARK  status: ('A' for Active; 'I' for Inactive)
REMARK    1  A    between atoms: C_2  and  N_3 
REMARK    2  A    between atoms: C_2  and  C_11 
REMARK    3  A    between atoms: N_3  and  C_4 
REMARK    4  A    between atoms: N_12  and  C_13 
REMARK    5  A    between atoms: C_19  and  S_20 
REMARK    6  A    between atoms: S_20  and  C_21 
REMARK    7  A    between atoms: C_21  and  C_22 
REMARK       I    between atoms: C_22  and  N_23 
REMARK    8  A    between atoms: N_23  and  C_24 
REMARK    9  A    between atoms: C_26  and  N_27 
REMARK       I    between atoms: N_27  and  C_28 
ROOT
HETATM    1  C   UNL     1      41.782 -13.737   6.042  1.00  0.00     0.158 A 
HETATM    2  N   UNL     1      42.158 -12.396   6.140  1.00  0.00    -0.274 N 
HETATM    3  C   UNL     1      41.008 -11.707   5.786  1.00  0.00     0.196 A 
HETATM    4  N   UNL     1      40.069 -12.545   5.410  1.00  0.00    -0.122 NA
HETATM    5  N   UNL     1      40.547 -13.807   5.569  1.00  0.00    -0.131 NA
ENDROOT
BRANCH   3   6
HETATM    6  S   UNL     1      40.849  -9.985   5.645  1.00  0.00    -0.080 SA
BRANCH   6   7
HETATM    7  C   UNL     1      40.056  -9.576   7.231  1.00  0.00     0.185 C 
BRANCH   7   8
HETATM    8  C   UNL     1      41.078  -8.979   8.186  1.00  0.00     0.231 C 
HETATM    9  N   UNL     1      40.915  -9.387   9.501  1.00  0.00    -0.326 N 
HETATM   10  H   UNL     1      40.123 -10.001   9.691  1.00  0.00     0.169 HD
HETATM   11  O   UNL     1      41.933  -8.203   7.766  1.00  0.00    -0.272 OA
BRANCH   9  12
HETATM   12  C   UNL     1      41.667  -8.974  10.625  1.00  0.00     0.036 A 
HETATM   13  C   UNL     1      41.100  -7.984  11.450  1.00  0.00     0.059 A 
HETATM   14  C   UNL     1      41.780  -7.505  12.575  1.00  0.00     0.036 A 
HETATM   15  C   UNL     1      43.050  -8.022  12.857  1.00  0.00     0.029 A 
HETATM   16  C   UNL     1      43.617  -9.008  12.052  1.00  0.00     0.004 A 
HETATM   17  C   UNL     1      42.925  -9.483  10.940  1.00  0.00     0.029 A 
BRANCH  14  18
HETATM   18  N   UNL     1      41.316  -6.510  13.457  1.00  0.00    -0.327 N 
HETATM   19  C   UNL     1      41.530  -5.173  13.587  1.00  0.00     0.218 C 
HETATM   20  C   UNL     1      42.343  -4.397  12.596  1.00  0.00     0.117 C 
HETATM   21  O   UNL     1      41.005  -4.598  14.546  1.00  0.00    -0.274 OA
HETATM   22  H   UNL     1      40.668  -6.823  14.171  1.00  0.00     0.169 HD
ENDBRANCH  14  18
ENDBRANCH   9  12
ENDBRANCH   7   8
ENDBRANCH   6   7
ENDBRANCH   3   6
BRANCH   2  23
HETATM   23  C   UNL     1      43.424 -11.875   6.514  1.00  0.00     0.043 A 
HETATM   24  C   UNL     1      43.646 -11.454   7.832  1.00  0.00     0.030 A 
HETATM   25  C   UNL     1      44.889 -10.933   8.198  1.00  0.00     0.002 A 
HETATM   26  C   UNL     1      45.913 -10.836   7.258  1.00  0.00     0.000 A 
HETATM   27  C   UNL     1      45.698 -11.261   5.948  1.00  0.00     0.002 A 
HETATM   28  C   UNL     1      44.458 -11.781   5.573  1.00  0.00     0.030 A 
ENDBRANCH   2  23
BRANCH   1  29
HETATM   29  C   UNL     1      42.571 -14.934   6.532  1.00  0.00     0.150 C 
HETATM   30  C   UNL     1      41.646 -16.145   6.730  1.00  0.00     0.040 C 
BRANCH  29  31
HETATM   31  N   UNL     1      43.617 -15.305   5.565  1.00  0.00    -0.379 N 
HETATM   32  H   UNL     1      43.976 -14.490   5.072  1.00  0.00     0.160 HD
BRANCH  31  33
HETATM   33  C   UNL     1      43.582 -16.467   4.806  1.00  0.00     0.028 A 
HETATM   34  C   UNL     1      42.958 -16.436   3.549  1.00  0.00     0.030 A 
HETATM   35  C   UNL     1      42.940 -17.557   2.713  1.00  0.00     0.021 A 
HETATM   36  C   UNL     1      43.577 -18.724   3.119  1.00  0.00     0.011 A 
HETATM   37 BR   UNL     1      43.583 -20.236   1.987  1.00  0.00    -0.051 Br
HETATM   38  C   UNL     1      44.222 -18.775   4.350  1.00  0.00     0.021 A 
HETATM   39  C   UNL     1      44.224 -17.651   5.184  1.00  0.00     0.030 A 
ENDBRANCH  31  33
ENDBRANCH  29  31
ENDBRANCH   1  29
TORSDOF 9
ENDMDL
MODEL 8
REMARK VINA RESULT:      -8.7      3.892      6.896
REMARK  9 active torsions:
REMARK  status: ('A' for Active; 'I' for Inactive)
REMARK    1  A    between atoms: C_2  and  N_3 
REMARK    2  A    between atoms: C_2  and  C_11 
REMARK    3  A    between atoms: N_3  and  C_4 
REMARK    4  A    between atoms: N_12  and  C_13 
REMARK    5  A    between atoms: C_19  and  S_20 
REMARK    6  A    between atoms: S_20  and  C_21 
REMARK    7  A    between atoms: C_21  and  C_22 
REMARK       I    between atoms: C_22  and  N_23 
REMARK    8  A    between atoms: N_23  and  C_24 
REMARK    9  A    between atoms: C_26  and  N_27 
REMARK       I    between atoms: N_27  and  C_28 
ROOT
HETATM    1  C   UNL     1      43.457 -11.398   5.228  1.00  0.00     0.158 A 
HETATM    2  N   UNL     1      42.245 -11.012   4.654  1.00  0.00    -0.274 N 
HETATM    3  C   UNL     1      42.506 -11.033   3.292  1.00  0.00     0.196 A 
HETATM    4  N   UNL     1      43.774 -11.299   3.073  1.00  0.00    -0.122 NA
HETATM    5  N   UNL     1      44.367 -11.529   4.274  1.00  0.00    -0.131 NA
ENDROOT
BRANCH   3   6
HETATM    6  S   UNL     1      41.406 -10.575   2.031  1.00  0.00    -0.080 SA
BRANCH   6   7
HETATM    7  C   UNL     1      41.391 -12.086   1.016  1.00  0.00     0.185 C 
BRANCH   7   8
HETATM    8  C   UNL     1      41.341 -13.314   1.911  1.00  0.00     0.231 C 
HETATM    9  N   UNL     1      42.566 -13.951   2.051  1.00  0.00    -0.326 N 
HETATM   10  H   UNL     1      43.344 -13.558   1.521  1.00  0.00     0.169 HD
HETATM   11  O   UNL     1      40.279 -13.663   2.421  1.00  0.00    -0.272 OA
BRANCH   9  12
HETATM   12  C   UNL     1      42.837 -15.136   2.770  1.00  0.00     0.036 A 
HETATM   13  C   UNL     1      42.890 -16.337   2.036  1.00  0.00     0.059 A 
HETATM   14  C   UNL     1      43.138 -17.560   2.668  1.00  0.00     0.036 A 
HETATM   15  C   UNL     1      43.318 -17.569   4.056  1.00  0.00     0.029 A 
HETATM   16  C   UNL     1      43.277 -16.387   4.791  1.00  0.00     0.004 A 
HETATM   17  C   UNL     1      43.039 -15.174   4.148  1.00  0.00     0.029 A 
BRANCH  14  18
HETATM   18  N   UNL     1      43.196 -18.817   2.037  1.00  0.00    -0.327 N 
HETATM   19  C   UNL     1      43.552 -20.070   2.432  1.00  0.00     0.218 C 
HETATM   20  C   UNL     1      43.900 -20.387   3.854  1.00  0.00     0.117 C 
HETATM   21  O   UNL     1      43.556 -20.962   1.578  1.00  0.00    -0.274 OA
HETATM   22  H   UNL     1      42.910 -18.835   1.064  1.00  0.00     0.169 HD
ENDBRANCH  14  18
ENDBRANCH   9  12
ENDBRANCH   7   8
ENDBRANCH   6   7
ENDBRANCH   3   6
BRANCH   2  23
HETATM   23  C   UNL     1      41.037 -10.676   5.319  1.00  0.00     0.043 A 
HETATM   24  C   UNL     1      40.810  -9.357   5.734  1.00  0.00     0.030 A 
HETATM   25  C   UNL     1      39.625  -9.028   6.396  1.00  0.00     0.002 A 
HETATM   26  C   UNL     1      38.665 -10.006   6.642  1.00  0.00     0.000 A 
HETATM   27  C   UNL     1      38.884 -11.317   6.225  1.00  0.00     0.002 A 
HETATM   28  C   UNL     1      40.066 -11.656   5.563  1.00  0.00     0.030 A 
ENDBRANCH   2  23
BRANCH   1  29
HETATM   29  C   UNL     1      43.691 -11.770   6.678  1.00  0.00     0.150 C 
HETATM   30  C   UNL     1      44.319 -13.168   6.783  1.00  0.00     0.040 C 
BRANCH  29  31
HETATM   31  N   UNL     1      44.598 -10.807   7.327  1.00  0.00    -0.379 N 
HETATM   32  H   UNL     1      45.573 -11.082   7.220  1.00  0.00     0.160 HD
BRANCH  31  33
HETATM   33  C   UNL     1      44.308 -10.169   8.525  1.00  0.00     0.028 A 
HETATM   34  C   UNL     1      43.008  -9.683   8.736  1.00  0.00     0.030 A 
HETATM   35  C   UNL     1      42.638  -9.083   9.944  1.00  0.00     0.021 A 
HETATM   36  C   UNL     1      43.567  -8.986  10.973  1.00  0.00     0.011 A 
HETATM   37 BR   UNL     1      43.072  -8.202  12.619  1.00  0.00    -0.051 Br
HETATM   38  C   UNL     1      44.856  -9.480  10.799  1.00  0.00     0.021 A 
HETATM   39  C   UNL     1      45.219 -10.069   9.581  1.00  0.00     0.030 A 
ENDBRANCH  31  33
ENDBRANCH  29  31
ENDBRANCH   1  29
TORSDOF 9
ENDMDL
MODEL 9
REMARK VINA RESULT:      -8.6      4.764      9.055
REMARK  9 active torsions:
REMARK  status: ('A' for Active; 'I' for Inactive)
REMARK    1  A    between atoms: C_2  and  N_3 
REMARK    2  A    between atoms: C_2  and  C_11 
REMARK    3  A    between atoms: N_3  and  C_4 
REMARK    4  A    between atoms: N_12  and  C_13 
REMARK    5  A    between atoms: C_19  and  S_20 
REMARK    6  A    between atoms: S_20  and  C_21 
REMARK    7  A    between atoms: C_21  and  C_22 
REMARK       I    between atoms: C_22  and  N_23 
REMARK    8  A    between atoms: N_23  and  C_24 
REMARK    9  A    between atoms: C_26  and  N_27 
REMARK       I    between atoms: N_27  and  C_28 
ROOT
HETATM    1  C   UNL     1      41.678 -11.870   4.390  1.00  0.00     0.158 A 
HETATM    2  N   UNL     1      42.290 -12.581   5.424  1.00  0.00    -0.274 N 
HETATM    3  C   UNL     1      43.028 -11.616   6.092  1.00  0.00     0.196 A 
HETATM    4  N   UNL     1      42.955 -10.466   5.463  1.00  0.00    -0.122 NA
HETATM    5  N   UNL     1      42.114 -10.620   4.406  1.00  0.00    -0.131 NA
ENDROOT
BRANCH   3   6
HETATM    6  S   UNL     1      44.080 -11.887   7.445  1.00  0.00    -0.080 SA
BRANCH   6   7
HETATM    7  C   UNL     1      44.486 -10.177   7.919  1.00  0.00     0.185 C 
BRANCH   7   8
HETATM    8  C   UNL     1      44.413 -10.024   9.430  1.00  0.00     0.231 C 
HETATM    9  N   UNL     1      43.266  -9.380   9.870  1.00  0.00    -0.326 N 
HETATM   10  H   UNL     1      42.625  -9.051   9.147  1.00  0.00     0.169 HD
HETATM   11  O   UNL     1      45.326 -10.444  10.137  1.00  0.00    -0.272 OA
BRANCH   9  12
HETATM   12  C   UNL     1      42.929  -9.044  11.200  1.00  0.00     0.036 A 
HETATM   13  C   UNL     1      42.877  -7.675  11.526  1.00  0.00     0.059 A 
HETATM   14  C   UNL     1      42.567  -7.252  12.823  1.00  0.00     0.036 A 
HETATM   15  C   UNL     1      42.322  -8.224  13.800  1.00  0.00     0.029 A 
HETATM   16  C   UNL     1      42.362  -9.580  13.488  1.00  0.00     0.004 A 
HETATM   17  C   UNL     1      42.663  -9.988  12.190  1.00  0.00     0.029 A 
BRANCH  14  18
HETATM   18  N   UNL     1      42.503  -5.916  13.260  1.00  0.00    -0.327 N 
HETATM   19  C   UNL     1      41.519  -4.978  13.329  1.00  0.00     0.218 C 
HETATM   20  C   UNL     1      40.095  -5.293  12.989  1.00  0.00     0.117 C 
HETATM   21  O   UNL     1      41.831  -3.845  13.710  1.00  0.00    -0.274 OA
HETATM   22  H   UNL     1      43.369  -5.528  13.619  1.00  0.00     0.169 HD
ENDBRANCH  14  18
ENDBRANCH   9  12
ENDBRANCH   7   8
ENDBRANCH   6   7
ENDBRANCH   3   6
BRANCH   2  23
HETATM   23  C   UNL     1      42.176 -13.966   5.710  1.00  0.00     0.043 A 
HETATM   24  C   UNL     1      40.974 -14.480   6.214  1.00  0.00     0.030 A 
HETATM   25  C   UNL     1      40.864 -15.842   6.504  1.00  0.00     0.002 A 
HETATM   26  C   UNL     1      41.944 -16.694   6.288  1.00  0.00     0.000 A 
HETATM   27  C   UNL     1      43.139 -16.188   5.781  1.00  0.00     0.002 A 
HETATM   28  C   UNL     1      43.259 -14.827   5.490  1.00  0.00     0.030 A 
ENDBRANCH   2  23
BRANCH   1  29
HETATM   29  C   UNL     1      40.575 -12.371   3.480  1.00  0.00     0.150 C 
HETATM   30  C   UNL     1      39.670 -11.209   3.040  1.00  0.00     0.040 C 
BRANCH  29  31
HETATM   31  N   UNL     1      41.135 -13.002   2.273  1.00  0.00    -0.379 N 
HETATM   32  H   UNL     1      40.663 -12.680   1.430  1.00  0.00     0.160 HD
BRANCH  31  33
HETATM   33  C   UNL     1      41.561 -14.322   2.226  1.00  0.00     0.028 A 
HETATM   34  C   UNL     1      42.891 -14.592   1.867  1.00  0.00     0.030 A 
HETATM   35  C   UNL     1      43.396 -15.896   1.858  1.00  0.00     0.021 A 
HETATM   36  C   UNL     1      42.576 -16.951   2.238  1.00  0.00     0.011 A 
HETATM   37 BR   UNL     1      43.254 -18.714   2.255  1.00  0.00    -0.051 Br
HETATM   38  C   UNL     1      41.260 -16.709   2.620  1.00  0.00     0.021 A 
HETATM   39  C   UNL     1      40.761 -15.401   2.615  1.00  0.00     0.030 A 
ENDBRANCH  31  33
ENDBRANCH  29  31
ENDBRANCH   1  29
TORSDOF 9
ENDMDL
MODEL 10
REMARK VINA RESULT:      -8.5      4.174      6.412
REMARK  9 active torsions:
REMARK  status: ('A' for Active; 'I' for Inactive)
REMARK    1  A    between atoms: C_2  and  N_3 
REMARK    2  A    between atoms: C_2  and  C_11 
REMARK    3  A    between atoms: N_3  and  C_4 
REMARK    4  A    between atoms: N_12  and  C_13 
REMARK    5  A    between atoms: C_19  and  S_20 
REMARK    6  A    between atoms: S_20  and  C_21 
REMARK    7  A    between atoms: C_21  and  C_22 
REMARK       I    between atoms: C_22  and  N_23 
REMARK    8  A    between atoms: N_23  and  C_24 
REMARK    9  A    between atoms: C_26  and  N_27 
REMARK       I    between atoms: N_27  and  C_28 
ROOT
HETATM    1  C   UNL     1      40.185 -12.457   2.271  1.00  0.00     0.158 A 
HETATM    2  N   UNL     1      40.460 -13.535   1.429  1.00  0.00    -0.274 N 
HETATM    3  C   UNL     1      39.704 -13.268   0.298  1.00  0.00     0.196 A 
HETATM    4  N   UNL     1      38.967 -12.197   0.482  1.00  0.00    -0.122 NA
HETATM    5  N   UNL     1      39.265 -11.689   1.707  1.00  0.00    -0.131 NA
ENDROOT
BRANCH   3   6
HETATM    6  S   UNL     1      39.560 -14.285  -1.100  1.00  0.00    -0.080 SA
BRANCH   6   7
HETATM    7  C   UNL     1      39.082 -13.070  -2.368  1.00  0.00     0.185 C 
BRANCH   7   8
HETATM    8  C   UNL     1      40.259 -12.162  -2.689  1.00  0.00     0.231 C 
HETATM    9  N   UNL     1      40.103 -10.864  -2.226  1.00  0.00    -0.326 N 
HETATM   10  H   UNL     1      39.219 -10.651  -1.763  1.00  0.00     0.169 HD
HETATM   11  O   UNL     1      41.222 -12.599  -3.314  1.00  0.00    -0.272 OA
BRANCH   9  12
HETATM   12  C   UNL     1      40.989  -9.778  -2.405  1.00  0.00     0.036 A 
HETATM   13  C   UNL     1      40.986  -9.145  -3.663  1.00  0.00     0.059 A 
HETATM   14  C   UNL     1      41.841  -8.071  -3.934  1.00  0.00     0.036 A 
HETATM   15  C   UNL     1      42.718  -7.647  -2.929  1.00  0.00     0.029 A 
HETATM   16  C   UNL     1      42.725  -8.261  -1.678  1.00  0.00     0.004 A 
HETATM   17  C   UNL     1      41.860  -9.322  -1.418  1.00  0.00     0.029 A 
BRANCH  14  18
HETATM   18  N   UNL     1      41.932  -7.378  -5.156  1.00  0.00    -0.327 N 
HETATM   19  C   UNL     1      41.301  -6.298  -5.691  1.00  0.00     0.218 C 
HETATM   20  C   UNL     1      40.322  -5.479  -4.907  1.00  0.00     0.117 C 
HETATM   21  O   UNL     1      41.580  -5.987  -6.854  1.00  0.00    -0.274 OA
HETATM   22  H   UNL     1      42.618  -7.733  -5.813  1.00  0.00     0.169 HD
ENDBRANCH  14  18
ENDBRANCH   9  12
ENDBRANCH   7   8
ENDBRANCH   6   7
ENDBRANCH   3   6
BRANCH   2  23
HETATM   23  C   UNL     1      41.314 -14.640   1.685  1.00  0.00     0.043 A 
HETATM   24  C   UNL     1      42.696 -14.514   1.496  1.00  0.00     0.030 A 
HETATM   25  C   UNL     1      43.536 -15.603   1.740  1.00  0.00     0.002 A 
HETATM   26  C   UNL     1      43.004 -16.815   2.175  1.00  0.00     0.000 A 
HETATM   27  C   UNL     1      41.630 -16.942   2.370  1.00  0.00     0.002 A 
HETATM   28  C   UNL     1      40.783 -15.858   2.128  1.00  0.00     0.030 A 
ENDBRANCH   2  23
BRANCH   1  29
HETATM   29  C   UNL     1      40.911 -12.104   3.554  1.00  0.00     0.150 C 
HETATM   30  C   UNL     1      40.666 -10.634   3.926  1.00  0.00     0.040 C 
BRANCH  29  31
HETATM   31  N   UNL     1      40.446 -12.946   4.669  1.00  0.00    -0.379 N 
HETATM   32  H   UNL     1      39.955 -12.397   5.372  1.00  0.00     0.160 HD
BRANCH  31  33
HETATM   33  C   UNL     1      41.172 -14.014   5.177  1.00  0.00     0.028 A 
HETATM   34  C   UNL     1      40.479 -15.127   5.679  1.00  0.00     0.030 A 
HETATM   35  C   UNL     1      41.154 -16.257   6.151  1.00  0.00     0.021 A 
HETATM   36  C   UNL     1      42.542 -16.298   6.100  1.00  0.00     0.011 A 
HETATM   37 BR   UNL     1      43.463 -17.831   6.709  1.00  0.00    -0.051 Br
HETATM   38  C   UNL     1      43.253 -15.219   5.586  1.00  0.00     0.021 A 
HETATM   39  C   UNL     1      42.568 -14.087   5.127  1.00  0.00     0.030 A 
ENDBRANCH  31  33
ENDBRANCH  29  31
ENDBRANCH   1  29
TORSDOF 9
ENDMDL
