MODEL 1
REMARK VINA RESULT:      -8.4      0.000      0.000
REMARK  11 active torsions:
REMARK  status: ('A' for Active; 'I' for Inactive)
REMARK    1  A    between atoms: O_2  and  C_3 
REMARK    2  A    between atoms: C_5  and  C_6 
REMARK    3  A    between atoms: C_10  and  C_11 
REMARK       I    between atoms: C_11  and  N_12 
REMARK    4  A    between atoms: N_12  and  C_13 
REMARK    5  A    between atoms: C_13  and  C_14 
REMARK    6  A    between atoms: C_15  and  C_16 
REMARK    7  A    between atoms: C_16  and  O_17 
REMARK    8  A    between atoms: O_17  and  C_18 
REMARK    9  A    between atoms: C_19  and  C_20 
REMARK   10  A    between atoms: C_20  and  C_21 
REMARK   11  A    between atoms: C_29  and  O_30 
ROOT
HETATM    1  C   UNL     1      40.715 -13.410   4.723  1.00  0.00     0.270 C 
HETATM    2  N   UNL     1      40.199 -14.633   5.067  1.00  0.00    -0.345 N 
HETATM    3  O   UNL     1      41.382 -12.732   5.497  1.00  0.00    -0.266 OA
HETATM    4  H   UNL     1      39.616 -15.135   4.413  1.00  0.00     0.163 HD
ENDROOT
BRANCH   1   5
HETATM    5  C   UNL     1      40.407 -12.960   3.392  1.00  0.00     0.120 A 
HETATM    6  N   UNL     1      39.144 -12.559   3.051  1.00  0.00    -0.272 N 
HETATM    7  N   UNL     1      38.995 -12.236   1.758  1.00  0.00    -0.174 NA
HETATM    8  H   UNL     1      38.336 -12.514   3.664  1.00  0.00     0.189 HD
HETATM    9  C   UNL     1      40.221 -12.392   1.237  1.00  0.00     0.092 A 
HETATM   10  C   UNL     1      41.138 -12.836   2.228  1.00  0.00     0.071 A 
BRANCH   9  11
HETATM   11  C   UNL     1      40.485 -12.210  -0.186  1.00  0.00     0.030 A 
HETATM   12  C   UNL     1      40.147 -13.253  -1.065  1.00  0.00     0.053 A 
HETATM   13  C   UNL     1      40.349 -13.133  -2.441  1.00  0.00     0.069 A 
HETATM   14  C   UNL     1      40.907 -11.961  -2.947  1.00  0.00     0.039 A 
HETATM   15  C   UNL     1      41.257 -10.917  -2.082  1.00  0.00     0.040 A 
HETATM   16  C   UNL     1      41.038 -11.029  -0.704  1.00  0.00     0.081 A 
BRANCH  13  17
HETATM   17  O   UNL     1      39.972 -14.228  -3.169  1.00  0.00    -0.356 OA
HETATM   18  C   UNL     1      38.637 -14.686  -2.999  1.00  0.00     0.210 C 
ENDBRANCH  13  17
BRANCH  16  19
HETATM   19  O   UNL     1      41.439 -10.052   0.171  1.00  0.00    -0.355 OA
HETATM   20  C   UNL     1      40.459  -9.047   0.415  1.00  0.00     0.210 C 
ENDBRANCH  16  19
ENDBRANCH   9  11
ENDBRANCH   1   5
BRANCH   2  21
HETATM   21  C   UNL     1      40.298 -15.140   6.411  1.00  0.00     0.217 C 
BRANCH  21  22
HETATM   22  C   UNL     1      41.418 -16.078   6.509  1.00  0.00    -0.085 C 
HETATM   23  C   UNL     1      42.305 -16.881   6.621  1.00  0.00    -0.078 C 
BRANCH  23  24
HETATM   24  C   UNL     1      43.343 -17.907   6.797  1.00  0.00     0.269 C 
BRANCH  24  25
HETATM   25  O   UNL     1      44.267 -17.898   5.703  1.00  0.00    -0.339 OA
BRANCH  25  26
HETATM   26  C   UNL     1      44.009 -18.773   4.679  1.00  0.00     0.076 A 
HETATM   27  C   UNL     1      43.534 -18.222   3.476  1.00  0.00    -0.021 A 
HETATM   28  C   UNL     1      43.269 -19.076   2.390  1.00  0.00     0.010 A 
HETATM   29  C   UNL     1      43.500 -20.447   2.488  1.00  0.00     0.001 A 
HETATM   30  C   UNL     1      43.998 -20.981   3.671  1.00  0.00     0.003 A 
HETATM   31  C   UNL     1      44.255 -20.148   4.761  1.00  0.00     0.037 A 
BRANCH  27  32
HETATM   32  C   UNL     1      43.253 -16.743   3.329  1.00  0.00     0.067 C 
BRANCH  32  33
HETATM   33  C   UNL     1      43.172 -16.320   1.887  1.00  0.00    -0.032 C 
HETATM   34  C   UNL     1      43.698 -15.189   1.398  1.00  0.00     0.007 C 
ENDBRANCH  32  33
ENDBRANCH  27  32
ENDBRANCH  25  26
ENDBRANCH  24  25
ENDBRANCH  23  24
ENDBRANCH  21  22
ENDBRANCH   2  21
TORSDOF 11
ENDMDL
MODEL 2
REMARK VINA RESULT:      -8.3      0.913      2.398
REMARK  11 active torsions:
REMARK  status: ('A' for Active; 'I' for Inactive)
REMARK    1  A    between atoms: O_2  and  C_3 
REMARK    2  A    between atoms: C_5  and  C_6 
REMARK    3  A    between atoms: C_10  and  C_11 
REMARK       I    between atoms: C_11  and  N_12 
REMARK    4  A    between atoms: N_12  and  C_13 
REMARK    5  A    between atoms: C_13  and  C_14 
REMARK    6  A    between atoms: C_15  and  C_16 
REMARK    7  A    between atoms: C_16  and  O_17 
REMARK    8  A    between atoms: O_17  and  C_18 
REMARK    9  A    between atoms: C_19  and  C_20 
REMARK   10  A    between atoms: C_20  and  C_21 
REMARK   11  A    between atoms: C_29  and  O_30 
ROOT
HETATM    1  C   UNL     1      40.793 -13.342   4.709  1.00  0.00     0.270 C 
HETATM    2  N   UNL     1      40.219 -14.519   5.118  1.00  0.00    -0.345 N 
HETATM    3  O   UNL     1      41.529 -12.678   5.432  1.00  0.00    -0.266 OA
HETATM    4  H   UNL     1      39.583 -15.008   4.506  1.00  0.00     0.163 HD
ENDROOT
BRANCH   1   5
HETATM    5  C   UNL     1      40.460 -12.922   3.374  1.00  0.00     0.120 A 
HETATM    6  N   UNL     1      39.168 -12.934   2.925  1.00  0.00    -0.272 N 
HETATM    7  N   UNL     1      39.025 -12.584   1.638  1.00  0.00    -0.174 NA
HETATM    8  H   UNL     1      38.345 -13.202   3.455  1.00  0.00     0.189 HD
HETATM    9  C   UNL     1      40.270 -12.291   1.237  1.00  0.00     0.092 A 
HETATM   10  C   UNL     1      41.200 -12.480   2.296  1.00  0.00     0.071 A 
BRANCH   9  11
HETATM   11  C   UNL     1      40.573 -11.928  -0.143  1.00  0.00     0.030 A 
HETATM   12  C   UNL     1      40.998 -10.615  -0.408  1.00  0.00     0.053 A 
HETATM   13  C   UNL     1      41.330 -10.209  -1.702  1.00  0.00     0.069 A 
HETATM   14  C   UNL     1      41.224 -11.123  -2.749  1.00  0.00     0.039 A 
HETATM   15  C   UNL     1      40.792 -12.431  -2.501  1.00  0.00     0.040 A 
HETATM   16  C   UNL     1      40.477 -12.844  -1.201  1.00  0.00     0.081 A 
BRANCH  13  17
HETATM   17  O   UNL     1      41.726  -8.905  -1.806  1.00  0.00    -0.356 OA
HETATM   18  C   UNL     1      40.954  -7.939  -1.104  1.00  0.00     0.210 C 
ENDBRANCH  13  17
BRANCH  16  19
HETATM   19  O   UNL     1      39.983 -14.098  -0.942  1.00  0.00    -0.355 OA
HETATM   20  C   UNL     1      39.080 -14.586  -1.930  1.00  0.00     0.210 C 
ENDBRANCH  16  19
ENDBRANCH   9  11
ENDBRANCH   1   5
BRANCH   2  21
HETATM   21  C   UNL     1      40.341 -14.982   6.476  1.00  0.00     0.217 C 
BRANCH  21  22
HETATM   22  C   UNL     1      41.448 -15.935   6.581  1.00  0.00    -0.085 C 
HETATM   23  C   UNL     1      42.374 -16.699   6.618  1.00  0.00    -0.078 C 
BRANCH  23  24
HETATM   24  C   UNL     1      43.531 -17.605   6.598  1.00  0.00     0.269 C 
BRANCH  24  25
HETATM   25  O   UNL     1      44.206 -17.549   5.336  1.00  0.00    -0.339 OA
BRANCH  25  26
HETATM   26  C   UNL     1      43.993 -18.600   4.481  1.00  0.00     0.076 A 
HETATM   27  C   UNL     1      43.521 -18.289   3.195  1.00  0.00    -0.021 A 
HETATM   28  C   UNL     1      43.300 -19.331   2.277  1.00  0.00     0.010 A 
HETATM   29  C   UNL     1      43.573 -20.654   2.620  1.00  0.00     0.001 A 
HETATM   30  C   UNL     1      44.068 -20.952   3.884  1.00  0.00     0.003 A 
HETATM   31  C   UNL     1      44.281 -19.929   4.811  1.00  0.00     0.037 A 
BRANCH  27  32
HETATM   32  C   UNL     1      43.195 -16.870   2.783  1.00  0.00     0.067 C 
BRANCH  32  33
HETATM   33  C   UNL     1      41.715 -16.602   2.791  1.00  0.00    -0.032 C 
HETATM   34  C   UNL     1      41.037 -16.059   1.771  1.00  0.00     0.007 C 
ENDBRANCH  32  33
ENDBRANCH  27  32
ENDBRANCH  25  26
ENDBRANCH  24  25
ENDBRANCH  23  24
ENDBRANCH  21  22
ENDBRANCH   2  21
TORSDOF 11
ENDMDL
MODEL 3
REMARK VINA RESULT:      -7.9      7.135     10.385
REMARK  11 active torsions:
REMARK  status: ('A' for Active; 'I' for Inactive)
REMARK    1  A    between atoms: O_2  and  C_3 
REMARK    2  A    between atoms: C_5  and  C_6 
REMARK    3  A    between atoms: C_10  and  C_11 
REMARK       I    between atoms: C_11  and  N_12 
REMARK    4  A    between atoms: N_12  and  C_13 
REMARK    5  A    between atoms: C_13  and  C_14 
REMARK    6  A    between atoms: C_15  and  C_16 
REMARK    7  A    between atoms: C_16  and  O_17 
REMARK    8  A    between atoms: O_17  and  C_18 
REMARK    9  A    between atoms: C_19  and  C_20 
REMARK   10  A    between atoms: C_20  and  C_21 
REMARK   11  A    between atoms: C_29  and  O_30 
ROOT
HETATM    1  C   UNL     1      44.359 -10.665   9.072  1.00  0.00     0.270 C 
HETATM    2  N   UNL     1      43.518 -10.836   8.002  1.00  0.00    -0.345 N 
HETATM    3  O   UNL     1      45.574 -10.811   8.988  1.00  0.00    -0.266 OA
HETATM    4  H   UNL     1      42.520 -10.752   8.128  1.00  0.00     0.163 HD
ENDROOT
BRANCH   1   5
HETATM    5  C   UNL     1      43.720 -10.320  10.313  1.00  0.00     0.120 A 
HETATM    6  N   UNL     1      43.555 -11.243  11.310  1.00  0.00    -0.272 N 
HETATM    7  N   UNL     1      42.878 -10.793  12.376  1.00  0.00    -0.174 NA
HETATM    8  H   UNL     1      43.865 -12.210  11.298  1.00  0.00     0.189 HD
HETATM    9  C   UNL     1      42.624  -9.509  12.086  1.00  0.00     0.092 A 
HETATM   10  C   UNL     1      43.142  -9.168  10.806  1.00  0.00     0.071 A 
BRANCH   9  11
HETATM   11  C   UNL     1      41.830  -8.659  12.967  1.00  0.00     0.030 A 
HETATM   12  C   UNL     1      42.446  -8.132  14.115  1.00  0.00     0.053 A 
HETATM   13  C   UNL     1      41.752  -7.291  14.986  1.00  0.00     0.069 A 
HETATM   14  C   UNL     1      40.421  -6.979  14.715  1.00  0.00     0.039 A 
HETATM   15  C   UNL     1      39.792  -7.504  13.579  1.00  0.00     0.040 A 
HETATM   16  C   UNL     1      40.493  -8.333  12.695  1.00  0.00     0.081 A 
BRANCH  13  17
HETATM   17  O   UNL     1      42.480  -6.856  16.059  1.00  0.00    -0.356 OA
HETATM   18  C   UNL     1      41.844  -5.936  16.938  1.00  0.00     0.210 C 
ENDBRANCH  13  17
BRANCH  16  19
HETATM   19  O   UNL     1      39.880  -8.919  11.616  1.00  0.00    -0.355 OA
HETATM   20  C   UNL     1      39.087  -8.027  10.839  1.00  0.00     0.210 C 
ENDBRANCH  16  19
ENDBRANCH   9  11
ENDBRANCH   1   5
BRANCH   2  21
HETATM   21  C   UNL     1      44.000 -11.329   6.738  1.00  0.00     0.217 C 
BRANCH  21  22
HETATM   22  C   UNL     1      43.829 -12.782   6.670  1.00  0.00    -0.085 C 
HETATM   23  C   UNL     1      43.635 -13.967   6.627  1.00  0.00    -0.078 C 
BRANCH  23  24
HETATM   24  C   UNL     1      43.325 -15.403   6.589  1.00  0.00     0.269 C 
BRANCH  24  25
HETATM   25  O   UNL     1      42.620 -15.746   5.391  1.00  0.00    -0.339 OA
BRANCH  25  26
HETATM   26  C   UNL     1      43.124 -16.795   4.665  1.00  0.00     0.076 A 
HETATM   27  C   UNL     1      42.863 -16.798   3.284  1.00  0.00    -0.021 A 
HETATM   28  C   UNL     1      43.371 -17.844   2.494  1.00  0.00     0.010 A 
HETATM   29  C   UNL     1      44.149 -18.853   3.060  1.00  0.00     0.001 A 
HETATM   30  C   UNL     1      44.428 -18.828   4.422  1.00  0.00     0.003 A 
HETATM   31  C   UNL     1      43.921 -17.802   5.221  1.00  0.00     0.037 A 
BRANCH  27  32
HETATM   32  C   UNL     1      42.010 -15.733   2.629  1.00  0.00     0.067 C 
BRANCH  32  33
HETATM   33  C   UNL     1      42.840 -14.634   2.023  1.00  0.00    -0.032 C 
HETATM   34  C   UNL     1      43.226 -13.529   2.673  1.00  0.00     0.007 C 
ENDBRANCH  32  33
ENDBRANCH  27  32
ENDBRANCH  25  26
ENDBRANCH  24  25
ENDBRANCH  23  24
ENDBRANCH  21  22
ENDBRANCH   2  21
TORSDOF 11
ENDMDL
MODEL 4
REMARK VINA RESULT:      -7.9      5.033      8.899
REMARK  11 active torsions:
REMARK  status: ('A' for Active; 'I' for Inactive)
REMARK    1  A    between atoms: O_2  and  C_3 
REMARK    2  A    between atoms: C_5  and  C_6 
REMARK    3  A    between atoms: C_10  and  C_11 
REMARK       I    between atoms: C_11  and  N_12 
REMARK    4  A    between atoms: N_12  and  C_13 
REMARK    5  A    between atoms: C_13  and  C_14 
REMARK    6  A    between atoms: C_15  and  C_16 
REMARK    7  A    between atoms: C_16  and  O_17 
REMARK    8  A    between atoms: O_17  and  C_18 
REMARK    9  A    between atoms: C_19  and  C_20 
REMARK   10  A    between atoms: C_20  and  C_21 
REMARK   11  A    between atoms: C_29  and  O_30 
ROOT
HETATM    1  C   UNL     1      40.290 -12.359   6.193  1.00  0.00     0.270 C 
HETATM    2  N   UNL     1      40.809 -11.148   6.575  1.00  0.00    -0.345 N 
HETATM    3  O   UNL     1      39.086 -12.591   6.186  1.00  0.00    -0.266 OA
HETATM    4  H   UNL     1      41.809 -11.018   6.609  1.00  0.00     0.163 HD
ENDROOT
BRANCH   1   5
HETATM    5  C   UNL     1      41.257 -13.356   5.815  1.00  0.00     0.120 A 
HETATM    6  N   UNL     1      42.579 -13.225   6.142  1.00  0.00    -0.272 N 
HETATM    7  N   UNL     1      43.368 -14.196   5.658  1.00  0.00    -0.174 NA
HETATM    8  H   UNL     1      43.000 -12.470   6.673  1.00  0.00     0.189 HD
HETATM    9  C   UNL     1      42.522 -15.021   5.023  1.00  0.00     0.092 A 
HETATM   10  C   UNL     1      41.188 -14.536   5.104  1.00  0.00     0.071 A 
BRANCH   9  11
HETATM   11  C   UNL     1      42.990 -16.188   4.284  1.00  0.00     0.030 A 
HETATM   12  C   UNL     1      43.454 -17.296   5.013  1.00  0.00     0.053 A 
HETATM   13  C   UNL     1      43.891 -18.454   4.368  1.00  0.00     0.069 A 
HETATM   14  C   UNL     1      43.875 -18.505   2.976  1.00  0.00     0.039 A 
HETATM   15  C   UNL     1      43.424 -17.405   2.236  1.00  0.00     0.040 A 
HETATM   16  C   UNL     1      42.969 -16.250   2.882  1.00  0.00     0.081 A 
BRANCH  13  17
HETATM   17  O   UNL     1      44.313 -19.448   5.207  1.00  0.00    -0.356 OA
HETATM   18  C   UNL     1      44.012 -20.784   4.826  1.00  0.00     0.210 C 
ENDBRANCH  13  17
BRANCH  16  19
HETATM   19  O   UNL     1      42.591 -15.133   2.181  1.00  0.00    -0.355 OA
HETATM   20  C   UNL     1      41.411 -15.303   1.401  1.00  0.00     0.210 C 
ENDBRANCH  16  19
ENDBRANCH   9  11
ENDBRANCH   1   5
BRANCH   2  21
HETATM   21  C   UNL     1      39.973 -10.112   7.121  1.00  0.00     0.217 C 
BRANCH  21  22
HETATM   22  C   UNL     1      40.737  -8.870   7.251  1.00  0.00    -0.085 C 
HETATM   23  C   UNL     1      41.389  -7.872   7.403  1.00  0.00    -0.078 C 
BRANCH  23  24
HETATM   24  C   UNL     1      42.219  -6.684   7.649  1.00  0.00     0.269 C 
BRANCH  24  25
HETATM   25  O   UNL     1      43.531  -7.055   8.087  1.00  0.00    -0.339 OA
BRANCH  25  26
HETATM   26  C   UNL     1      43.611  -7.700   9.295  1.00  0.00     0.076 A 
HETATM   27  C   UNL     1      44.538  -8.751   9.395  1.00  0.00    -0.021 A 
HETATM   28  C   UNL     1      44.669  -9.435  10.617  1.00  0.00     0.010 A 
HETATM   29  C   UNL     1      43.915  -9.060  11.728  1.00  0.00     0.001 A 
HETATM   30  C   UNL     1      43.021  -8.000  11.631  1.00  0.00     0.003 A 
HETATM   31  C   UNL     1      42.871  -7.320  10.421  1.00  0.00     0.037 A 
BRANCH  27  32
HETATM   32  C   UNL     1      45.366  -9.203   8.212  1.00  0.00     0.067 C 
BRANCH  32  33
HETATM   33  C   UNL     1      45.368 -10.700   8.058  1.00  0.00    -0.032 C 
HETATM   34  C   UNL     1      45.577 -11.344   6.902  1.00  0.00     0.007 C 
ENDBRANCH  32  33
ENDBRANCH  27  32
ENDBRANCH  25  26
ENDBRANCH  24  25
ENDBRANCH  23  24
ENDBRANCH  21  22
ENDBRANCH   2  21
TORSDOF 11
ENDMDL
MODEL 5
REMARK VINA RESULT:      -7.8      5.835      9.627
REMARK  11 active torsions:
REMARK  status: ('A' for Active; 'I' for Inactive)
REMARK    1  A    between atoms: O_2  and  C_3 
REMARK    2  A    between atoms: C_5  and  C_6 
REMARK    3  A    between atoms: C_10  and  C_11 
REMARK       I    between atoms: C_11  and  N_12 
REMARK    4  A    between atoms: N_12  and  C_13 
REMARK    5  A    between atoms: C_13  and  C_14 
REMARK    6  A    between atoms: C_15  and  C_16 
REMARK    7  A    between atoms: C_16  and  O_17 
REMARK    8  A    between atoms: O_17  and  C_18 
REMARK    9  A    between atoms: C_19  and  C_20 
REMARK   10  A    between atoms: C_20  and  C_21 
REMARK   11  A    between atoms: C_29  and  O_30 
ROOT
HETATM    1  C   UNL     1      42.428 -11.679   6.431  1.00  0.00     0.270 C 
HETATM    2  N   UNL     1      41.264 -10.983   6.636  1.00  0.00    -0.345 N 
HETATM    3  O   UNL     1      43.535 -11.193   6.639  1.00  0.00    -0.266 OA
HETATM    4  H   UNL     1      40.378 -11.408   6.407  1.00  0.00     0.163 HD
ENDROOT
BRANCH   1   5
HETATM    5  C   UNL     1      42.270 -13.019   5.934  1.00  0.00     0.120 A 
HETATM    6  N   UNL     1      41.445 -13.916   6.555  1.00  0.00    -0.272 N 
HETATM    7  N   UNL     1      41.457 -15.145   6.018  1.00  0.00    -0.174 NA
HETATM    8  H   UNL     1      40.868 -13.744   7.373  1.00  0.00     0.189 HD
HETATM    9  C   UNL     1      42.294 -15.040   4.976  1.00  0.00     0.092 A 
HETATM   10  C   UNL     1      42.820 -13.722   4.881  1.00  0.00     0.071 A 
BRANCH   9  11
HETATM   11  C   UNL     1      42.651 -16.189   4.151  1.00  0.00     0.030 A 
HETATM   12  C   UNL     1      43.517 -17.154   4.694  1.00  0.00     0.053 A 
HETATM   13  C   UNL     1      43.877 -18.292   3.969  1.00  0.00     0.069 A 
HETATM   14  C   UNL     1      43.376 -18.463   2.679  1.00  0.00     0.039 A 
HETATM   15  C   UNL     1      42.520 -17.505   2.123  1.00  0.00     0.040 A 
HETATM   16  C   UNL     1      42.144 -16.374   2.856  1.00  0.00     0.081 A 
BRANCH  13  17
HETATM   17  O   UNL     1      44.725 -19.141   4.625  1.00  0.00    -0.356 OA
HETATM   18  C   UNL     1      44.230 -20.440   4.924  1.00  0.00     0.210 C 
ENDBRANCH  13  17
BRANCH  16  19
HETATM   19  O   UNL     1      41.366 -15.385   2.308  1.00  0.00    -0.355 OA
HETATM   20  C   UNL     1      39.990 -15.730   2.175  1.00  0.00     0.210 C 
ENDBRANCH  16  19
ENDBRANCH   9  11
ENDBRANCH   1   5
BRANCH   2  21
HETATM   21  C   UNL     1      41.275  -9.587   6.986  1.00  0.00     0.217 C 
BRANCH  21  22
HETATM   22  C   UNL     1      40.746  -9.407   8.339  1.00  0.00    -0.085 C 
HETATM   23  C   UNL     1      40.285  -9.307   9.445  1.00  0.00    -0.078 C 
BRANCH  23  24
HETATM   24  C   UNL     1      39.691  -9.254  10.788  1.00  0.00     0.269 C 
BRANCH  24  25
HETATM   25  O   UNL     1      40.581  -9.803  11.766  1.00  0.00    -0.339 OA
BRANCH  25  26
HETATM   26  C   UNL     1      41.272  -8.903  12.536  1.00  0.00     0.076 A 
HETATM   27  C   UNL     1      42.675  -8.951  12.467  1.00  0.00    -0.021 A 
HETATM   28  C   UNL     1      43.429  -8.039  13.227  1.00  0.00     0.010 A 
HETATM   29  C   UNL     1      42.801  -7.077  14.016  1.00  0.00     0.001 A 
HETATM   30  C   UNL     1      41.413  -7.016  14.057  1.00  0.00     0.003 A 
HETATM   31  C   UNL     1      40.650  -7.923  13.318  1.00  0.00     0.037 A 
BRANCH  27  32
HETATM   32  C   UNL     1      43.400  -9.988  11.637  1.00  0.00     0.067 C 
BRANCH  32  33
HETATM   33  C   UNL     1      44.425  -9.371  10.726  1.00  0.00    -0.032 C 
HETATM   34  C   UNL     1      44.134  -8.672   9.620  1.00  0.00     0.007 C 
ENDBRANCH  32  33
ENDBRANCH  27  32
ENDBRANCH  25  26
ENDBRANCH  24  25
ENDBRANCH  23  24
ENDBRANCH  21  22
ENDBRANCH   2  21
TORSDOF 11
ENDMDL
MODEL 6
REMARK VINA RESULT:      -7.7      6.164      9.275
REMARK  11 active torsions:
REMARK  status: ('A' for Active; 'I' for Inactive)
REMARK    1  A    between atoms: O_2  and  C_3 
REMARK    2  A    between atoms: C_5  and  C_6 
REMARK    3  A    between atoms: C_10  and  C_11 
REMARK       I    between atoms: C_11  and  N_12 
REMARK    4  A    between atoms: N_12  and  C_13 
REMARK    5  A    between atoms: C_13  and  C_14 
REMARK    6  A    between atoms: C_15  and  C_16 
REMARK    7  A    between atoms: C_16  and  O_17 
REMARK    8  A    between atoms: O_17  and  C_18 
REMARK    9  A    between atoms: C_19  and  C_20 
REMARK   10  A    between atoms: C_20  and  C_21 
REMARK   11  A    between atoms: C_29  and  O_30 
ROOT
HETATM    1  C   UNL     1      39.539 -11.031   6.990  1.00  0.00     0.270 C 
HETATM    2  N   UNL     1      40.016 -10.154   7.930  1.00  0.00    -0.345 N 
HETATM    3  O   UNL     1      38.346 -11.127   6.719  1.00  0.00    -0.266 OA
HETATM    4  H   UNL     1      41.000 -10.143   8.154  1.00  0.00     0.163 HD
ENDROOT
BRANCH   1   5
HETATM    5  C   UNL     1      40.531 -11.853   6.350  1.00  0.00     0.120 A 
HETATM    6  N   UNL     1      41.846 -11.802   6.723  1.00  0.00    -0.272 N 
HETATM    7  N   UNL     1      42.661 -12.572   5.986  1.00  0.00    -0.174 NA
HETATM    8  H   UNL     1      42.245 -11.232   7.462  1.00  0.00     0.189 HD
HETATM    9  C   UNL     1      41.841 -13.185   5.121  1.00  0.00     0.092 A 
HETATM   10  C   UNL     1      40.495 -12.771   5.319  1.00  0.00     0.071 A 
BRANCH   9  11
HETATM   11  C   UNL     1      42.342 -14.071   4.076  1.00  0.00     0.030 A 
HETATM   12  C   UNL     1      42.425 -15.447   4.353  1.00  0.00     0.053 A 
HETATM   13  C   UNL     1      42.870 -16.353   3.389  1.00  0.00     0.069 A 
HETATM   14  C   UNL     1      43.250 -15.880   2.135  1.00  0.00     0.039 A 
HETATM   15  C   UNL     1      43.181 -14.512   1.848  1.00  0.00     0.040 A 
HETATM   16  C   UNL     1      42.718 -13.604   2.808  1.00  0.00     0.081 A 
BRANCH  13  17
HETATM   17  O   UNL     1      42.896 -17.657   3.802  1.00  0.00    -0.356 OA
HETATM   18  C   UNL     1      44.167 -18.200   4.136  1.00  0.00     0.210 C 
ENDBRANCH  13  17
BRANCH  16  19
HETATM   19  O   UNL     1      42.710 -12.252   2.577  1.00  0.00    -0.355 OA
HETATM   20  C   UNL     1      41.650 -11.808   1.735  1.00  0.00     0.210 C 
ENDBRANCH  16  19
ENDBRANCH   9  11
ENDBRANCH   1   5
BRANCH   2  21
HETATM   21  C   UNL     1      39.126  -9.380   8.756  1.00  0.00     0.217 C 
BRANCH  21  22
HETATM   22  C   UNL     1      39.363  -9.685  10.168  1.00  0.00    -0.085 C 
HETATM   23  C   UNL     1      39.509  -9.962  11.328  1.00  0.00    -0.078 C 
BRANCH  23  24
HETATM   24  C   UNL     1      39.623 -10.340  12.744  1.00  0.00     0.269 C 
BRANCH  24  25
HETATM   25  O   UNL     1      40.993 -10.509  13.123  1.00  0.00    -0.339 OA
BRANCH  25  26
HETATM   26  C   UNL     1      41.666  -9.377  13.506  1.00  0.00     0.076 A 
HETATM   27  C   UNL     1      42.818  -9.042  12.774  1.00  0.00    -0.021 A 
HETATM   28  C   UNL     1      43.533  -7.881  13.118  1.00  0.00     0.010 A 
HETATM   29  C   UNL     1      43.096  -7.053  14.150  1.00  0.00     0.001 A 
HETATM   30  C   UNL     1      41.939  -7.374  14.851  1.00  0.00     0.003 A 
HETATM   31  C   UNL     1      41.224  -8.529  14.528  1.00  0.00     0.037 A 
BRANCH  27  32
HETATM   32  C   UNL     1      43.339  -9.919  11.657  1.00  0.00     0.067 C 
BRANCH  32  33
HETATM   33  C   UNL     1      43.709  -9.123  10.435  1.00  0.00    -0.032 C 
HETATM   34  C   UNL     1      44.914  -9.145   9.851  1.00  0.00     0.007 C 
ENDBRANCH  32  33
ENDBRANCH  27  32
ENDBRANCH  25  26
ENDBRANCH  24  25
ENDBRANCH  23  24
ENDBRANCH  21  22
ENDBRANCH   2  21
TORSDOF 11
ENDMDL
MODEL 7
REMARK VINA RESULT:      -7.7      4.703      8.712
REMARK  11 active torsions:
REMARK  status: ('A' for Active; 'I' for Inactive)
REMARK    1  A    between atoms: O_2  and  C_3 
REMARK    2  A    between atoms: C_5  and  C_6 
REMARK    3  A    between atoms: C_10  and  C_11 
REMARK       I    between atoms: C_11  and  N_12 
REMARK    4  A    between atoms: N_12  and  C_13 
REMARK    5  A    between atoms: C_13  and  C_14 
REMARK    6  A    between atoms: C_15  and  C_16 
REMARK    7  A    between atoms: C_16  and  O_17 
REMARK    8  A    between atoms: O_17  and  C_18 
REMARK    9  A    between atoms: C_19  and  C_20 
REMARK   10  A    between atoms: C_20  and  C_21 
REMARK   11  A    between atoms: C_29  and  O_30 
ROOT
HETATM    1  C   UNL     1      40.416 -12.144   5.753  1.00  0.00     0.270 C 
HETATM    2  N   UNL     1      40.706 -10.830   5.486  1.00  0.00    -0.345 N 
HETATM    3  O   UNL     1      39.430 -12.487   6.398  1.00  0.00    -0.266 OA
HETATM    4  H   UNL     1      41.552 -10.593   4.991  1.00  0.00     0.163 HD
ENDROOT
BRANCH   1   5
HETATM    5  C   UNL     1      41.358 -13.103   5.240  1.00  0.00     0.120 A 
HETATM    6  N   UNL     1      42.183 -12.800   4.193  1.00  0.00    -0.272 N 
HETATM    7  N   UNL     1      42.953 -13.818   3.781  1.00  0.00    -0.174 NA
HETATM    8  H   UNL     1      42.239 -11.913   3.701  1.00  0.00     0.189 HD
HETATM    9  C   UNL     1      42.651 -14.819   4.620  1.00  0.00     0.092 A 
HETATM   10  C   UNL     1      41.661 -14.411   5.557  1.00  0.00     0.071 A 
BRANCH   9  11
HETATM   11  C   UNL     1      43.224 -16.152   4.473  1.00  0.00     0.030 A 
HETATM   12  C   UNL     1      42.862 -16.911   3.347  1.00  0.00     0.053 A 
HETATM   13  C   UNL     1      43.395 -18.183   3.131  1.00  0.00     0.069 A 
HETATM   14  C   UNL     1      44.293 -18.711   4.057  1.00  0.00     0.039 A 
HETATM   15  C   UNL     1      44.656 -17.969   5.188  1.00  0.00     0.040 A 
HETATM   16  C   UNL     1      44.136 -16.686   5.396  1.00  0.00     0.081 A 
BRANCH  13  17
HETATM   17  O   UNL     1      42.950 -18.802   1.995  1.00  0.00    -0.356 OA
HETATM   18  C   UNL     1      43.244 -20.186   1.860  1.00  0.00     0.210 C 
ENDBRANCH  13  17
BRANCH  16  19
HETATM   19  O   UNL     1      44.418 -15.969   6.531  1.00  0.00    -0.355 OA
HETATM   20  C   UNL     1      43.842 -16.504   7.719  1.00  0.00     0.210 C 
ENDBRANCH  16  19
ENDBRANCH   9  11
ENDBRANCH   1   5
BRANCH   2  21
HETATM   21  C   UNL     1      39.937  -9.759   6.064  1.00  0.00     0.217 C 
BRANCH  21  22
HETATM   22  C   UNL     1      40.834  -8.730   6.593  1.00  0.00    -0.085 C 
HETATM   23  C   UNL     1      41.555  -7.900   7.079  1.00  0.00    -0.078 C 
BRANCH  23  24
HETATM   24  C   UNL     1      42.417  -6.912   7.742  1.00  0.00     0.269 C 
BRANCH  24  25
HETATM   25  O   UNL     1      43.683  -7.484   8.089  1.00  0.00    -0.339 OA
BRANCH  25  26
HETATM   26  C   UNL     1      43.720  -8.236   9.236  1.00  0.00     0.076 A 
HETATM   27  C   UNL     1      44.361  -9.484   9.158  1.00  0.00    -0.021 A 
HETATM   28  C   UNL     1      44.439 -10.286  10.310  1.00  0.00     0.010 A 
HETATM   29  C   UNL     1      43.916  -9.843  11.524  1.00  0.00     0.001 A 
HETATM   30  C   UNL     1      43.310  -8.594  11.601  1.00  0.00     0.003 A 
HETATM   31  C   UNL     1      43.214  -7.792  10.463  1.00  0.00     0.037 A 
BRANCH  27  32
HETATM   32  C   UNL     1      44.928 -10.013   7.859  1.00  0.00     0.067 C 
BRANCH  32  33
HETATM   33  C   UNL     1      44.118 -11.155   7.309  1.00  0.00    -0.032 C 
HETATM   34  C   UNL     1      44.639 -12.280   6.802  1.00  0.00     0.007 C 
ENDBRANCH  32  33
ENDBRANCH  27  32
ENDBRANCH  25  26
ENDBRANCH  24  25
ENDBRANCH  23  24
ENDBRANCH  21  22
ENDBRANCH   2  21
TORSDOF 11
ENDMDL
MODEL 8
REMARK VINA RESULT:      -7.6      7.035      9.963
REMARK  11 active torsions:
REMARK  status: ('A' for Active; 'I' for Inactive)
REMARK    1  A    between atoms: O_2  and  C_3 
REMARK    2  A    between atoms: C_5  and  C_6 
REMARK    3  A    between atoms: C_10  and  C_11 
REMARK       I    between atoms: C_11  and  N_12 
REMARK    4  A    between atoms: N_12  and  C_13 
REMARK    5  A    between atoms: C_13  and  C_14 
REMARK    6  A    between atoms: C_15  and  C_16 
REMARK    7  A    between atoms: C_16  and  O_17 
REMARK    8  A    between atoms: O_17  and  C_18 
REMARK    9  A    between atoms: C_19  and  C_20 
REMARK   10  A    between atoms: C_20  and  C_21 
REMARK   11  A    between atoms: C_29  and  O_30 
ROOT
HETATM    1  C   UNL     1      44.237 -10.801   8.531  1.00  0.00     0.270 C 
HETATM    2  N   UNL     1      43.564 -11.409   7.503  1.00  0.00    -0.345 N 
HETATM    3  O   UNL     1      45.437 -10.966   8.726  1.00  0.00    -0.266 OA
HETATM    4  H   UNL     1      42.568 -11.281   7.409  1.00  0.00     0.163 HD
ENDROOT
BRANCH   1   5
HETATM    5  C   UNL     1      43.438  -9.965   9.387  1.00  0.00     0.120 A 
HETATM    6  N   UNL     1      42.106  -9.767   9.145  1.00  0.00    -0.272 N 
HETATM    7  N   UNL     1      41.513  -8.906   9.986  1.00  0.00    -0.174 NA
HETATM    8  H   UNL     1      41.558 -10.177   8.396  1.00  0.00     0.189 HD
HETATM    9  C   UNL     1      42.485  -8.558  10.840  1.00  0.00     0.092 A 
HETATM   10  C   UNL     1      43.707  -9.205  10.507  1.00  0.00     0.071 A 
BRANCH   9  11
HETATM   11  C   UNL     1      42.275  -7.565  11.888  1.00  0.00     0.030 A 
HETATM   12  C   UNL     1      42.449  -6.208  11.564  1.00  0.00     0.053 A 
HETATM   13  C   UNL     1      42.237  -5.205  12.512  1.00  0.00     0.069 A 
HETATM   14  C   UNL     1      41.859  -5.561  13.805  1.00  0.00     0.039 A 
HETATM   15  C   UNL     1      41.691  -6.909  14.144  1.00  0.00     0.040 A 
HETATM   16  C   UNL     1      41.885  -7.914  13.189  1.00  0.00     0.081 A 
BRANCH  13  17
HETATM   17  O   UNL     1      42.445  -3.934  12.052  1.00  0.00    -0.356 OA
HETATM   18  C   UNL     1      42.567  -2.909  13.029  1.00  0.00     0.210 C 
ENDBRANCH  13  17
BRANCH  16  19
HETATM   19  O   UNL     1      41.798  -9.244  13.515  1.00  0.00    -0.355 OA
HETATM   20  C   UNL     1      40.473  -9.768  13.485  1.00  0.00     0.210 C 
ENDBRANCH  16  19
ENDBRANCH   9  11
ENDBRANCH   1   5
BRANCH   2  21
HETATM   21  C   UNL     1      44.202 -12.388   6.662  1.00  0.00     0.217 C 
BRANCH  21  22
HETATM   22  C   UNL     1      43.636 -13.713   6.921  1.00  0.00    -0.085 C 
HETATM   23  C   UNL     1      43.151 -14.801   7.082  1.00  0.00    -0.078 C 
BRANCH  23  24
HETATM   24  C   UNL     1      42.532 -16.128   7.207  1.00  0.00     0.269 C 
BRANCH  24  25
HETATM   25  O   UNL     1      41.806 -16.471   6.021  1.00  0.00    -0.339 OA
BRANCH  25  26
HETATM   26  C   UNL     1      42.516 -17.100   5.030  1.00  0.00     0.076 A 
HETATM   27  C   UNL     1      42.173 -16.786   3.704  1.00  0.00    -0.021 A 
HETATM   28  C   UNL     1      42.882 -17.393   2.652  1.00  0.00     0.010 A 
HETATM   29  C   UNL     1      43.933 -18.271   2.913  1.00  0.00     0.001 A 
HETATM   30  C   UNL     1      44.287 -18.554   4.227  1.00  0.00     0.003 A 
HETATM   31  C   UNL     1      43.584 -17.968   5.282  1.00  0.00     0.037 A 
BRANCH  27  32
HETATM   32  C   UNL     1      41.030 -15.852   3.373  1.00  0.00     0.067 C 
BRANCH  32  33
HETATM   33  C   UNL     1      40.488 -16.086   1.989  1.00  0.00    -0.032 C 
HETATM   34  C   UNL     1      40.121 -15.114   1.143  1.00  0.00     0.007 C 
ENDBRANCH  32  33
ENDBRANCH  27  32
ENDBRANCH  25  26
ENDBRANCH  24  25
ENDBRANCH  23  24
ENDBRANCH  21  22
ENDBRANCH   2  21
TORSDOF 11
ENDMDL
MODEL 9
REMARK VINA RESULT:      -7.6      6.955     10.044
REMARK  11 active torsions:
REMARK  status: ('A' for Active; 'I' for Inactive)
REMARK    1  A    between atoms: O_2  and  C_3 
REMARK    2  A    between atoms: C_5  and  C_6 
REMARK    3  A    between atoms: C_10  and  C_11 
REMARK       I    between atoms: C_11  and  N_12 
REMARK    4  A    between atoms: N_12  and  C_13 
REMARK    5  A    between atoms: C_13  and  C_14 
REMARK    6  A    between atoms: C_15  and  C_16 
REMARK    7  A    between atoms: C_16  and  O_17 
REMARK    8  A    between atoms: O_17  and  C_18 
REMARK    9  A    between atoms: C_19  and  C_20 
REMARK   10  A    between atoms: C_20  and  C_21 
REMARK   11  A    between atoms: C_29  and  O_30 
ROOT
HETATM    1  C   UNL     1      44.292 -10.926   8.515  1.00  0.00     0.270 C 
HETATM    2  N   UNL     1      43.597 -11.675   7.600  1.00  0.00    -0.345 N 
HETATM    3  O   UNL     1      45.511 -10.993   8.637  1.00  0.00    -0.266 OA
HETATM    4  H   UNL     1      42.590 -11.621   7.568  1.00  0.00     0.163 HD
ENDROOT
BRANCH   1   5
HETATM    5  C   UNL     1      43.494 -10.062   9.343  1.00  0.00     0.120 A 
HETATM    6  N   UNL     1      42.177  -9.824   9.062  1.00  0.00    -0.272 N 
HETATM    7  N   UNL     1      41.585  -8.942   9.881  1.00  0.00    -0.174 NA
HETATM    8  H   UNL     1      41.639 -10.221   8.297  1.00  0.00     0.189 HD
HETATM    9  C   UNL     1      42.542  -8.620  10.762  1.00  0.00     0.092 A 
HETATM   10  C   UNL     1      43.753  -9.306  10.468  1.00  0.00     0.071 A 
BRANCH   9  11
HETATM   11  C   UNL     1      42.332  -7.616  11.800  1.00  0.00     0.030 A 
HETATM   12  C   UNL     1      42.503  -6.263  11.461  1.00  0.00     0.053 A 
HETATM   13  C   UNL     1      42.291  -5.251  12.399  1.00  0.00     0.069 A 
HETATM   14  C   UNL     1      41.914  -5.593  13.696  1.00  0.00     0.039 A 
HETATM   15  C   UNL     1      41.749  -6.937  14.050  1.00  0.00     0.040 A 
HETATM   16  C   UNL     1      41.944  -7.952  13.106  1.00  0.00     0.081 A 
BRANCH  13  17
HETATM   17  O   UNL     1      42.495  -3.984  11.926  1.00  0.00    -0.356 OA
HETATM   18  C   UNL     1      42.629  -2.950  12.892  1.00  0.00     0.210 C 
ENDBRANCH  13  17
BRANCH  16  19
HETATM   19  O   UNL     1      41.860  -9.279  13.445  1.00  0.00    -0.355 OA
HETATM   20  C   UNL     1      40.532  -9.794  13.467  1.00  0.00     0.210 C 
ENDBRANCH  16  19
ENDBRANCH   9  11
ENDBRANCH   1   5
BRANCH   2  21
HETATM   21  C   UNL     1      44.246 -12.690   6.812  1.00  0.00     0.217 C 
BRANCH  21  22
HETATM   22  C   UNL     1      43.456 -13.922   6.836  1.00  0.00    -0.085 C 
HETATM   23  C   UNL     1      42.765 -14.905   6.878  1.00  0.00    -0.078 C 
BRANCH  23  24
HETATM   24  C   UNL     1      41.865 -16.064   6.957  1.00  0.00     0.269 C 
BRANCH  24  25
HETATM   25  O   UNL     1      42.156 -17.014   5.925  1.00  0.00    -0.339 OA
BRANCH  25  26
HETATM   26  C   UNL     1      41.825 -16.645   4.646  1.00  0.00     0.076 A 
HETATM   27  C   UNL     1      42.688 -17.065   3.620  1.00  0.00    -0.021 A 
HETATM   28  C   UNL     1      42.385 -16.726   2.289  1.00  0.00     0.010 A 
HETATM   29  C   UNL     1      41.230 -16.009   1.981  1.00  0.00     0.001 A 
HETATM   30  C   UNL     1      40.365 -15.623   2.999  1.00  0.00     0.003 A 
HETATM   31  C   UNL     1      40.659 -15.942   4.326  1.00  0.00     0.037 A 
BRANCH  27  32
HETATM   32  C   UNL     1      43.962 -17.830   3.907  1.00  0.00     0.067 C 
BRANCH  32  33
HETATM   33  C   UNL     1      44.233 -18.890   2.875  1.00  0.00    -0.032 C 
HETATM   34  C   UNL     1      43.416 -19.918   2.610  1.00  0.00     0.007 C 
ENDBRANCH  32  33
ENDBRANCH  27  32
ENDBRANCH  25  26
ENDBRANCH  24  25
ENDBRANCH  23  24
ENDBRANCH  21  22
ENDBRANCH   2  21
TORSDOF 11
ENDMDL
MODEL 10
REMARK VINA RESULT:      -7.4      1.536      2.497
REMARK  11 active torsions:
REMARK  status: ('A' for Active; 'I' for Inactive)
REMARK    1  A    between atoms: O_2  and  C_3 
REMARK    2  A    between atoms: C_5  and  C_6 
REMARK    3  A    between atoms: C_10  and  C_11 
REMARK       I    between atoms: C_11  and  N_12 
REMARK    4  A    between atoms: N_12  and  C_13 
REMARK    5  A    between atoms: C_13  and  C_14 
REMARK    6  A    between atoms: C_15  and  C_16 
REMARK    7  A    between atoms: C_16  and  O_17 
REMARK    8  A    between atoms: O_17  and  C_18 
REMARK    9  A    between atoms: C_19  and  C_20 
REMARK   10  A    between atoms: C_20  and  C_21 
REMARK   11  A    between atoms: C_29  and  O_30 
ROOT
HETATM    1  C   UNL     1      41.880 -12.513   4.954  1.00  0.00     0.270 C 
HETATM    2  N   UNL     1      43.247 -12.603   5.021  1.00  0.00    -0.345 N 
HETATM    3  O   UNL     1      41.160 -12.627   5.940  1.00  0.00    -0.266 OA
HETATM    4  H   UNL     1      43.797 -12.549   4.176  1.00  0.00     0.163 HD
ENDROOT
BRANCH   1   5
HETATM    5  C   UNL     1      41.338 -12.293   3.639  1.00  0.00     0.120 A 
HETATM    6  N   UNL     1      40.134 -11.669   3.461  1.00  0.00    -0.272 N 
HETATM    7  N   UNL     1      39.727 -11.602   2.185  1.00  0.00    -0.174 NA
HETATM    8  H   UNL     1      39.533 -11.293   4.188  1.00  0.00     0.189 HD
HETATM    9  C   UNL     1      40.725 -12.169   1.492  1.00  0.00     0.092 A 
HETATM   10  C   UNL     1      41.760 -12.609   2.364  1.00  0.00     0.071 A 
BRANCH   9  11
HETATM   11  C   UNL     1      40.650 -12.367   0.049  1.00  0.00     0.030 A 
HETATM   12  C   UNL     1      39.965 -13.495  -0.433  1.00  0.00     0.053 A 
HETATM   13  C   UNL     1      39.833 -13.730  -1.803  1.00  0.00     0.069 A 
HETATM   14  C   UNL     1      40.402 -12.833  -2.705  1.00  0.00     0.039 A 
HETATM   15  C   UNL     1      41.095 -11.709  -2.239  1.00  0.00     0.040 A 
HETATM   16  C   UNL     1      41.212 -11.463  -0.866  1.00  0.00     0.081 A 
BRANCH  13  17
HETATM   17  O   UNL     1      39.142 -14.866  -2.123  1.00  0.00    -0.356 OA
HETATM   18  C   UNL     1      38.374 -14.837  -3.319  1.00  0.00     0.210 C 
ENDBRANCH  13  17
BRANCH  16  19
HETATM   19  O   UNL     1      41.948 -10.411  -0.382  1.00  0.00    -0.355 OA
HETATM   20  C   UNL     1      41.238  -9.176  -0.330  1.00  0.00     0.210 C 
ENDBRANCH  16  19
ENDBRANCH   9  11
ENDBRANCH   1   5
BRANCH   2  21
HETATM   21  C   UNL     1      43.917 -12.971   6.241  1.00  0.00     0.217 C 
BRANCH  21  22
HETATM   22  C   UNL     1      43.655 -14.378   6.549  1.00  0.00    -0.085 C 
HETATM   23  C   UNL     1      43.471 -15.547   6.758  1.00  0.00    -0.078 C 
BRANCH  23  24
HETATM   24  C   UNL     1      43.291 -16.993   6.954  1.00  0.00     0.269 C 
BRANCH  24  25
HETATM   25  O   UNL     1      43.242 -17.680   5.698  1.00  0.00    -0.339 OA
BRANCH  25  26
HETATM   26  C   UNL     1      42.445 -17.125   4.729  1.00  0.00     0.076 A 
HETATM   27  C   UNL     1      42.830 -17.332   3.394  1.00  0.00    -0.021 A 
HETATM   28  C   UNL     1      42.038 -16.796   2.363  1.00  0.00     0.010 A 
HETATM   29  C   UNL     1      40.869 -16.095   2.653  1.00  0.00     0.001 A 
HETATM   30  C   UNL     1      40.478 -15.919   3.975  1.00  0.00     0.003 A 
HETATM   31  C   UNL     1      41.261 -16.435   5.010  1.00  0.00     0.037 A 
BRANCH  27  32
HETATM   32  C   UNL     1      44.099 -18.073   3.031  1.00  0.00     0.067 C 
BRANCH  32  33
HETATM   33  C   UNL     1      43.876 -19.556   2.913  1.00  0.00    -0.032 C 
HETATM   34  C   UNL     1      43.140 -20.139   1.958  1.00  0.00     0.007 C 
ENDBRANCH  32  33
ENDBRANCH  27  32
ENDBRANCH  25  26
ENDBRANCH  24  25
ENDBRANCH  23  24
ENDBRANCH  21  22
ENDBRANCH   2  21
TORSDOF 11
ENDMDL
