MODEL 1
REMARK VINA RESULT:      -9.3      0.000      0.000
REMARK  6 active torsions:
REMARK  status: ('A' for Active; 'I' for Inactive)
REMARK    1  A    between atoms: C_5  and  N_6 
REMARK       I    between atoms: N_6  and  C_7 
REMARK    2  A    between atoms: C_7  and  C_8 
REMARK    3  A    between atoms: C_8  and  N_9 
REMARK    4  A    between atoms: C_8  and  C_17 
REMARK       I    between atoms: N_9  and  C_10 
REMARK    5  A    between atoms: C_10  and  C_11 
REMARK    6  A    between atoms: C_17  and  C_18 
ROOT
HETATM    1  C   UNL     1      41.744 -15.035   2.987  1.00  0.00     0.181 C 
ENDROOT
BRANCH   1   2
HETATM    2  C   UNL     1      41.635 -14.019   4.149  1.00  0.00     0.245 C 
HETATM    3  N   UNL     1      42.743 -13.207   4.301  1.00  0.00    -0.325 N 
HETATM    4  H   UNL     1      43.428 -13.240   3.546  1.00  0.00     0.169 HD
HETATM    5  O   UNL     1      40.609 -13.972   4.826  1.00  0.00    -0.271 OA
BRANCH   3   6
HETATM    6  C   UNL     1      43.017 -12.301   5.344  1.00  0.00     0.034 A 
HETATM    7  C   UNL     1      42.401 -11.058   5.484  1.00  0.00     0.030 A 
HETATM    8  C   UNL     1      42.708 -10.231   6.570  1.00  0.00     0.009 A 
HETATM    9  C   UNL     1      43.639 -10.632   7.533  1.00  0.00    -0.062 A 
HETATM   10  C   UNL     1      43.928  -9.765   8.722  1.00  0.00     0.048 C 
HETATM   11  C   UNL     1      44.246 -11.883   7.401  1.00  0.00     0.009 A 
HETATM   12  C   UNL     1      43.943 -12.706   6.312  1.00  0.00     0.030 A 
ENDBRANCH   3   6
ENDBRANCH   1   2
BRANCH   1  13
HETATM   13  N   UNL     1      41.234 -14.455   1.739  1.00  0.00    -0.342 N 
HETATM   14  C   UNL     1      40.242 -15.013   0.967  1.00  0.00     0.276 C 
HETATM   15  O   UNL     1      39.777 -16.125   1.212  1.00  0.00    -0.265 OA
HETATM   16  H   UNL     1      41.586 -13.548   1.450  1.00  0.00     0.163 HD
BRANCH  14  17
HETATM   17  C   UNL     1      39.801 -14.179  -0.129  1.00  0.00     0.142 A 
HETATM   18  O   UNL     1      39.738 -12.819   0.042  1.00  0.00    -0.317 OA
HETATM   19  C   UNL     1      39.274 -12.291  -1.120  1.00  0.00     0.143 A 
HETATM   20  C   UNL     1      39.038 -13.283  -2.041  1.00  0.00     0.027 A 
HETATM   21  C   UNL     1      39.379 -14.501  -1.405  1.00  0.00     0.045 A 
ENDBRANCH  14  17
ENDBRANCH   1  13
BRANCH   1  22
HETATM   22  C   UNL     1      43.143 -15.656   2.827  1.00  0.00     0.075 C 
BRANCH  22  23
HETATM   23  C   UNL     1      43.512 -16.754   3.783  1.00  0.00    -0.028 A 
HETATM   24  C   UNL     1      43.545 -18.148   3.440  1.00  0.00    -0.002 A 
HETATM   25  C   UNL     1      43.971 -18.852   4.567  1.00  0.00     0.042 A 
HETATM   26  C   UNL     1      43.261 -18.873   2.265  1.00  0.00     0.014 A 
HETATM   27  C   UNL     1      44.128 -20.243   4.576  1.00  0.00     0.030 A 
HETATM   28  N   UNL     1      44.183 -17.928   5.560  1.00  0.00    -0.365 N 
HETATM   29  C   UNL     1      43.838 -20.936   3.397  1.00  0.00     0.002 A 
HETATM   30  C   UNL     1      43.408 -20.264   2.257  1.00  0.00     0.001 A 
HETATM   31  H   UNL     1      44.509 -18.150   6.490  1.00  0.00     0.165 HD
HETATM   32  C   UNL     1      43.904 -16.666   5.104  1.00  0.00     0.096 A 
ENDBRANCH  22  23
ENDBRANCH   1  22
TORSDOF 6
ENDMDL
MODEL 2
REMARK VINA RESULT:      -9.1      1.585      2.289
REMARK  6 active torsions:
REMARK  status: ('A' for Active; 'I' for Inactive)
REMARK    1  A    between atoms: C_5  and  N_6 
REMARK       I    between atoms: N_6  and  C_7 
REMARK    2  A    between atoms: C_7  and  C_8 
REMARK    3  A    between atoms: C_8  and  N_9 
REMARK    4  A    between atoms: C_8  and  C_17 
REMARK       I    between atoms: N_9  and  C_10 
REMARK    5  A    between atoms: C_10  and  C_11 
REMARK    6  A    between atoms: C_17  and  C_18 
ROOT
HETATM    1  C   UNL     1      40.771 -14.157   4.912  1.00  0.00     0.181 C 
ENDROOT
BRANCH   1   2
HETATM    2  C   UNL     1      42.131 -13.452   5.133  1.00  0.00     0.245 C 
HETATM    3  N   UNL     1      42.259 -12.833   6.361  1.00  0.00    -0.325 N 
HETATM    4  H   UNL     1      41.533 -13.045   7.046  1.00  0.00     0.169 HD
HETATM    5  O   UNL     1      42.993 -13.499   4.256  1.00  0.00    -0.271 OA
BRANCH   3   6
HETATM    6  C   UNL     1      43.294 -11.987   6.801  1.00  0.00     0.034 A 
HETATM    7  C   UNL     1      44.649 -12.312   6.745  1.00  0.00     0.030 A 
HETATM    8  C   UNL     1      45.618 -11.399   7.175  1.00  0.00     0.009 A 
HETATM    9  C   UNL     1      45.248 -10.145   7.672  1.00  0.00    -0.062 A 
HETATM   10  C   UNL     1      46.290  -9.150   8.085  1.00  0.00     0.048 C 
HETATM   11  C   UNL     1      43.892  -9.813   7.716  1.00  0.00     0.009 A 
HETATM   12  C   UNL     1      42.924 -10.730   7.292  1.00  0.00     0.030 A 
ENDBRANCH   3   6
ENDBRANCH   1   2
BRANCH   1  13
HETATM   13  N   UNL     1      40.471 -14.270   3.479  1.00  0.00    -0.342 N 
HETATM   14  C   UNL     1      39.805 -13.318   2.744  1.00  0.00     0.276 C 
HETATM   15  O   UNL     1      39.299 -12.327   3.271  1.00  0.00    -0.265 OA
HETATM   16  H   UNL     1      40.830 -15.073   2.973  1.00  0.00     0.163 HD
BRANCH  14  17
HETATM   17  C   UNL     1      39.767 -13.582   1.322  1.00  0.00     0.142 A 
HETATM   18  O   UNL     1      39.234 -12.641   0.477  1.00  0.00    -0.317 OA
HETATM   19  C   UNL     1      39.300 -13.151  -0.780  1.00  0.00     0.143 A 
HETATM   20  C   UNL     1      39.868 -14.403  -0.765  1.00  0.00     0.027 A 
HETATM   21  C   UNL     1      40.171 -14.682   0.590  1.00  0.00     0.045 A 
ENDBRANCH  14  17
ENDBRANCH   1  13
BRANCH   1  22
HETATM   22  C   UNL     1      40.632 -15.496   5.656  1.00  0.00     0.075 C 
BRANCH  22  23
HETATM   23  C   UNL     1      41.869 -16.340   5.772  1.00  0.00    -0.028 A 
HETATM   24  C   UNL     1      42.477 -17.042   4.676  1.00  0.00    -0.002 A 
HETATM   25  C   UNL     1      43.621 -17.675   5.159  1.00  0.00     0.042 A 
HETATM   26  C   UNL     1      42.158 -17.183   3.309  1.00  0.00     0.014 A 
HETATM   27  C   UNL     1      44.464 -18.441   4.345  1.00  0.00     0.030 A 
HETATM   28  N   UNL     1      43.708 -17.381   6.497  1.00  0.00    -0.365 N 
HETATM   29  C   UNL     1      44.123 -18.565   2.995  1.00  0.00     0.002 A 
HETATM   30  C   UNL     1      42.986 -17.948   2.482  1.00  0.00     0.001 A 
HETATM   31  H   UNL     1      44.447 -17.698   7.108  1.00  0.00     0.165 HD
HETATM   32  C   UNL     1      42.658 -16.586   6.879  1.00  0.00     0.096 A 
ENDBRANCH  22  23
ENDBRANCH   1  22
TORSDOF 6
ENDMDL
MODEL 3
REMARK VINA RESULT:      -8.9      1.656      6.019
REMARK  6 active torsions:
REMARK  status: ('A' for Active; 'I' for Inactive)
REMARK    1  A    between atoms: C_5  and  N_6 
REMARK       I    between atoms: N_6  and  C_7 
REMARK    2  A    between atoms: C_7  and  C_8 
REMARK    3  A    between atoms: C_8  and  N_9 
REMARK    4  A    between atoms: C_8  and  C_17 
REMARK       I    between atoms: N_9  and  C_10 
REMARK    5  A    between atoms: C_10  and  C_11 
REMARK    6  A    between atoms: C_17  and  C_18 
ROOT
HETATM    1  C   UNL     1      40.724 -13.954   2.051  1.00  0.00     0.181 C 
ENDROOT
BRANCH   1   2
HETATM    2  C   UNL     1      40.939 -15.364   2.650  1.00  0.00     0.245 C 
HETATM    3  N   UNL     1      42.253 -15.657   2.960  1.00  0.00    -0.325 N 
HETATM    4  H   UNL     1      42.905 -14.873   2.927  1.00  0.00     0.169 HD
HETATM    5  O   UNL     1      39.973 -16.104   2.833  1.00  0.00    -0.271 OA
BRANCH   3   6
HETATM    6  C   UNL     1      42.793 -16.891   3.367  1.00  0.00     0.034 A 
HETATM    7  C   UNL     1      43.116 -17.931   2.496  1.00  0.00     0.030 A 
HETATM    8  C   UNL     1      43.679 -19.117   2.981  1.00  0.00     0.009 A 
HETATM    9  C   UNL     1      43.927 -19.283   4.347  1.00  0.00    -0.062 A 
HETATM   10  C   UNL     1      44.577 -20.534   4.858  1.00  0.00     0.048 C 
HETATM   11  C   UNL     1      43.617 -18.237   5.219  1.00  0.00     0.009 A 
HETATM   12  C   UNL     1      43.047 -17.055   4.734  1.00  0.00     0.030 A 
ENDBRANCH   3   6
ENDBRANCH   1   2
BRANCH   1  13
HETATM   13  N   UNL     1      39.876 -14.022   0.854  1.00  0.00    -0.342 N 
HETATM   14  C   UNL     1      40.086 -13.293  -0.293  1.00  0.00     0.276 C 
HETATM   15  O   UNL     1      40.955 -12.425  -0.361  1.00  0.00    -0.265 OA
HETATM   16  H   UNL     1      39.118 -14.695   0.838  1.00  0.00     0.163 HD
BRANCH  14  17
HETATM   17  C   UNL     1      39.213 -13.646  -1.391  1.00  0.00     0.142 A 
HETATM   18  O   UNL     1      38.046 -12.947  -1.576  1.00  0.00    -0.317 OA
HETATM   19  C   UNL     1      37.416 -13.497  -2.646  1.00  0.00     0.143 A 
HETATM   20  C   UNL     1      38.153 -14.536  -3.159  1.00  0.00     0.027 A 
HETATM   21  C   UNL     1      39.313 -14.634  -2.353  1.00  0.00     0.045 A 
ENDBRANCH  14  17
ENDBRANCH   1  13
BRANCH   1  22
HETATM   22  C   UNL     1      40.235 -12.909   3.068  1.00  0.00     0.075 C 
BRANCH  22  23
HETATM   23  C   UNL     1      41.269 -11.983   3.642  1.00  0.00    -0.028 A 
HETATM   24  C   UNL     1      42.130 -12.315   4.743  1.00  0.00    -0.002 A 
HETATM   25  C   UNL     1      42.978 -11.229   4.960  1.00  0.00     0.042 A 
HETATM   26  C   UNL     1      42.269 -13.450   5.567  1.00  0.00     0.014 A 
HETATM   27  C   UNL     1      43.959 -11.222   5.959  1.00  0.00     0.030 A 
HETATM   28  N   UNL     1      42.646 -10.270   4.036  1.00  0.00    -0.365 N 
HETATM   29  C   UNL     1      44.075 -12.360   6.762  1.00  0.00     0.002 A 
HETATM   30  C   UNL     1      43.242 -13.459   6.573  1.00  0.00     0.001 A 
HETATM   31  H   UNL     1      43.105  -9.374   3.948  1.00  0.00     0.165 HD
HETATM   32  C   UNL     1      41.617 -10.708   3.243  1.00  0.00     0.096 A 
ENDBRANCH  22  23
ENDBRANCH   1  22
TORSDOF 6
ENDMDL
MODEL 4
REMARK VINA RESULT:      -8.9      2.026      5.980
REMARK  6 active torsions:
REMARK  status: ('A' for Active; 'I' for Inactive)
REMARK    1  A    between atoms: C_5  and  N_6 
REMARK       I    between atoms: N_6  and  C_7 
REMARK    2  A    between atoms: C_7  and  C_8 
REMARK    3  A    between atoms: C_8  and  N_9 
REMARK    4  A    between atoms: C_8  and  C_17 
REMARK       I    between atoms: N_9  and  C_10 
REMARK    5  A    between atoms: C_10  and  C_11 
REMARK    6  A    between atoms: C_17  and  C_18 
ROOT
HETATM    1  C   UNL     1      42.650 -13.286   2.822  1.00  0.00     0.181 C 
ENDROOT
BRANCH   1   2
HETATM    2  C   UNL     1      43.337 -12.187   3.668  1.00  0.00     0.245 C 
HETATM    3  N   UNL     1      43.526 -12.524   4.995  1.00  0.00    -0.325 N 
HETATM    4  H   UNL     1      43.357 -13.501   5.236  1.00  0.00     0.169 HD
HETATM    5  O   UNL     1      43.685 -11.134   3.135  1.00  0.00    -0.271 OA
BRANCH   3   6
HETATM    6  C   UNL     1      43.973 -11.698   6.043  1.00  0.00     0.034 A 
HETATM    7  C   UNL     1      43.129 -10.975   6.885  1.00  0.00     0.030 A 
HETATM    8  C   UNL     1      43.656 -10.201   7.926  1.00  0.00     0.009 A 
HETATM    9  C   UNL     1      45.036 -10.135   8.140  1.00  0.00    -0.062 A 
HETATM   10  C   UNL     1      45.594  -9.345   9.286  1.00  0.00     0.048 C 
HETATM   11  C   UNL     1      45.882 -10.870   7.305  1.00  0.00     0.009 A 
HETATM   12  C   UNL     1      45.354 -11.638   6.261  1.00  0.00     0.030 A 
ENDBRANCH   3   6
ENDBRANCH   1   2
BRANCH   1  13
HETATM   13  N   UNL     1      42.850 -14.609   3.428  1.00  0.00    -0.342 N 
HETATM   14  C   UNL     1      43.319 -15.712   2.754  1.00  0.00     0.276 C 
HETATM   15  O   UNL     1      43.503 -15.700   1.538  1.00  0.00    -0.265 OA
HETATM   16  H   UNL     1      42.694 -14.711   4.425  1.00  0.00     0.163 HD
BRANCH  14  17
HETATM   17  C   UNL     1      43.580 -16.857   3.598  1.00  0.00     0.142 A 
HETATM   18  O   UNL     1      43.693 -16.683   4.954  1.00  0.00    -0.317 OA
HETATM   19  C   UNL     1      43.961 -17.901   5.493  1.00  0.00     0.143 A 
HETATM   20  C   UNL     1      44.021 -18.861   4.511  1.00  0.00     0.027 A 
HETATM   21  C   UNL     1      43.774 -18.190   3.289  1.00  0.00     0.045 A 
ENDBRANCH  14  17
ENDBRANCH   1  13
BRANCH   1  22
HETATM   22  C   UNL     1      41.174 -12.996   2.499  1.00  0.00     0.075 C 
BRANCH  22  23
HETATM   23  C   UNL     1      40.582 -13.718   1.323  1.00  0.00    -0.028 A 
HETATM   24  C   UNL     1      40.615 -13.229  -0.028  1.00  0.00    -0.002 A 
HETATM   25  C   UNL     1      40.008 -14.186  -0.840  1.00  0.00     0.042 A 
HETATM   26  C   UNL     1      41.119 -12.058  -0.631  1.00  0.00     0.014 A 
HETATM   27  C   UNL     1      39.881 -14.032  -2.226  1.00  0.00     0.030 A 
HETATM   28  N   UNL     1      39.613 -15.215  -0.022  1.00  0.00    -0.365 N 
HETATM   29  C   UNL     1      40.389 -12.862  -2.798  1.00  0.00     0.002 A 
HETATM   30  C   UNL     1      40.997 -11.886  -2.014  1.00  0.00     0.001 A 
HETATM   31  H   UNL     1      39.153 -16.057  -0.339  1.00  0.00     0.165 HD
HETATM   32  C   UNL     1      39.946 -14.943   1.280  1.00  0.00     0.096 A 
ENDBRANCH  22  23
ENDBRANCH   1  22
TORSDOF 6
ENDMDL
MODEL 5
REMARK VINA RESULT:      -8.8      2.468      7.393
REMARK  6 active torsions:
REMARK  status: ('A' for Active; 'I' for Inactive)
REMARK    1  A    between atoms: C_5  and  N_6 
REMARK       I    between atoms: N_6  and  C_7 
REMARK    2  A    between atoms: C_7  and  C_8 
REMARK    3  A    between atoms: C_8  and  N_9 
REMARK    4  A    between atoms: C_8  and  C_17 
REMARK       I    between atoms: N_9  and  C_10 
REMARK    5  A    between atoms: C_10  and  C_11 
REMARK    6  A    between atoms: C_17  and  C_18 
ROOT
HETATM    1  C   UNL     1      40.956 -13.864   6.207  1.00  0.00     0.181 C 
ENDROOT
BRANCH   1   2
HETATM    2  C   UNL     1      41.375 -15.318   5.880  1.00  0.00     0.245 C 
HETATM    3  N   UNL     1      42.369 -15.424   4.926  1.00  0.00    -0.325 N 
HETATM    4  H   UNL     1      42.835 -14.554   4.668  1.00  0.00     0.169 HD
HETATM    5  O   UNL     1      40.844 -16.255   6.476  1.00  0.00    -0.271 OA
BRANCH   3   6
HETATM    6  C   UNL     1      42.852 -16.591   4.305  1.00  0.00     0.034 A 
HETATM    7  C   UNL     1      43.678 -17.526   4.930  1.00  0.00     0.030 A 
HETATM    8  C   UNL     1      44.089 -18.678   4.250  1.00  0.00     0.009 A 
HETATM    9  C   UNL     1      43.683 -18.913   2.932  1.00  0.00    -0.062 A 
HETATM   10  C   UNL     1      44.084 -20.172   2.224  1.00  0.00     0.048 C 
HETATM   11  C   UNL     1      42.845 -17.984   2.311  1.00  0.00     0.009 A 
HETATM   12  C   UNL     1      42.440 -16.830   2.990  1.00  0.00     0.030 A 
ENDBRANCH   3   6
ENDBRANCH   1   2
BRANCH   1  13
HETATM   13  N   UNL     1      42.138 -13.009   6.374  1.00  0.00    -0.342 N 
HETATM   14  C   UNL     1      43.230 -13.329   7.146  1.00  0.00     0.276 C 
HETATM   15  O   UNL     1      43.248 -14.329   7.861  1.00  0.00    -0.265 OA
HETATM   16  H   UNL     1      42.190 -12.149   5.838  1.00  0.00     0.163 HD
BRANCH  14  17
HETATM   17  C   UNL     1      44.333 -12.401   7.029  1.00  0.00     0.142 A 
HETATM   18  O   UNL     1      44.708 -11.659   8.121  1.00  0.00    -0.317 OA
HETATM   19  C   UNL     1      45.738 -10.865   7.730  1.00  0.00     0.143 A 
HETATM   20  C   UNL     1      46.038 -11.079   6.406  1.00  0.00     0.027 A 
HETATM   21  C   UNL     1      45.135 -12.071   5.952  1.00  0.00     0.045 A 
ENDBRANCH  14  17
ENDBRANCH   1  13
BRANCH   1  22
HETATM   22  C   UNL     1      39.927 -13.274   5.228  1.00  0.00     0.075 C 
BRANCH  22  23
HETATM   23  C   UNL     1      40.444 -12.812   3.895  1.00  0.00    -0.028 A 
HETATM   24  C   UNL     1      40.343 -13.571   2.680  1.00  0.00    -0.002 A 
HETATM   25  C   UNL     1      40.892 -12.804   1.654  1.00  0.00     0.042 A 
HETATM   26  C   UNL     1      39.820 -14.841   2.362  1.00  0.00     0.014 A 
HETATM   27  C   UNL     1      40.944 -13.241   0.325  1.00  0.00     0.030 A 
HETATM   28  N   UNL     1      41.320 -11.627   2.217  1.00  0.00    -0.365 N 
HETATM   29  C   UNL     1      40.419 -14.505   0.038  1.00  0.00     0.002 A 
HETATM   30  C   UNL     1      39.866 -15.297   1.040  1.00  0.00     0.001 A 
HETATM   31  H   UNL     1      41.752 -10.870   1.706  1.00  0.00     0.165 HD
HETATM   32  C   UNL     1      41.063 -11.623   3.564  1.00  0.00     0.096 A 
ENDBRANCH  22  23
ENDBRANCH   1  22
TORSDOF 6
ENDMDL
MODEL 6
REMARK VINA RESULT:      -8.7      1.777      2.439
REMARK  6 active torsions:
REMARK  status: ('A' for Active; 'I' for Inactive)
REMARK    1  A    between atoms: C_5  and  N_6 
REMARK       I    between atoms: N_6  and  C_7 
REMARK    2  A    between atoms: C_7  and  C_8 
REMARK    3  A    between atoms: C_8  and  N_9 
REMARK    4  A    between atoms: C_8  and  C_17 
REMARK       I    between atoms: N_9  and  C_10 
REMARK    5  A    between atoms: C_10  and  C_11 
REMARK    6  A    between atoms: C_17  and  C_18 
ROOT
HETATM    1  C   UNL     1      43.040 -15.580   5.755  1.00  0.00     0.181 C 
ENDROOT
BRANCH   1   2
HETATM    2  C   UNL     1      43.227 -14.393   6.730  1.00  0.00     0.245 C 
HETATM    3  N   UNL     1      43.423 -13.173   6.111  1.00  0.00    -0.325 N 
HETATM    4  H   UNL     1      43.256 -13.150   5.105  1.00  0.00     0.169 HD
HETATM    5  O   UNL     1      43.168 -14.584   7.944  1.00  0.00    -0.271 OA
BRANCH   3   6
HETATM    6  C   UNL     1      43.775 -11.947   6.706  1.00  0.00     0.034 A 
HETATM    7  C   UNL     1      42.871 -10.920   6.976  1.00  0.00     0.030 A 
HETATM    8  C   UNL     1      43.299  -9.742   7.601  1.00  0.00     0.009 A 
HETATM    9  C   UNL     1      44.638  -9.571   7.963  1.00  0.00    -0.062 A 
HETATM   10  C   UNL     1      45.084  -8.330   8.677  1.00  0.00     0.048 C 
HETATM   11  C   UNL     1      45.542 -10.605   7.705  1.00  0.00     0.009 A 
HETATM   12  C   UNL     1      45.114 -11.779   7.075  1.00  0.00     0.030 A 
ENDBRANCH   3   6
ENDBRANCH   1   2
BRANCH   1  13
HETATM   13  N   UNL     1      42.584 -15.107   4.442  1.00  0.00    -0.342 N 
HETATM   14  C   UNL     1      41.481 -15.591   3.778  1.00  0.00     0.276 C 
HETATM   15  O   UNL     1      40.845 -16.558   4.195  1.00  0.00    -0.265 OA
HETATM   16  H   UNL     1      43.071 -14.327   4.014  1.00  0.00     0.163 HD
BRANCH  14  17
HETATM   17  C   UNL     1      41.142 -14.861   2.576  1.00  0.00     0.142 A 
HETATM   18  O   UNL     1      41.763 -13.665   2.317  1.00  0.00    -0.317 OA
HETATM   19  C   UNL     1      41.246 -13.190   1.155  1.00  0.00     0.143 A 
HETATM   20  C   UNL     1      40.303 -14.056   0.656  1.00  0.00     0.027 A 
HETATM   21  C   UNL     1      40.235 -15.135   1.570  1.00  0.00     0.045 A 
ENDBRANCH  14  17
ENDBRANCH   1  13
BRANCH   1  22
HETATM   22  C   UNL     1      44.260 -16.512   5.661  1.00  0.00     0.075 C 
BRANCH  22  23
HETATM   23  C   UNL     1      43.984 -17.984   5.555  1.00  0.00    -0.028 A 
HETATM   24  C   UNL     1      43.938 -18.712   4.318  1.00  0.00    -0.002 A 
HETATM   25  C   UNL     1      43.700 -20.052   4.622  1.00  0.00     0.042 A 
HETATM   26  C   UNL     1      44.090 -18.349   2.964  1.00  0.00     0.014 A 
HETATM   27  C   UNL     1      43.608 -21.047   3.642  1.00  0.00     0.030 A 
HETATM   28  N   UNL     1      43.597 -20.141   5.988  1.00  0.00    -0.365 N 
HETATM   29  C   UNL     1      43.762 -20.659   2.308  1.00  0.00     0.002 A 
HETATM   30  C   UNL     1      43.997 -19.329   1.970  1.00  0.00     0.001 A 
HETATM   31  H   UNL     1      43.436 -20.998   6.498  1.00  0.00     0.165 HD
HETATM   32  C   UNL     1      43.759 -18.904   6.559  1.00  0.00     0.096 A 
ENDBRANCH  22  23
ENDBRANCH   1  22
TORSDOF 6
ENDMDL
MODEL 7
REMARK VINA RESULT:      -8.5      1.806      6.394
REMARK  6 active torsions:
REMARK  status: ('A' for Active; 'I' for Inactive)
REMARK    1  A    between atoms: C_5  and  N_6 
REMARK       I    between atoms: N_6  and  C_7 
REMARK    2  A    between atoms: C_7  and  C_8 
REMARK    3  A    between atoms: C_8  and  N_9 
REMARK    4  A    between atoms: C_8  and  C_17 
REMARK       I    between atoms: N_9  and  C_10 
REMARK    5  A    between atoms: C_10  and  C_11 
REMARK    6  A    between atoms: C_17  and  C_18 
ROOT
HETATM    1  C   UNL     1      42.775 -13.852   4.939  1.00  0.00     0.181 C 
ENDROOT
BRANCH   1   2
HETATM    2  C   UNL     1      42.533 -13.622   3.428  1.00  0.00     0.245 C 
HETATM    3  N   UNL     1      41.226 -13.816   3.024  1.00  0.00    -0.325 N 
HETATM    4  H   UNL     1      40.538 -13.918   3.771  1.00  0.00     0.169 HD
HETATM    5  O   UNL     1      43.465 -13.271   2.707  1.00  0.00    -0.271 OA
BRANCH   3   6
HETATM    6  C   UNL     1      40.719 -13.838   1.711  1.00  0.00     0.034 A 
HETATM    7  C   UNL     1      40.644 -12.720   0.882  1.00  0.00     0.030 A 
HETATM    8  C   UNL     1      40.155 -12.835  -0.425  1.00  0.00     0.009 A 
HETATM    9  C   UNL     1      39.731 -14.071  -0.923  1.00  0.00    -0.062 A 
HETATM   10  C   UNL     1      39.255 -14.201  -2.338  1.00  0.00     0.048 C 
HETATM   11  C   UNL     1      39.818 -15.195  -0.097  1.00  0.00     0.009 A 
HETATM   12  C   UNL     1      40.301 -15.077   1.211  1.00  0.00     0.030 A 
ENDBRANCH   3   6
ENDBRANCH   1   2
BRANCH   1  13
HETATM   13  N   UNL     1      42.622 -12.598   5.687  1.00  0.00    -0.342 N 
HETATM   14  C   UNL     1      43.599 -12.035   6.473  1.00  0.00     0.276 C 
HETATM   15  O   UNL     1      44.660 -12.613   6.705  1.00  0.00    -0.265 OA
HETATM   16  H   UNL     1      41.764 -12.070   5.572  1.00  0.00     0.163 HD
BRANCH  14  17
HETATM   17  C   UNL     1      43.271 -10.721   6.981  1.00  0.00     0.142 A 
HETATM   18  O   UNL     1      42.240 -10.016   6.411  1.00  0.00    -0.317 OA
HETATM   19  C   UNL     1      42.167  -8.823   7.055  1.00  0.00     0.143 A 
HETATM   20  C   UNL     1      43.129  -8.742   8.033  1.00  0.00     0.027 A 
HETATM   21  C   UNL     1      43.841  -9.965   7.989  1.00  0.00     0.045 A 
ENDBRANCH  14  17
ENDBRANCH   1  13
BRANCH   1  22
HETATM   22  C   UNL     1      41.950 -15.005   5.537  1.00  0.00     0.075 C 
BRANCH  22  23
HETATM   23  C   UNL     1      42.644 -16.329   5.688  1.00  0.00    -0.028 A 
HETATM   24  C   UNL     1      42.977 -17.198   4.594  1.00  0.00    -0.002 A 
HETATM   25  C   UNL     1      43.646 -18.303   5.119  1.00  0.00     0.042 A 
HETATM   26  C   UNL     1      42.776 -17.135   3.200  1.00  0.00     0.014 A 
HETATM   27  C   UNL     1      44.127 -19.348   4.320  1.00  0.00     0.030 A 
HETATM   28  N   UNL     1      43.715 -18.123   6.478  1.00  0.00    -0.365 N 
HETATM   29  C   UNL     1      43.913 -19.260   2.941  1.00  0.00     0.002 A 
HETATM   30  C   UNL     1      43.246 -18.172   2.386  1.00  0.00     0.001 A 
HETATM   31  H   UNL     1      44.158 -18.764   7.121  1.00  0.00     0.165 HD
HETATM   32  C   UNL     1      43.110 -16.944   6.833  1.00  0.00     0.096 A 
ENDBRANCH  22  23
ENDBRANCH   1  22
TORSDOF 6
ENDMDL
MODEL 8
REMARK VINA RESULT:      -8.5      1.697      7.742
REMARK  6 active torsions:
REMARK  status: ('A' for Active; 'I' for Inactive)
REMARK    1  A    between atoms: C_5  and  N_6 
REMARK       I    between atoms: N_6  and  C_7 
REMARK    2  A    between atoms: C_7  and  C_8 
REMARK    3  A    between atoms: C_8  and  N_9 
REMARK    4  A    between atoms: C_8  and  C_17 
REMARK       I    between atoms: N_9  and  C_10 
REMARK    5  A    between atoms: C_10  and  C_11 
REMARK    6  A    between atoms: C_17  and  C_18 
ROOT
HETATM    1  C   UNL     1      41.667 -13.633   3.317  1.00  0.00     0.181 C 
ENDROOT
BRANCH   1   2
HETATM    2  C   UNL     1      41.719 -15.140   3.664  1.00  0.00     0.245 C 
HETATM    3  N   UNL     1      42.873 -15.779   3.253  1.00  0.00    -0.325 N 
HETATM    4  H   UNL     1      43.628 -15.174   2.929  1.00  0.00     0.169 HD
HETATM    5  O   UNL     1      40.787 -15.658   4.278  1.00  0.00    -0.271 OA
BRANCH   3   6
HETATM    6  C   UNL     1      43.155 -17.158   3.278  1.00  0.00     0.034 A 
HETATM    7  C   UNL     1      42.914 -18.026   2.213  1.00  0.00     0.030 A 
HETATM    8  C   UNL     1      43.254 -19.380   2.308  1.00  0.00     0.009 A 
HETATM    9  C   UNL     1      43.839 -19.890   3.472  1.00  0.00    -0.062 A 
HETATM   10  C   UNL     1      44.248 -21.330   3.553  1.00  0.00     0.048 C 
HETATM   11  C   UNL     1      44.093 -19.019   4.534  1.00  0.00     0.009 A 
HETATM   12  C   UNL     1      43.747 -17.666   4.440  1.00  0.00     0.030 A 
ENDBRANCH   3   6
ENDBRANCH   1   2
BRANCH   1  13
HETATM   13  N   UNL     1      42.511 -12.859   4.237  1.00  0.00    -0.342 N 
HETATM   14  C   UNL     1      42.133 -12.465   5.498  1.00  0.00     0.276 C 
HETATM   15  O   UNL     1      40.990 -12.639   5.918  1.00  0.00    -0.265 OA
HETATM   16  H   UNL     1      43.463 -12.649   3.955  1.00  0.00     0.163 HD
BRANCH  14  17
HETATM   17  C   UNL     1      43.191 -11.851   6.272  1.00  0.00     0.142 A 
HETATM   18  O   UNL     1      42.892 -10.805   7.108  1.00  0.00    -0.317 OA
HETATM   19  C   UNL     1      44.057 -10.408   7.683  1.00  0.00     0.143 A 
HETATM   20  C   UNL     1      45.104 -11.179   7.236  1.00  0.00     0.027 A 
HETATM   21  C   UNL     1      44.547 -12.112   6.328  1.00  0.00     0.045 A 
ENDBRANCH  14  17
ENDBRANCH   1  13
BRANCH   1  22
HETATM   22  C   UNL     1      41.954 -13.319   1.839  1.00  0.00     0.075 C 
BRANCH  22  23
HETATM   23  C   UNL     1      40.972 -13.844   0.831  1.00  0.00    -0.028 A 
HETATM   24  C   UNL     1      40.655 -13.190  -0.408  1.00  0.00    -0.002 A 
HETATM   25  C   UNL     1      39.742 -13.993  -1.091  1.00  0.00     0.042 A 
HETATM   26  C   UNL     1      41.074 -11.987  -1.013  1.00  0.00     0.014 A 
HETATM   27  C   UNL     1      39.230 -13.655  -2.349  1.00  0.00     0.030 A 
HETATM   28  N   UNL     1      39.504 -15.090  -0.301  1.00  0.00    -0.365 N 
HETATM   29  C   UNL     1      39.662 -12.457  -2.925  1.00  0.00     0.002 A 
HETATM   30  C   UNL     1      40.569 -11.632  -2.268  1.00  0.00     0.001 A 
HETATM   31  H   UNL     1      38.889 -15.853  -0.548  1.00  0.00     0.165 HD
HETATM   32  C   UNL     1      40.231 -15.009   0.858  1.00  0.00     0.096 A 
ENDBRANCH  22  23
ENDBRANCH   1  22
TORSDOF 6
ENDMDL
MODEL 9
REMARK VINA RESULT:      -8.4      2.161      7.829
REMARK  6 active torsions:
REMARK  status: ('A' for Active; 'I' for Inactive)
REMARK    1  A    between atoms: C_5  and  N_6 
REMARK       I    between atoms: N_6  and  C_7 
REMARK    2  A    between atoms: C_7  and  C_8 
REMARK    3  A    between atoms: C_8  and  N_9 
REMARK    4  A    between atoms: C_8  and  C_17 
REMARK       I    between atoms: N_9  and  C_10 
REMARK    5  A    between atoms: C_10  and  C_11 
REMARK    6  A    between atoms: C_17  and  C_18 
ROOT
HETATM    1  C   UNL     1      42.273 -12.798   4.244  1.00  0.00     0.181 C 
ENDROOT
BRANCH   1   2
HETATM    2  C   UNL     1      42.095 -14.335   4.263  1.00  0.00     0.245 C 
HETATM    3  N   UNL     1      43.182 -15.041   3.784  1.00  0.00    -0.325 N 
HETATM    4  H   UNL     1      44.034 -14.501   3.634  1.00  0.00     0.169 HD
HETATM    5  O   UNL     1      41.056 -14.825   4.706  1.00  0.00    -0.271 OA
BRANCH   3   6
HETATM    6  C   UNL     1      43.273 -16.422   3.528  1.00  0.00     0.034 A 
HETATM    7  C   UNL     1      42.821 -17.034   2.359  1.00  0.00     0.030 A 
HETATM    8  C   UNL     1      42.980 -18.411   2.170  1.00  0.00     0.009 A 
HETATM    9  C   UNL     1      43.592 -19.201   3.149  1.00  0.00    -0.062 A 
HETATM   10  C   UNL     1      43.806 -20.668   2.922  1.00  0.00     0.048 C 
HETATM   11  C   UNL     1      44.058 -18.587   4.314  1.00  0.00     0.009 A 
HETATM   12  C   UNL     1      43.892 -17.211   4.504  1.00  0.00     0.030 A 
ENDBRANCH   3   6
ENDBRANCH   1   2
BRANCH   1  13
HETATM   13  N   UNL     1      42.997 -12.344   5.438  1.00  0.00    -0.342 N 
HETATM   14  C   UNL     1      44.151 -11.598   5.414  1.00  0.00     0.276 C 
HETATM   15  O   UNL     1      44.739 -11.345   4.363  1.00  0.00    -0.265 OA
HETATM   16  H   UNL     1      42.593 -12.536   6.348  1.00  0.00     0.163 HD
BRANCH  14  17
HETATM   17  C   UNL     1      44.591 -11.139   6.713  1.00  0.00     0.142 A 
HETATM   18  O   UNL     1      43.666 -10.957   7.711  1.00  0.00    -0.317 OA
HETATM   19  C   UNL     1      44.339 -10.505   8.801  1.00  0.00     0.143 A 
HETATM   20  C   UNL     1      45.681 -10.392   8.528  1.00  0.00     0.027 A 
HETATM   21  C   UNL     1      45.846 -10.802   7.183  1.00  0.00     0.045 A 
ENDBRANCH  14  17
ENDBRANCH   1  13
BRANCH   1  22
HETATM   22  C   UNL     1      42.877 -12.254   2.938  1.00  0.00     0.075 C 
BRANCH  22  23
HETATM   23  C   UNL     1      41.912 -11.798   1.882  1.00  0.00    -0.028 A 
HETATM   24  C   UNL     1      41.168 -12.682   1.028  1.00  0.00    -0.002 A 
HETATM   25  C   UNL     1      40.353 -11.898   0.213  1.00  0.00     0.042 A 
HETATM   26  C   UNL     1      41.109 -14.083   0.887  1.00  0.00     0.014 A 
HETATM   27  C   UNL     1      39.480 -12.445  -0.735  1.00  0.00     0.030 A 
HETATM   28  N   UNL     1      40.592 -10.588   0.547  1.00  0.00    -0.365 N 
HETATM   29  C   UNL     1      39.443 -13.837  -0.856  1.00  0.00     0.002 A 
HETATM   30  C   UNL     1      40.246 -14.647  -0.059  1.00  0.00     0.001 A 
HETATM   31  H   UNL     1      40.131  -9.794   0.125  1.00  0.00     0.165 HD
HETATM   32  C   UNL     1      41.531 -10.514   1.543  1.00  0.00     0.096 A 
ENDBRANCH  22  23
ENDBRANCH   1  22
TORSDOF 6
ENDMDL
MODEL 10
REMARK VINA RESULT:      -8.4      2.767      6.949
REMARK  6 active torsions:
REMARK  status: ('A' for Active; 'I' for Inactive)
REMARK    1  A    between atoms: C_5  and  N_6 
REMARK       I    between atoms: N_6  and  C_7 
REMARK    2  A    between atoms: C_7  and  C_8 
REMARK    3  A    between atoms: C_8  and  N_9 
REMARK    4  A    between atoms: C_8  and  C_17 
REMARK       I    between atoms: N_9  and  C_10 
REMARK    5  A    between atoms: C_10  and  C_11 
REMARK    6  A    between atoms: C_17  and  C_18 
ROOT
HETATM    1  C   UNL     1      43.319 -12.928   6.434  1.00  0.00     0.181 C 
ENDROOT
BRANCH   1   2
HETATM    2  C   UNL     1      42.554 -12.271   5.260  1.00  0.00     0.245 C 
HETATM    3  N   UNL     1      41.178 -12.352   5.361  1.00  0.00    -0.325 N 
HETATM    4  H   UNL     1      40.814 -12.672   6.259  1.00  0.00     0.169 HD
HETATM    5  O   UNL     1      43.179 -11.717   4.357  1.00  0.00    -0.271 OA
BRANCH   3   6
HETATM    6  C   UNL     1      40.217 -11.996   4.396  1.00  0.00     0.034 A 
HETATM    7  C   UNL     1      39.739 -10.700   4.207  1.00  0.00     0.030 A 
HETATM    8  C   UNL     1      38.804 -10.426   3.202  1.00  0.00     0.009 A 
HETATM    9  C   UNL     1      38.330 -11.446   2.370  1.00  0.00    -0.062 A 
HETATM   10  C   UNL     1      37.367 -11.141   1.263  1.00  0.00     0.048 C 
HETATM   11  C   UNL     1      38.818 -12.742   2.551  1.00  0.00     0.009 A 
HETATM   12  C   UNL     1      39.747 -13.016   3.560  1.00  0.00     0.030 A 
ENDBRANCH   3   6
ENDBRANCH   1   2
BRANCH   1  13
HETATM   13  N   UNL     1      43.389 -12.016   7.583  1.00  0.00    -0.342 N 
HETATM   14  C   UNL     1      44.487 -11.256   7.910  1.00  0.00     0.276 C 
HETATM   15  O   UNL     1      45.557 -11.371   7.314  1.00  0.00    -0.265 OA
HETATM   16  H   UNL     1      42.555 -11.884   8.145  1.00  0.00     0.163 HD
BRANCH  14  17
HETATM   17  C   UNL     1      44.263 -10.320   8.990  1.00  0.00     0.142 A 
HETATM   18  O   UNL     1      43.493  -9.206   8.767  1.00  0.00    -0.317 OA
HETATM   19  C   UNL     1      43.469  -8.499   9.926  1.00  0.00     0.143 A 
HETATM   20  C   UNL     1      44.207  -9.134  10.896  1.00  0.00     0.027 A 
HETATM   21  C   UNL     1      44.719 -10.310  10.295  1.00  0.00     0.045 A 
ENDBRANCH  14  17
ENDBRANCH   1  13
BRANCH   1  22
HETATM   22  C   UNL     1      42.803 -14.326   6.814  1.00  0.00     0.075 C 
BRANCH  22  23
HETATM   23  C   UNL     1      43.421 -15.495   6.101  1.00  0.00    -0.028 A 
HETATM   24  C   UNL     1      42.933 -16.040   4.865  1.00  0.00    -0.002 A 
HETATM   25  C   UNL     1      43.784 -17.081   4.495  1.00  0.00     0.042 A 
HETATM   26  C   UNL     1      41.845 -15.731   4.023  1.00  0.00     0.014 A 
HETATM   27  C   UNL     1      43.603 -17.826   3.324  1.00  0.00     0.030 A 
HETATM   28  N   UNL     1      44.750 -17.174   5.466  1.00  0.00    -0.365 N 
HETATM   29  C   UNL     1      42.516 -17.499   2.508  1.00  0.00     0.002 A 
HETATM   30  C   UNL     1      41.646 -16.468   2.851  1.00  0.00     0.001 A 
HETATM   31  H   UNL     1      45.512 -17.837   5.456  1.00  0.00     0.165 HD
HETATM   32  C   UNL     1      44.539 -16.232   6.439  1.00  0.00     0.096 A 
ENDBRANCH  22  23
ENDBRANCH   1  22
TORSDOF 6
ENDMDL
