MODEL 1
REMARK VINA RESULT:      -7.6      0.000      0.000
REMARK  7 active torsions:
REMARK  status: ('A' for Active; 'I' for Inactive)
REMARK    1  A    between atoms: O_2  and  C_3 
REMARK    2  A    between atoms: C_4  and  O_5 
REMARK    3  A    between atoms: O_5  and  C_6 
REMARK       I    between atoms: C_6  and  N_7 
REMARK    4  A    between atoms: C_14  and  O_15 
REMARK    5  A    between atoms: C_18  and  C_19 
REMARK    6  A    between atoms: C_23  and  N_24 
REMARK    7  A    between atoms: C_31  and  C_32 
ROOT
HETATM    1  C   UNL     1      41.532 -13.183   6.020  1.00  0.00     0.105 C 
HETATM    2  C   UNL     1      41.825 -14.580   6.566  1.00  0.00     0.067 C 
HETATM    3  C   UNL     1      40.676 -15.575   6.556  1.00  0.00     0.020 C 
HETATM    4  N   UNL     1      39.723 -16.401   6.547  1.00  0.00    -0.096 N 
HETATM    5  C   UNL     1      42.975 -14.904   7.217  1.00  0.00     0.139 C 
HETATM    6  O   UNL     1      43.979 -13.946   7.460  1.00  0.00    -0.279 OA
HETATM    7  C   UNL     1      43.657 -12.686   7.190  1.00  0.00     0.175 A 
HETATM    8  C   UNL     1      42.537 -12.217   6.550  1.00  0.00     0.040 A 
HETATM    9  N   UNL     1      44.413 -11.608   7.506  1.00  0.00    -0.256 N 
HETATM   10  H   UNL     1      45.312 -11.585   7.977  1.00  0.00     0.191 HD
HETATM   11  N   UNL     1      43.842 -10.447   7.133  1.00  0.00    -0.172 NA
HETATM   12  C   UNL     1      42.668 -10.803   6.575  1.00  0.00     0.099 A 
ENDROOT
BRANCH   1  13
HETATM   13  C   UNL     1      41.608 -13.145   4.495  1.00  0.00    -0.039 A 
HETATM   14  C   UNL     1      40.700 -12.327   3.798  1.00  0.00     0.048 A 
HETATM   15  C   UNL     1      40.665 -12.337   2.403  1.00  0.00     0.105 A 
HETATM   16  C   UNL     1      41.509 -13.187   1.688  1.00  0.00     0.147 A 
HETATM   17  C   UNL     1      42.477 -13.956   2.342  1.00  0.00     0.105 A 
HETATM   18  C   UNL     1      42.490 -13.957   3.741  1.00  0.00     0.048 A 
BRANCH  15  19
HETATM   19  O   UNL     1      39.753 -11.565   1.732  1.00  0.00    -0.353 OA
HETATM   20  C   UNL     1      38.432 -11.844   2.196  1.00  0.00     0.210 C 
ENDBRANCH  15  19
BRANCH  16  21
HETATM   21  O   UNL     1      41.391 -13.214   0.291  1.00  0.00    -0.256 OA
BRANCH  21  22
HETATM   22  C   UNL     1      40.328 -13.993  -0.158  1.00  0.00     0.368 C 
HETATM   23  N   UNL     1      39.554 -13.338  -1.106  1.00  0.00    -0.324 N 
HETATM   24  C   UNL     1      38.675 -14.131  -1.959  1.00  0.00     0.154 C 
HETATM   25  C   UNL     1      39.875 -12.003  -1.608  1.00  0.00     0.154 C 
HETATM   26  C   UNL     1      37.476 -13.317  -2.448  1.00  0.00     0.187 C 
HETATM   27  O   UNL     1      37.894 -12.080  -3.046  1.00  0.00    -0.388 OA
HETATM   28  C   UNL     1      38.612 -11.284  -2.092  1.00  0.00     0.187 C 
HETATM   29  O   UNL     1      40.077 -15.135   0.222  1.00  0.00    -0.238 OA
ENDBRANCH  21  22
ENDBRANCH  16  21
BRANCH  17  30
HETATM   30  O   UNL     1      43.342 -14.657   1.544  1.00  0.00    -0.353 OA
HETATM   31  C   UNL     1      43.273 -16.076   1.590  1.00  0.00     0.210 C 
ENDBRANCH  17  30
ENDBRANCH   1  13
BRANCH   5  32
HETATM   32  N   UNL     1      43.279 -16.134   7.749  1.00  0.00    -0.282 NA
HETATM   33  H   UNL     1      42.673 -16.473   8.492  1.00  0.00     0.126 HD
HETATM   34  H   UNL     1      44.269 -16.246   7.947  1.00  0.00     0.126 HD
ENDBRANCH   5  32
BRANCH  12  35
HETATM   35  C   UNL     1      41.745  -9.787   6.077  1.00  0.00    -0.005 A 
HETATM   36  C   UNL     1      41.966  -9.192   4.827  1.00  0.00     0.015 A 
HETATM   37  C   UNL     1      41.102  -8.204   4.347  1.00  0.00     0.020 A 
HETATM   38  C   UNL     1      40.016  -7.804   5.121  1.00  0.00     0.011 A 
HETATM   39 BR   UNL     1      38.851  -6.460   4.482  1.00  0.00    -0.051 Br
HETATM   40  C   UNL     1      39.787  -8.381   6.370  1.00  0.00     0.020 A 
HETATM   41  C   UNL     1      40.651  -9.370   6.848  1.00  0.00     0.015 A 
ENDBRANCH  12  35
TORSDOF 7
ENDMDL
MODEL 2
REMARK VINA RESULT:      -7.6      3.654      7.681
REMARK  7 active torsions:
REMARK  status: ('A' for Active; 'I' for Inactive)
REMARK    1  A    between atoms: O_2  and  C_3 
REMARK    2  A    between atoms: C_4  and  O_5 
REMARK    3  A    between atoms: O_5  and  C_6 
REMARK       I    between atoms: C_6  and  N_7 
REMARK    4  A    between atoms: C_14  and  O_15 
REMARK    5  A    between atoms: C_18  and  C_19 
REMARK    6  A    between atoms: C_23  and  N_24 
REMARK    7  A    between atoms: C_31  and  C_32 
ROOT
HETATM    1  C   UNL     1      39.868  -9.813   1.295  1.00  0.00     0.105 C 
HETATM    2  C   UNL     1      39.827  -8.641   2.274  1.00  0.00     0.067 C 
HETATM    3  C   UNL     1      38.816  -8.726   3.405  1.00  0.00     0.020 C 
HETATM    4  N   UNL     1      37.978  -8.797   4.344  1.00  0.00    -0.096 N 
HETATM    5  C   UNL     1      40.500  -7.475   2.073  1.00  0.00     0.139 C 
HETATM    6  O   UNL     1      41.269  -7.258   0.914  1.00  0.00    -0.279 OA
HETATM    7  C   UNL     1      41.146  -8.169  -0.045  1.00  0.00     0.175 A 
HETATM    8  C   UNL     1      40.497  -9.377   0.014  1.00  0.00     0.040 A 
HETATM    9  N   UNL     1      41.665  -8.060  -1.291  1.00  0.00    -0.256 N 
HETATM   10  H   UNL     1      42.215  -7.300  -1.680  1.00  0.00     0.191 HD
HETATM   11  N   UNL     1      41.374  -9.119  -2.068  1.00  0.00    -0.172 NA
HETATM   12  C   UNL     1      40.624  -9.924  -1.290  1.00  0.00     0.099 A 
ENDROOT
BRANCH   1  13
HETATM   13  C   UNL     1      40.689 -10.980   1.843  1.00  0.00    -0.039 A 
HETATM   14  C   UNL     1      40.091 -12.251   1.903  1.00  0.00     0.048 A 
HETATM   15  C   UNL     1      40.765 -13.324   2.489  1.00  0.00     0.105 A 
HETATM   16  C   UNL     1      42.027 -13.133   3.052  1.00  0.00     0.147 A 
HETATM   17  C   UNL     1      42.685 -11.903   2.942  1.00  0.00     0.105 A 
HETATM   18  C   UNL     1      41.993 -10.829   2.375  1.00  0.00     0.048 A 
BRANCH  15  19
HETATM   19  O   UNL     1      40.161 -14.551   2.577  1.00  0.00    -0.353 OA
HETATM   20  C   UNL     1      39.958 -15.096   1.274  1.00  0.00     0.210 C 
ENDBRANCH  15  19
BRANCH  16  21
HETATM   21  O   UNL     1      42.637 -14.222   3.690  1.00  0.00    -0.256 OA
BRANCH  21  22
HETATM   22  C   UNL     1      43.185 -15.145   2.804  1.00  0.00     0.368 C 
HETATM   23  N   UNL     1      43.326 -16.405   3.371  1.00  0.00    -0.324 N 
HETATM   24  C   UNL     1      43.490 -17.554   2.486  1.00  0.00     0.154 C 
HETATM   25  C   UNL     1      42.883 -16.719   4.727  1.00  0.00     0.154 C 
HETATM   26  C   UNL     1      44.254 -18.689   3.170  1.00  0.00     0.187 C 
HETATM   27  O   UNL     1      43.669 -19.020   4.439  1.00  0.00    -0.388 OA
HETATM   28  C   UNL     1      43.694 -17.880   5.311  1.00  0.00     0.187 C 
HETATM   29  O   UNL     1      43.515 -14.904   1.645  1.00  0.00    -0.238 OA
ENDBRANCH  21  22
ENDBRANCH  16  21
BRANCH  17  30
HETATM   30  O   UNL     1      43.971 -11.855   3.412  1.00  0.00    -0.353 OA
HETATM   31  C   UNL     1      44.160 -11.473   4.767  1.00  0.00     0.210 C 
ENDBRANCH  17  30
ENDBRANCH   1  13
BRANCH   5  32
HETATM   32  N   UNL     1      40.479  -6.381   2.906  1.00  0.00    -0.282 NA
HETATM   33  H   UNL     1      40.370  -5.473   2.464  1.00  0.00     0.126 HD
HETATM   34  H   UNL     1      41.210  -6.406   3.611  1.00  0.00     0.126 HD
ENDBRANCH   5  32
BRANCH  12  35
HETATM   35  C   UNL     1      40.086 -11.175  -1.816  1.00  0.00    -0.005 A 
HETATM   36  C   UNL     1      38.699 -11.349  -1.926  1.00  0.00     0.015 A 
HETATM   37  C   UNL     1      38.170 -12.550  -2.409  1.00  0.00     0.020 A 
HETATM   38  C   UNL     1      39.029 -13.582  -2.777  1.00  0.00     0.011 A 
HETATM   39 BR   UNL     1      38.317 -15.212  -3.418  1.00  0.00    -0.051 Br
HETATM   40  C   UNL     1      40.410 -13.427  -2.665  1.00  0.00     0.020 A 
HETATM   41  C   UNL     1      40.938 -12.226  -2.183  1.00  0.00     0.015 A 
ENDBRANCH  12  35
TORSDOF 7
ENDMDL
MODEL 3
REMARK VINA RESULT:      -7.5      0.604      2.232
REMARK  7 active torsions:
REMARK  status: ('A' for Active; 'I' for Inactive)
REMARK    1  A    between atoms: O_2  and  C_3 
REMARK    2  A    between atoms: C_4  and  O_5 
REMARK    3  A    between atoms: O_5  and  C_6 
REMARK       I    between atoms: C_6  and  N_7 
REMARK    4  A    between atoms: C_14  and  O_15 
REMARK    5  A    between atoms: C_18  and  C_19 
REMARK    6  A    between atoms: C_23  and  N_24 
REMARK    7  A    between atoms: C_31  and  C_32 
ROOT
HETATM    1  C   UNL     1      41.551 -13.424   5.974  1.00  0.00     0.105 C 
HETATM    2  C   UNL     1      41.769 -14.851   6.475  1.00  0.00     0.067 C 
HETATM    3  C   UNL     1      40.525 -15.687   6.727  1.00  0.00     0.020 C 
HETATM    4  N   UNL     1      39.494 -16.382   6.935  1.00  0.00    -0.096 N 
HETATM    5  C   UNL     1      42.979 -15.325   6.877  1.00  0.00     0.139 C 
HETATM    6  O   UNL     1      44.127 -14.509   6.883  1.00  0.00    -0.279 OA
HETATM    7  C   UNL     1      43.920 -13.216   6.661  1.00  0.00     0.175 A 
HETATM    8  C   UNL     1      42.760 -12.600   6.261  1.00  0.00     0.040 A 
HETATM    9  N   UNL     1      44.858 -12.247   6.789  1.00  0.00    -0.256 N 
HETATM   10  H   UNL     1      45.831 -12.345   7.059  1.00  0.00     0.191 HD
HETATM   11  N   UNL     1      44.376 -11.019   6.519  1.00  0.00    -0.172 NA
HETATM   12  C   UNL     1      43.075 -11.215   6.227  1.00  0.00     0.099 A 
ENDROOT
BRANCH   1  13
HETATM   13  C   UNL     1      41.307 -13.385   4.465  1.00  0.00    -0.039 A 
HETATM   14  C   UNL     1      42.239 -14.011   3.619  1.00  0.00     0.048 A 
HETATM   15  C   UNL     1      42.112 -13.916   2.233  1.00  0.00     0.105 A 
HETATM   16  C   UNL     1      41.076 -13.165   1.675  1.00  0.00     0.147 A 
HETATM   17  C   UNL     1      40.088 -12.593   2.483  1.00  0.00     0.105 A 
HETATM   18  C   UNL     1      40.236 -12.675   3.871  1.00  0.00     0.048 A 
BRANCH  15  19
HETATM   19  O   UNL     1      43.044 -14.498   1.414  1.00  0.00    -0.353 OA
HETATM   20  C   UNL     1      43.119 -15.900   1.670  1.00  0.00     0.210 C 
ENDBRANCH  15  19
BRANCH  16  21
HETATM   21  O   UNL     1      41.028 -13.039   0.280  1.00  0.00    -0.256 OA
BRANCH  21  22
HETATM   22  C   UNL     1      40.075 -13.861  -0.316  1.00  0.00     0.368 C 
HETATM   23  N   UNL     1      39.262 -13.171  -1.205  1.00  0.00    -0.324 N 
HETATM   24  C   UNL     1      38.507 -13.932  -2.195  1.00  0.00     0.154 C 
HETATM   25  C   UNL     1      39.445 -11.754  -1.514  1.00  0.00     0.154 C 
HETATM   26  C   UNL     1      37.239 -13.195  -2.629  1.00  0.00     0.187 C 
HETATM   27  O   UNL     1      37.532 -11.850  -3.040  1.00  0.00    -0.388 OA
HETATM   28  C   UNL     1      38.125 -11.117  -1.957  1.00  0.00     0.187 C 
HETATM   29  O   UNL     1      39.944 -15.064  -0.101  1.00  0.00    -0.238 OA
ENDBRANCH  21  22
ENDBRANCH  16  21
BRANCH  17  30
HETATM   30  O   UNL     1      39.044 -11.987   1.834  1.00  0.00    -0.353 OA
HETATM   31  C   UNL     1      38.883 -10.587   2.016  1.00  0.00     0.210 C 
ENDBRANCH  17  30
ENDBRANCH   1  13
BRANCH   5  32
HETATM   32  N   UNL     1      43.227 -16.589   7.359  1.00  0.00    -0.282 NA
HETATM   33  H   UNL     1      43.162 -16.714   8.365  1.00  0.00     0.126 HD
HETATM   34  H   UNL     1      44.053 -17.014   6.948  1.00  0.00     0.126 HD
ENDBRANCH   5  32
BRANCH  12  35
HETATM   35  C   UNL     1      42.206 -10.085   5.913  1.00  0.00    -0.005 A 
HETATM   36  C   UNL     1      41.520  -9.422   6.940  1.00  0.00     0.015 A 
HETATM   37  C   UNL     1      40.669  -8.352   6.651  1.00  0.00     0.020 A 
HETATM   38  C   UNL     1      40.497  -7.946   5.330  1.00  0.00     0.011 A 
HETATM   39 BR   UNL     1      39.337  -6.507   4.933  1.00  0.00    -0.051 Br
HETATM   40  C   UNL     1      41.165  -8.601   4.296  1.00  0.00     0.020 A 
HETATM   41  C   UNL     1      42.017  -9.670   4.587  1.00  0.00     0.015 A 
ENDBRANCH  12  35
TORSDOF 7
ENDMDL
MODEL 4
REMARK VINA RESULT:      -7.4      3.700      7.535
REMARK  7 active torsions:
REMARK  status: ('A' for Active; 'I' for Inactive)
REMARK    1  A    between atoms: O_2  and  C_3 
REMARK    2  A    between atoms: C_4  and  O_5 
REMARK    3  A    between atoms: O_5  and  C_6 
REMARK       I    between atoms: C_6  and  N_7 
REMARK    4  A    between atoms: C_14  and  O_15 
REMARK    5  A    between atoms: C_18  and  C_19 
REMARK    6  A    between atoms: C_23  and  N_24 
REMARK    7  A    between atoms: C_31  and  C_32 
ROOT
HETATM    1  C   UNL     1      39.761  -9.796   1.661  1.00  0.00     0.105 C 
HETATM    2  C   UNL     1      39.684  -8.568   2.569  1.00  0.00     0.067 C 
HETATM    3  C   UNL     1      38.618  -8.581   3.652  1.00  0.00     0.020 C 
HETATM    4  N   UNL     1      37.735  -8.592   4.551  1.00  0.00    -0.096 N 
HETATM    5  C   UNL     1      40.378  -7.421   2.335  1.00  0.00     0.139 C 
HETATM    6  O   UNL     1      41.205  -7.277   1.205  1.00  0.00    -0.279 OA
HETATM    7  C   UNL     1      41.119  -8.240   0.295  1.00  0.00     0.175 A 
HETATM    8  C   UNL     1      40.455  -9.439   0.391  1.00  0.00     0.040 A 
HETATM    9  N   UNL     1      41.700  -8.207  -0.928  1.00  0.00    -0.256 N 
HETATM   10  H   UNL     1      42.275  -7.475  -1.332  1.00  0.00     0.191 HD
HETATM   11  N   UNL     1      41.436  -9.308  -1.657  1.00  0.00    -0.172 NA
HETATM   12  C   UNL     1      40.640 -10.061  -0.873  1.00  0.00     0.099 A 
ENDROOT
BRANCH   1  13
HETATM   13  C   UNL     1      40.541 -10.935   2.315  1.00  0.00    -0.039 A 
HETATM   14  C   UNL     1      41.906 -10.742   2.592  1.00  0.00     0.048 A 
HETATM   15  C   UNL     1      42.682 -11.787   3.094  1.00  0.00     0.105 A 
HETATM   16  C   UNL     1      42.115 -13.046   3.293  1.00  0.00     0.147 A 
HETATM   17  C   UNL     1      40.745 -13.255   3.103  1.00  0.00     0.105 A 
HETATM   18  C   UNL     1      39.980 -12.209   2.578  1.00  0.00     0.048 A 
BRANCH  15  19
HETATM   19  O   UNL     1      44.020 -11.601   3.327  1.00  0.00    -0.353 OA
HETATM   20  C   UNL     1      44.254 -11.379   4.717  1.00  0.00     0.210 C 
ENDBRANCH  15  19
BRANCH  16  21
HETATM   21  O   UNL     1      42.948 -14.084   3.734  1.00  0.00    -0.256 OA
BRANCH  21  22
HETATM   22  C   UNL     1      43.229 -15.023   2.744  1.00  0.00     0.368 C 
HETATM   23  N   UNL     1      43.372 -16.305   3.257  1.00  0.00    -0.324 N 
HETATM   24  C   UNL     1      43.261 -17.438   2.344  1.00  0.00     0.154 C 
HETATM   25  C   UNL     1      43.182 -16.622   4.671  1.00  0.00     0.154 C 
HETATM   26  C   UNL     1      44.046 -18.651   2.847  1.00  0.00     0.187 C 
HETATM   27  O   UNL     1      43.698 -18.970   4.204  1.00  0.00    -0.388 OA
HETATM   28  C   UNL     1      43.991 -17.861   5.067  1.00  0.00     0.187 C 
HETATM   29  O   UNL     1      43.343 -14.776   1.546  1.00  0.00    -0.238 OA
ENDBRANCH  21  22
ENDBRANCH  16  21
BRANCH  17  30
HETATM   30  O   UNL     1      40.262 -14.490   3.450  1.00  0.00    -0.353 OA
HETATM   31  C   UNL     1      39.834 -15.345   2.399  1.00  0.00     0.210 C 
ENDBRANCH  17  30
ENDBRANCH   1  13
BRANCH   5  32
HETATM   32  N   UNL     1      40.327  -6.281   3.102  1.00  0.00    -0.282 NA
HETATM   33  H   UNL     1      39.659  -6.276   3.868  1.00  0.00     0.126 HD
HETATM   34  H   UNL     1      40.318  -5.431   2.547  1.00  0.00     0.126 HD
ENDBRANCH   5  32
BRANCH  12  35
HETATM   35  C   UNL     1      40.116 -11.336  -1.352  1.00  0.00    -0.005 A 
HETATM   36  C   UNL     1      40.944 -12.206  -2.076  1.00  0.00     0.015 A 
HETATM   37  C   UNL     1      40.448 -13.420  -2.559  1.00  0.00     0.020 A 
HETATM   38  C   UNL     1      39.119 -13.764  -2.324  1.00  0.00     0.011 A 
HETATM   39 BR   UNL     1      38.442 -15.400  -2.986  1.00  0.00    -0.051 Br
HETATM   40  C   UNL     1      38.281 -12.906  -1.614  1.00  0.00     0.020 A 
HETATM   41  C   UNL     1      38.779 -11.692  -1.130  1.00  0.00     0.015 A 
ENDBRANCH  12  35
TORSDOF 7
ENDMDL
MODEL 5
REMARK VINA RESULT:      -7.2     17.562     20.551
REMARK  7 active torsions:
REMARK  status: ('A' for Active; 'I' for Inactive)
REMARK    1  A    between atoms: O_2  and  C_3 
REMARK    2  A    between atoms: C_4  and  O_5 
REMARK    3  A    between atoms: O_5  and  C_6 
REMARK       I    between atoms: C_6  and  N_7 
REMARK    4  A    between atoms: C_14  and  O_15 
REMARK    5  A    between atoms: C_18  and  C_19 
REMARK    6  A    between atoms: C_23  and  N_24 
REMARK    7  A    between atoms: C_31  and  C_32 
ROOT
HETATM    1  C   UNL     1      46.057 -31.417  -1.513  1.00  0.00     0.105 C 
HETATM    2  C   UNL     1      45.262 -31.809  -2.759  1.00  0.00     0.067 C 
HETATM    3  C   UNL     1      45.057 -33.295  -3.001  1.00  0.00     0.020 C 
HETATM    4  N   UNL     1      44.885 -34.527  -3.203  1.00  0.00    -0.096 N 
HETATM    5  C   UNL     1      44.909 -30.924  -3.729  1.00  0.00     0.139 C 
HETATM    6  O   UNL     1      45.283 -29.567  -3.663  1.00  0.00    -0.279 OA
HETATM    7  C   UNL     1      46.151 -29.251  -2.709  1.00  0.00     0.175 A 
HETATM    8  C   UNL     1      46.600 -30.038  -1.678  1.00  0.00     0.040 A 
HETATM    9  N   UNL     1      46.759 -28.047  -2.582  1.00  0.00    -0.256 N 
HETATM   10  H   UNL     1      46.654 -27.224  -3.166  1.00  0.00     0.191 HD
HETATM   11  N   UNL     1      47.607 -28.002  -1.537  1.00  0.00    -0.172 NA
HETATM   12  C   UNL     1      47.548 -29.233  -0.990  1.00  0.00     0.099 A 
ENDROOT
BRANCH   1  13
HETATM   13  C   UNL     1      45.184 -31.427  -0.259  1.00  0.00    -0.039 A 
HETATM   14  C   UNL     1      45.574 -32.236   0.823  1.00  0.00     0.048 A 
HETATM   15  C   UNL     1      44.757 -32.356   1.948  1.00  0.00     0.105 A 
HETATM   16  C   UNL     1      43.527 -31.699   1.993  1.00  0.00     0.147 A 
HETATM   17  C   UNL     1      43.142 -30.825   0.971  1.00  0.00     0.105 A 
HETATM   18  C   UNL     1      43.956 -30.729  -0.163  1.00  0.00     0.048 A 
BRANCH  15  19
HETATM   19  O   UNL     1      45.126 -33.176   2.983  1.00  0.00    -0.353 OA
HETATM   20  C   UNL     1      46.393 -32.775   3.503  1.00  0.00     0.210 C 
ENDBRANCH  15  19
BRANCH  16  21
HETATM   21  O   UNL     1      42.709 -31.903   3.112  1.00  0.00    -0.256 OA
BRANCH  21  22
HETATM   22  C   UNL     1      41.655 -32.782   2.873  1.00  0.00     0.368 C 
HETATM   23  N   UNL     1      40.627 -32.639   3.795  1.00  0.00    -0.324 N 
HETATM   24  C   UNL     1      39.311 -33.173   3.461  1.00  0.00     0.154 C 
HETATM   25  C   UNL     1      40.642 -31.630   4.852  1.00  0.00     0.154 C 
HETATM   26  C   UNL     1      38.512 -33.535   4.714  1.00  0.00     0.187 C 
HETATM   27  O   UNL     1      38.469 -32.439   5.640  1.00  0.00    -0.388 OA
HETATM   28  C   UNL     1      39.797 -32.080   6.048  1.00  0.00     0.187 C 
HETATM   29  O   UNL     1      41.611 -33.601   1.958  1.00  0.00    -0.238 OA
ENDBRANCH  21  22
ENDBRANCH  16  21
BRANCH  17  30
HETATM   30  O   UNL     1      41.979 -30.129   1.169  1.00  0.00    -0.353 OA
HETATM   31  C   UNL     1      42.087 -28.753   1.507  1.00  0.00     0.210 C 
ENDBRANCH  17  30
ENDBRANCH   1  13
BRANCH   5  32
HETATM   32  N   UNL     1      44.218 -31.225  -4.879  1.00  0.00    -0.282 NA
HETATM   33  H   UNL     1      43.883 -32.180  -4.973  1.00  0.00     0.126 HD
HETATM   34  H   UNL     1      44.668 -30.867  -5.717  1.00  0.00     0.126 HD
ENDBRANCH   5  32
BRANCH  12  35
HETATM   35  C   UNL     1      48.374 -29.574   0.163  1.00  0.00    -0.005 A 
HETATM   36  C   UNL     1      47.896 -29.342   1.461  1.00  0.00     0.015 A 
HETATM   37  C   UNL     1      48.685 -29.644   2.573  1.00  0.00     0.020 A 
HETATM   38  C   UNL     1      49.960 -30.173   2.391  1.00  0.00     0.011 A 
HETATM   39 BR   UNL     1      51.036 -30.573   3.893  1.00  0.00    -0.051 Br
HETATM   40  C   UNL     1      50.454 -30.402   1.107  1.00  0.00     0.020 A 
HETATM   41  C   UNL     1      49.662 -30.100  -0.005  1.00  0.00     0.015 A 
ENDBRANCH  12  35
TORSDOF 7
ENDMDL
MODEL 6
REMARK VINA RESULT:      -7.1      4.849      7.691
REMARK  7 active torsions:
REMARK  status: ('A' for Active; 'I' for Inactive)
REMARK    1  A    between atoms: O_2  and  C_3 
REMARK    2  A    between atoms: C_4  and  O_5 
REMARK    3  A    between atoms: O_5  and  C_6 
REMARK       I    between atoms: C_6  and  N_7 
REMARK    4  A    between atoms: C_14  and  O_15 
REMARK    5  A    between atoms: C_18  and  C_19 
REMARK    6  A    between atoms: C_23  and  N_24 
REMARK    7  A    between atoms: C_31  and  C_32 
ROOT
HETATM    1  C   UNL     1      42.494 -10.926   7.134  1.00  0.00     0.105 C 
HETATM    2  C   UNL     1      42.468 -11.702   5.818  1.00  0.00     0.067 C 
HETATM    3  C   UNL     1      41.239 -12.555   5.549  1.00  0.00     0.020 C 
HETATM    4  N   UNL     1      40.220 -13.263   5.324  1.00  0.00    -0.096 N 
HETATM    5  C   UNL     1      43.544 -11.811   4.992  1.00  0.00     0.139 C 
HETATM    6  O   UNL     1      44.784 -11.228   5.316  1.00  0.00    -0.279 OA
HETATM    7  C   UNL     1      44.892 -10.738   6.546  1.00  0.00     0.175 A 
HETATM    8  C   UNL     1      43.901 -10.576   7.483  1.00  0.00     0.040 A 
HETATM    9  N   UNL     1      46.041 -10.291   7.105  1.00  0.00    -0.256 N 
HETATM   10  H   UNL     1      46.968 -10.254   6.694  1.00  0.00     0.191 HD
HETATM   11  N   UNL     1      45.871  -9.864   8.371  1.00  0.00    -0.172 NA
HETATM   12  C   UNL     1      44.564 -10.067   8.631  1.00  0.00     0.099 A 
ENDROOT
BRANCH   1  13
HETATM   13  C   UNL     1      41.699  -9.624   7.039  1.00  0.00    -0.039 A 
HETATM   14  C   UNL     1      40.850  -9.277   8.104  1.00  0.00     0.048 A 
HETATM   15  C   UNL     1      40.030  -8.152   8.018  1.00  0.00     0.105 A 
HETATM   16  C   UNL     1      40.021  -7.379   6.856  1.00  0.00     0.147 A 
HETATM   17  C   UNL     1      40.908  -7.648   5.808  1.00  0.00     0.105 A 
HETATM   18  C   UNL     1      41.709  -8.791   5.894  1.00  0.00     0.048 A 
BRANCH  15  19
HETATM   19  O   UNL     1      39.177  -7.841   9.045  1.00  0.00    -0.353 OA
HETATM   20  C   UNL     1      39.522  -8.581  10.215  1.00  0.00     0.210 C 
ENDBRANCH  15  19
BRANCH  16  21
HETATM   21  O   UNL     1      39.132  -6.298   6.787  1.00  0.00    -0.256 OA
BRANCH  21  22
HETATM   22  C   UNL     1      37.861  -6.657   6.344  1.00  0.00     0.368 C 
HETATM   23  N   UNL     1      36.922  -5.659   6.566  1.00  0.00    -0.324 N 
HETATM   24  C   UNL     1      35.672  -5.697   5.814  1.00  0.00     0.154 C 
HETATM   25  C   UNL     1      37.263  -4.360   7.144  1.00  0.00     0.154 C 
HETATM   26  C   UNL     1      34.536  -5.005   6.569  1.00  0.00     0.187 C 
HETATM   27  O   UNL     1      34.915  -3.684   6.986  1.00  0.00    -0.388 OA
HETATM   28  C   UNL     1      36.055  -3.745   7.856  1.00  0.00     0.187 C 
HETATM   29  O   UNL     1      37.573  -7.726   5.812  1.00  0.00    -0.238 OA
ENDBRANCH  21  22
ENDBRANCH  16  21
BRANCH  17  30
HETATM   30  O   UNL     1      40.913  -6.756   4.769  1.00  0.00    -0.353 OA
HETATM   31  C   UNL     1      40.345  -7.181   3.537  1.00  0.00     0.210 C 
ENDBRANCH  17  30
ENDBRANCH   1  13
BRANCH   5  32
HETATM   32  N   UNL     1      43.583 -12.515   3.812  1.00  0.00    -0.282 NA
HETATM   33  H   UNL     1      44.204 -13.320   3.781  1.00  0.00     0.126 HD
HETATM   34  H   UNL     1      43.653 -11.916   2.995  1.00  0.00     0.126 HD
ENDBRANCH   5  32
BRANCH  12  35
HETATM   35  C   UNL     1      44.010  -9.749   9.944  1.00  0.00    -0.005 A 
HETATM   36  C   UNL     1      43.725 -10.779  10.852  1.00  0.00     0.015 A 
HETATM   37  C   UNL     1      43.175 -10.490  12.103  1.00  0.00     0.020 A 
HETATM   38  C   UNL     1      42.903  -9.169  12.448  1.00  0.00     0.011 A 
HETATM   39 BR   UNL     1      42.148  -8.775  14.136  1.00  0.00    -0.051 Br
HETATM   40  C   UNL     1      43.172  -8.134  11.553  1.00  0.00     0.020 A 
HETATM   41  C   UNL     1      43.723  -8.425  10.301  1.00  0.00     0.015 A 
ENDBRANCH  12  35
TORSDOF 7
ENDMDL
MODEL 7
REMARK VINA RESULT:      -7.1      5.536      8.675
REMARK  7 active torsions:
REMARK  status: ('A' for Active; 'I' for Inactive)
REMARK    1  A    between atoms: O_2  and  C_3 
REMARK    2  A    between atoms: C_4  and  O_5 
REMARK    3  A    between atoms: O_5  and  C_6 
REMARK       I    between atoms: C_6  and  N_7 
REMARK    4  A    between atoms: C_14  and  O_15 
REMARK    5  A    between atoms: C_18  and  C_19 
REMARK    6  A    between atoms: C_23  and  N_24 
REMARK    7  A    between atoms: C_31  and  C_32 
ROOT
HETATM    1  C   UNL     1      42.593  -6.504  11.158  1.00  0.00     0.105 C 
HETATM    2  C   UNL     1      42.272  -5.375  12.136  1.00  0.00     0.067 C 
HETATM    3  C   UNL     1      42.594  -3.961  11.683  1.00  0.00     0.020 C 
HETATM    4  N   UNL     1      42.861  -2.788  11.307  1.00  0.00    -0.096 N 
HETATM    5  C   UNL     1      41.901  -5.588  13.428  1.00  0.00     0.139 C 
HETATM    6  O   UNL     1      41.815  -6.887  13.966  1.00  0.00    -0.279 OA
HETATM    7  C   UNL     1      42.296  -7.864  13.205  1.00  0.00     0.175 A 
HETATM    8  C   UNL     1      42.711  -7.793  11.898  1.00  0.00     0.040 A 
HETATM    9  N   UNL     1      42.458  -9.148  13.602  1.00  0.00    -0.256 N 
HETATM   10  H   UNL     1      42.245  -9.560  14.505  1.00  0.00     0.191 HD
HETATM   11  N   UNL     1      42.982  -9.927  12.637  1.00  0.00    -0.172 NA
HETATM   12  C   UNL     1      43.177  -9.099  11.592  1.00  0.00     0.099 A 
ENDROOT
BRANCH   1  13
HETATM   13  C   UNL     1      41.498  -6.669  10.105  1.00  0.00    -0.039 A 
HETATM   14  C   UNL     1      40.419  -7.525  10.388  1.00  0.00     0.048 A 
HETATM   15  C   UNL     1      39.448  -7.785   9.419  1.00  0.00     0.105 A 
HETATM   16  C   UNL     1      39.562  -7.224   8.146  1.00  0.00     0.147 A 
HETATM   17  C   UNL     1      40.578  -6.309   7.853  1.00  0.00     0.105 A 
HETATM   18  C   UNL     1      41.558  -6.072   8.822  1.00  0.00     0.048 A 
BRANCH  15  19
HETATM   19  O   UNL     1      38.419  -8.649   9.690  1.00  0.00    -0.353 OA
HETATM   20  C   UNL     1      38.921  -9.971   9.884  1.00  0.00     0.210 C 
ENDBRANCH  15  19
BRANCH  16  21
HETATM   21  O   UNL     1      38.603  -7.568   7.184  1.00  0.00    -0.256 OA
BRANCH  21  22
HETATM   22  C   UNL     1      39.054  -8.517   6.270  1.00  0.00     0.368 C 
HETATM   23  N   UNL     1      38.592  -8.274   4.983  1.00  0.00    -0.324 N 
HETATM   24  C   UNL     1      39.281  -8.908   3.863  1.00  0.00     0.154 C 
HETATM   25  C   UNL     1      37.777  -7.111   4.638  1.00  0.00     0.154 C 
HETATM   26  C   UNL     1      38.352  -9.101   2.664  1.00  0.00     0.187 C 
HETATM   27  O   UNL     1      37.691  -7.875   2.313  1.00  0.00    -0.388 OA
HETATM   28  C   UNL     1      36.903  -7.401   3.415  1.00  0.00     0.187 C 
HETATM   29  O   UNL     1      39.780  -9.471   6.540  1.00  0.00    -0.238 OA
ENDBRANCH  21  22
ENDBRANCH  16  21
BRANCH  17  30
HETATM   30  O   UNL     1      40.528  -5.715   6.619  1.00  0.00    -0.353 OA
HETATM   31  C   UNL     1      41.645  -5.895   5.759  1.00  0.00     0.210 C 
ENDBRANCH  17  30
ENDBRANCH   1  13
BRANCH   5  32
HETATM   32  N   UNL     1      41.625  -4.613  14.356  1.00  0.00    -0.282 NA
HETATM   33  H   UNL     1      42.290  -4.505  15.117  1.00  0.00     0.126 HD
HETATM   34  H   UNL     1      40.656  -4.618  14.660  1.00  0.00     0.126 HD
ENDBRANCH   5  32
BRANCH  12  35
HETATM   35  C   UNL     1      43.775  -9.593  10.355  1.00  0.00    -0.005 A 
HETATM   36  C   UNL     1      42.963  -9.861   9.243  1.00  0.00     0.015 A 
HETATM   37  C   UNL     1      43.519 -10.353   8.060  1.00  0.00     0.020 A 
HETATM   38  C   UNL     1      44.890 -10.585   7.988  1.00  0.00     0.011 A 
HETATM   39 BR   UNL     1      45.645 -11.263   6.393  1.00  0.00    -0.051 Br
HETATM   40  C   UNL     1      45.710 -10.332   9.087  1.00  0.00     0.020 A 
HETATM   41  C   UNL     1      45.152  -9.838  10.270  1.00  0.00     0.015 A 
ENDBRANCH  12  35
TORSDOF 7
ENDMDL
MODEL 8
REMARK VINA RESULT:      -7.0      4.780      9.390
REMARK  7 active torsions:
REMARK  status: ('A' for Active; 'I' for Inactive)
REMARK    1  A    between atoms: O_2  and  C_3 
REMARK    2  A    between atoms: C_4  and  O_5 
REMARK    3  A    between atoms: O_5  and  C_6 
REMARK       I    between atoms: C_6  and  N_7 
REMARK    4  A    between atoms: C_14  and  O_15 
REMARK    5  A    between atoms: C_18  and  C_19 
REMARK    6  A    between atoms: C_23  and  N_24 
REMARK    7  A    between atoms: C_31  and  C_32 
ROOT
HETATM    1  C   UNL     1      41.302 -10.439   5.945  1.00  0.00     0.105 C 
HETATM    2  C   UNL     1      41.097 -11.947   6.086  1.00  0.00     0.067 C 
HETATM    3  C   UNL     1      42.339 -12.818   6.008  1.00  0.00     0.020 C 
HETATM    4  N   UNL     1      43.370 -13.542   5.945  1.00  0.00    -0.096 N 
HETATM    5  C   UNL     1      39.872 -12.538   6.085  1.00  0.00     0.139 C 
HETATM    6  O   UNL     1      38.691 -11.788   5.922  1.00  0.00    -0.279 OA
HETATM    7  C   UNL     1      38.854 -10.515   5.582  1.00  0.00     0.175 A 
HETATM    8  C   UNL     1      40.021  -9.794   5.534  1.00  0.00     0.040 A 
HETATM    9  N   UNL     1      37.856  -9.674   5.219  1.00  0.00    -0.256 N 
HETATM   10  H   UNL     1      36.862  -9.869   5.153  1.00  0.00     0.191 HD
HETATM   11  N   UNL     1      38.302  -8.443   4.908  1.00  0.00    -0.172 NA
HETATM   12  C   UNL     1      39.639  -8.510   5.062  1.00  0.00     0.099 A 
ENDROOT
BRANCH   1  13
HETATM   13  C   UNL     1      41.743  -9.802   7.262  1.00  0.00    -0.039 A 
HETATM   14  C   UNL     1      40.770  -9.552   8.246  1.00  0.00     0.048 A 
HETATM   15  C   UNL     1      41.107  -8.881   9.422  1.00  0.00     0.105 A 
HETATM   16  C   UNL     1      42.410  -8.420   9.615  1.00  0.00     0.147 A 
HETATM   17  C   UNL     1      43.421  -8.718   8.695  1.00  0.00     0.105 A 
HETATM   18  C   UNL     1      43.069  -9.370   7.509  1.00  0.00     0.048 A 
BRANCH  15  19
HETATM   19  O   UNL     1      40.146  -8.609  10.360  1.00  0.00    -0.353 OA
HETATM   20  C   UNL     1      39.600  -9.823  10.875  1.00  0.00     0.210 C 
ENDBRANCH  15  19
BRANCH  16  21
HETATM   21  O   UNL     1      42.688  -7.691  10.780  1.00  0.00    -0.256 OA
BRANCH  21  22
HETATM   22  C   UNL     1      42.830  -8.491  11.911  1.00  0.00     0.368 C 
HETATM   23  N   UNL     1      42.129  -7.995  13.001  1.00  0.00    -0.324 N 
HETATM   24  C   UNL     1      41.837  -8.895  14.113  1.00  0.00     0.154 C 
HETATM   25  C   UNL     1      41.291  -6.799  12.931  1.00  0.00     0.154 C 
HETATM   26  C   UNL     1      41.681  -8.135  15.431  1.00  0.00     0.187 C 
HETATM   27  O   UNL     1      40.740  -7.057  15.302  1.00  0.00    -0.388 OA
HETATM   28  C   UNL     1      41.181  -6.127  14.303  1.00  0.00     0.187 C 
HETATM   29  O   UNL     1      43.491  -9.525  11.968  1.00  0.00    -0.238 OA
ENDBRANCH  21  22
ENDBRANCH  16  21
BRANCH  17  30
HETATM   30  O   UNL     1      44.691  -8.334   9.038  1.00  0.00    -0.353 OA
HETATM   31  C   UNL     1      45.772  -8.973   8.372  1.00  0.00     0.210 C 
ENDBRANCH  17  30
ENDBRANCH   1  13
BRANCH   5  32
HETATM   32  N   UNL     1      39.631 -13.888   6.183  1.00  0.00    -0.282 NA
HETATM   33  H   UNL     1      38.922 -14.178   6.851  1.00  0.00     0.126 HD
HETATM   34  H   UNL     1      40.482 -14.440   6.227  1.00  0.00     0.126 HD
ENDBRANCH   5  32
BRANCH  12  35
HETATM   35  C   UNL     1      40.479  -7.351   4.774  1.00  0.00    -0.005 A 
HETATM   36  C   UNL     1      41.045  -6.618   5.827  1.00  0.00     0.015 A 
HETATM   37  C   UNL     1      41.834  -5.495   5.566  1.00  0.00     0.020 A 
HETATM   38  C   UNL     1      42.053  -5.097   4.250  1.00  0.00     0.011 A 
HETATM   39 BR   UNL     1      43.110  -3.571   3.893  1.00  0.00    -0.051 Br
HETATM   40  C   UNL     1      41.491  -5.811   3.193  1.00  0.00     0.020 A 
HETATM   41  C   UNL     1      40.702  -6.935   3.455  1.00  0.00     0.015 A 
ENDBRANCH  12  35
TORSDOF 7
ENDMDL
MODEL 9
REMARK VINA RESULT:      -7.0     18.363     21.213
REMARK  7 active torsions:
REMARK  status: ('A' for Active; 'I' for Inactive)
REMARK    1  A    between atoms: O_2  and  C_3 
REMARK    2  A    between atoms: C_4  and  O_5 
REMARK    3  A    between atoms: O_5  and  C_6 
REMARK       I    between atoms: C_6  and  N_7 
REMARK    4  A    between atoms: C_14  and  O_15 
REMARK    5  A    between atoms: C_18  and  C_19 
REMARK    6  A    between atoms: C_23  and  N_24 
REMARK    7  A    between atoms: C_31  and  C_32 
ROOT
HETATM    1  C   UNL     1      45.459 -31.797   0.977  1.00  0.00     0.105 C 
HETATM    2  C   UNL     1      45.410 -32.191   2.453  1.00  0.00     0.067 C 
HETATM    3  C   UNL     1      45.871 -33.595   2.804  1.00  0.00     0.020 C 
HETATM    4  N   UNL     1      46.255 -34.760   3.096  1.00  0.00    -0.096 N 
HETATM    5  C   UNL     1      44.810 -31.432   3.410  1.00  0.00     0.139 C 
HETATM    6  O   UNL     1      44.158 -30.225   3.092  1.00  0.00    -0.279 OA
HETATM    7  C   UNL     1      44.000 -29.973   1.798  1.00  0.00     0.175 A 
HETATM    8  C   UNL     1      44.535 -30.652   0.732  1.00  0.00     0.040 A 
HETATM    9  N   UNL     1      43.260 -28.959   1.289  1.00  0.00    -0.256 N 
HETATM   10  H   UNL     1      42.730 -28.253   1.790  1.00  0.00     0.191 HD
HETATM   11  N   UNL     1      43.255 -28.945  -0.057  1.00  0.00    -0.172 NA
HETATM   12  C   UNL     1      44.008 -30.004  -0.417  1.00  0.00     0.099 A 
ENDROOT
BRANCH   1  13
HETATM   13  C   UNL     1      46.861 -31.365   0.553  1.00  0.00    -0.039 A 
HETATM   14  C   UNL     1      47.318 -31.727  -0.727  1.00  0.00     0.048 A 
HETATM   15  C   UNL     1      48.626 -31.442  -1.119  1.00  0.00     0.105 A 
HETATM   16  C   UNL     1      49.505 -30.824  -0.229  1.00  0.00     0.147 A 
HETATM   17  C   UNL     1      49.065 -30.380   1.023  1.00  0.00     0.105 A 
HETATM   18  C   UNL     1      47.759 -30.690   1.416  1.00  0.00     0.048 A 
BRANCH  15  19
HETATM   19  O   UNL     1      49.074 -31.831  -2.355  1.00  0.00    -0.353 OA
HETATM   20  C   UNL     1      47.972 -32.063  -3.230  1.00  0.00     0.210 C 
ENDBRANCH  15  19
BRANCH  16  21
HETATM   21  O   UNL     1      50.829 -30.620  -0.641  1.00  0.00    -0.256 OA
BRANCH  21  22
HETATM   22  C   UNL     1      51.667 -31.696  -0.360  1.00  0.00     0.368 C 
HETATM   23  N   UNL     1      52.492 -32.018  -1.428  1.00  0.00    -0.324 N 
HETATM   24  C   UNL     1      53.682 -32.823  -1.173  1.00  0.00     0.154 C 
HETATM   25  C   UNL     1      52.507 -31.259  -2.677  1.00  0.00     0.154 C 
HETATM   26  C   UNL     1      54.103 -33.619  -2.410  1.00  0.00     0.187 C 
HETATM   27  O   UNL     1      54.220 -32.769  -3.562  1.00  0.00    -0.388 OA
HETATM   28  C   UNL     1      52.962 -32.139  -3.846  1.00  0.00     0.187 C 
HETATM   29  O   UNL     1      51.697 -32.310   0.704  1.00  0.00    -0.238 OA
ENDBRANCH  21  22
ENDBRANCH  16  21
BRANCH  17  30
HETATM   30  O   UNL     1      49.968 -29.670   1.770  1.00  0.00    -0.353 OA
HETATM   31  C   UNL     1      50.121 -30.037   3.135  1.00  0.00     0.210 C 
ENDBRANCH  17  30
ENDBRANCH   1  13
BRANCH   5  32
HETATM   32  N   UNL     1      44.715 -31.749   4.744  1.00  0.00    -0.282 NA
HETATM   33  H   UNL     1      44.592 -30.974   5.390  1.00  0.00     0.126 HD
HETATM   34  H   UNL     1      45.416 -32.421   5.042  1.00  0.00     0.126 HD
ENDBRANCH   5  32
BRANCH  12  35
HETATM   35  C   UNL     1      44.203 -30.332  -1.826  1.00  0.00    -0.005 A 
HETATM   36  C   UNL     1      44.497 -29.316  -2.747  1.00  0.00     0.015 A 
HETATM   37  C   UNL     1      44.666 -29.614  -4.102  1.00  0.00     0.020 A 
HETATM   38  C   UNL     1      44.534 -30.929  -4.540  1.00  0.00     0.011 A 
HETATM   39 BR   UNL     1      44.749 -31.334  -6.374  1.00  0.00    -0.051 Br
HETATM   40  C   UNL     1      44.233 -31.948  -3.638  1.00  0.00     0.020 A 
HETATM   41  C   UNL     1      44.066 -31.650  -2.283  1.00  0.00     0.015 A 
ENDBRANCH  12  35
TORSDOF 7
ENDMDL
MODEL 10
REMARK VINA RESULT:      -6.9      3.558      7.258
REMARK  7 active torsions:
REMARK  status: ('A' for Active; 'I' for Inactive)
REMARK    1  A    between atoms: O_2  and  C_3 
REMARK    2  A    between atoms: C_4  and  O_5 
REMARK    3  A    between atoms: O_5  and  C_6 
REMARK       I    between atoms: C_6  and  N_7 
REMARK    4  A    between atoms: C_14  and  O_15 
REMARK    5  A    between atoms: C_18  and  C_19 
REMARK    6  A    between atoms: C_23  and  N_24 
REMARK    7  A    between atoms: C_31  and  C_32 
ROOT
HETATM    1  C   UNL     1      41.789 -12.987   4.826  1.00  0.00     0.105 C 
HETATM    2  C   UNL     1      42.538 -13.501   6.054  1.00  0.00     0.067 C 
HETATM    3  C   UNL     1      43.719 -12.674   6.534  1.00  0.00     0.020 C 
HETATM    4  N   UNL     1      44.698 -11.988   6.933  1.00  0.00    -0.096 N 
HETATM    5  C   UNL     1      42.320 -14.727   6.604  1.00  0.00     0.139 C 
HETATM    6  O   UNL     1      41.394 -15.630   6.048  1.00  0.00    -0.279 OA
HETATM    7  C   UNL     1      40.894 -15.295   4.864  1.00  0.00     0.175 A 
HETATM    8  C   UNL     1      41.035 -14.106   4.192  1.00  0.00     0.040 A 
HETATM    9  N   UNL     1      40.124 -16.097   4.092  1.00  0.00    -0.256 N 
HETATM   10  H   UNL     1      39.811 -17.044   4.283  1.00  0.00     0.191 HD
HETATM   11  N   UNL     1      39.767 -15.514   2.932  1.00  0.00    -0.172 NA
HETATM   12  C   UNL     1      40.351 -14.300   2.962  1.00  0.00     0.099 A 
ENDROOT
BRANCH   1  13
HETATM   13  C   UNL     1      40.784 -11.895   5.191  1.00  0.00    -0.039 A 
HETATM   14  C   UNL     1      40.667 -10.780   4.344  1.00  0.00     0.048 A 
HETATM   15  C   UNL     1      39.837  -9.712   4.688  1.00  0.00     0.105 A 
HETATM   16  C   UNL     1      39.142  -9.729   5.898  1.00  0.00     0.147 A 
HETATM   17  C   UNL     1      39.173 -10.854   6.729  1.00  0.00     0.105 A 
HETATM   18  C   UNL     1      40.025 -11.909   6.387  1.00  0.00     0.048 A 
BRANCH  15  19
HETATM   19  O   UNL     1      39.756  -8.612   3.875  1.00  0.00    -0.353 OA
HETATM   20  C   UNL     1      40.467  -8.843   2.659  1.00  0.00     0.210 C 
ENDBRANCH  15  19
BRANCH  16  21
HETATM   21  O   UNL     1      38.375  -8.605   6.235  1.00  0.00    -0.256 OA
BRANCH  21  22
HETATM   22  C   UNL     1      39.110  -7.603   6.864  1.00  0.00     0.368 C 
HETATM   23  N   UNL     1      38.429  -6.395   6.908  1.00  0.00    -0.324 N 
HETATM   24  C   UNL     1      38.864  -5.382   7.865  1.00  0.00     0.154 C 
HETATM   25  C   UNL     1      37.068  -6.231   6.401  1.00  0.00     0.154 C 
HETATM   26  C   UNL     1      38.515  -3.970   7.392  1.00  0.00     0.187 C 
HETATM   27  O   UNL     1      37.126  -3.867   7.039  1.00  0.00    -0.388 OA
HETATM   28  C   UNL     1      36.814  -4.781   5.977  1.00  0.00     0.187 C 
HETATM   29  O   UNL     1      40.236  -7.743   7.338  1.00  0.00    -0.238 OA
ENDBRANCH  21  22
ENDBRANCH  16  21
BRANCH  17  30
HETATM   30  O   UNL     1      38.355 -10.824   7.828  1.00  0.00    -0.353 OA
HETATM   31  C   UNL     1      38.950 -10.505   9.079  1.00  0.00     0.210 C 
ENDBRANCH  17  30
ENDBRANCH   1  13
BRANCH   5  32
HETATM   32  N   UNL     1      42.981 -15.249   7.691  1.00  0.00    -0.282 NA
HETATM   33  H   UNL     1      43.854 -14.801   7.953  1.00  0.00     0.126 HD
HETATM   34  H   UNL     1      43.032 -16.263   7.672  1.00  0.00     0.126 HD
ENDBRANCH   5  32
BRANCH  12  35
HETATM   35  C   UNL     1      40.213 -13.381   1.835  1.00  0.00    -0.005 A 
HETATM   36  C   UNL     1      39.101 -12.530   1.758  1.00  0.00     0.015 A 
HETATM   37  C   UNL     1      38.946 -11.661   0.675  1.00  0.00     0.020 A 
HETATM   38  C   UNL     1      39.901 -11.646  -0.338  1.00  0.00     0.011 A 
HETATM   39 BR   UNL     1      39.689 -10.480  -1.812  1.00  0.00    -0.051 Br
HETATM   40  C   UNL     1      41.008 -12.492  -0.280  1.00  0.00     0.020 A 
HETATM   41  C   UNL     1      41.162 -13.360   0.805  1.00  0.00     0.015 A 
ENDBRANCH  12  35
TORSDOF 7
ENDMDL
