MODEL 1
REMARK VINA RESULT:      -8.3      0.000      0.000
REMARK  8 active torsions:
REMARK  status: ('A' for Active; 'I' for Inactive)
REMARK    1  A    between atoms: O_2  and  C_3 
REMARK    2  A    between atoms: C_6  and  N_7 
REMARK    3  A    between atoms: N_7  and  C_8 
REMARK    4  A    between atoms: C_11  and  C_12 
REMARK    5  A    between atoms: C_15  and  C_16 
REMARK       I    between atoms: C_16  and  N_17 
REMARK    6  A    between atoms: N_17  and  C_18 
REMARK    7  A    between atoms: C_18  and  C_19 
REMARK    8  A    between atoms: C_19  and  O_20 
ROOT
HETATM    1  C   UNL     1      44.261 -10.253   8.926  1.00  0.00     0.161 A 
HETATM    2  N   UNL     1      44.574 -10.795  10.121  1.00  0.00    -0.131 NA
HETATM    3  N   UNL     1      44.107 -10.256  11.285  1.00  0.00    -0.147 NA
HETATM    4  C   UNL     1      43.310  -9.165  11.258  1.00  0.00     0.100 A 
HETATM    5  C   UNL     1      42.943  -8.544  10.049  1.00  0.00     0.009 A 
HETATM    6  C   UNL     1      43.427  -9.113   8.847  1.00  0.00     0.024 A 
HETATM    7  C   UNL     1      42.130  -7.385   9.974  1.00  0.00     0.015 A 
HETATM    8  C   UNL     1      41.775  -6.817   8.750  1.00  0.00     0.001 A 
HETATM    9  C   UNL     1      42.225  -7.389   7.571  1.00  0.00     0.001 A 
HETATM   10  C   UNL     1      43.041  -8.520   7.618  1.00  0.00     0.016 A 
ENDROOT
BRANCH   4  11
HETATM   11  C   UNL     1      42.887  -8.722  12.594  1.00  0.00    -0.005 A 
HETATM   12  C   UNL     1      41.833  -9.374  13.256  1.00  0.00     0.015 A 
HETATM   13  C   UNL     1      41.388  -8.941  14.510  1.00  0.00     0.018 A 
HETATM   14  C   UNL     1      41.985  -7.832  15.117  1.00  0.00     0.032 A 
HETATM   15  C   UNL     1      43.046  -7.182  14.477  1.00  0.00     0.018 A 
HETATM   16  C   UNL     1      43.486  -7.618  13.223  1.00  0.00     0.015 A 
BRANCH  14  17
HETATM   17  C   UNL     1      41.530  -7.313  16.436  1.00  0.00     0.251 C 
HETATM   18  N   UNL     1      40.630  -8.095  17.127  1.00  0.00    -0.355 N 
HETATM   19  H   UNL     1      40.210  -8.900  16.682  1.00  0.00     0.162 HD
HETATM   20  O   UNL     1      41.917  -6.221  16.838  1.00  0.00    -0.268 OA
BRANCH  18  21
HETATM   21  C   UNL     1      40.067  -7.663  18.397  1.00  0.00     0.148 C 
BRANCH  21  22
HETATM   22  C   UNL     1      40.117  -8.762  19.458  1.00  0.00     0.183 C 
BRANCH  22  23
HETATM   23  O   UNL     1      38.802  -9.032  19.945  1.00  0.00    -0.399 OA
HETATM   24  H   UNL     1      38.228  -9.054  19.158  1.00  0.00     0.209 HD
ENDBRANCH  22  23
ENDBRANCH  21  22
ENDBRANCH  18  21
ENDBRANCH  14  17
ENDBRANCH   4  11
BRANCH   1  25
HETATM   25  N   UNL     1      44.801 -10.808   7.734  1.00  0.00    -0.339 N 
HETATM   26  H   UNL     1      45.757 -11.094   7.915  1.00  0.00     0.167 HD
BRANCH  25  27
HETATM   27  C   UNL     1      44.153 -11.674   6.826  1.00  0.00     0.033 A 
HETATM   28  C   UNL     1      43.998 -11.359   5.471  1.00  0.00     0.032 A 
HETATM   29  C   UNL     1      43.426 -12.267   4.571  1.00  0.00     0.039 A 
HETATM   30  C   UNL     1      43.016 -13.523   5.011  1.00  0.00     0.068 A 
HETATM   31  C   UNL     1      43.183 -13.857   6.355  1.00  0.00     0.039 A 
HETATM   32  C   UNL     1      43.760 -12.949   7.251  1.00  0.00     0.032 A 
BRANCH  30  33
HETATM   33  O   UNL     1      42.452 -14.502   4.241  1.00  0.00    -0.356 OA
HETATM   34  C   UNL     1      43.127 -15.754   4.205  1.00  0.00     0.210 C 
ENDBRANCH  30  33
ENDBRANCH  25  27
ENDBRANCH   1  25
TORSDOF 8
ENDMDL
MODEL 2
REMARK VINA RESULT:      -8.2      2.840     11.127
REMARK  8 active torsions:
REMARK  status: ('A' for Active; 'I' for Inactive)
REMARK    1  A    between atoms: O_2  and  C_3 
REMARK    2  A    between atoms: C_6  and  N_7 
REMARK    3  A    between atoms: N_7  and  C_8 
REMARK    4  A    between atoms: C_11  and  C_12 
REMARK    5  A    between atoms: C_15  and  C_16 
REMARK       I    between atoms: C_16  and  N_17 
REMARK    6  A    between atoms: N_17  and  C_18 
REMARK    7  A    between atoms: C_18  and  C_19 
REMARK    8  A    between atoms: C_19  and  O_20 
ROOT
HETATM    1  C   UNL     1      42.556  -9.604   7.945  1.00  0.00     0.161 A 
HETATM    2  N   UNL     1      41.500 -10.216   7.369  1.00  0.00    -0.131 NA
HETATM    3  N   UNL     1      41.674 -11.252   6.498  1.00  0.00    -0.147 NA
HETATM    4  C   UNL     1      42.918 -11.691   6.201  1.00  0.00     0.100 A 
HETATM    5  C   UNL     1      44.066 -11.100   6.762  1.00  0.00     0.009 A 
HETATM    6  C   UNL     1      43.876 -10.030   7.669  1.00  0.00     0.024 A 
HETATM    7  C   UNL     1      45.390 -11.511   6.462  1.00  0.00     0.015 A 
HETATM    8  C   UNL     1      46.497 -10.908   7.060  1.00  0.00     0.001 A 
HETATM    9  C   UNL     1      46.312  -9.878   7.969  1.00  0.00     0.001 A 
HETATM   10  C   UNL     1      45.020  -9.445   8.268  1.00  0.00     0.016 A 
ENDROOT
BRANCH   4  11
HETATM   11  C   UNL     1      42.927 -12.819   5.258  1.00  0.00    -0.005 A 
HETATM   12  C   UNL     1      42.871 -14.140   5.733  1.00  0.00     0.015 A 
HETATM   13  C   UNL     1      42.920 -15.228   4.855  1.00  0.00     0.018 A 
HETATM   14  C   UNL     1      43.043 -15.008   3.479  1.00  0.00     0.032 A 
HETATM   15  C   UNL     1      43.083 -13.698   2.990  1.00  0.00     0.018 A 
HETATM   16  C   UNL     1      43.035 -12.614   3.873  1.00  0.00     0.015 A 
BRANCH  14  17
HETATM   17  C   UNL     1      43.130 -16.130   2.505  1.00  0.00     0.251 C 
HETATM   18  N   UNL     1      42.885 -17.393   2.999  1.00  0.00    -0.355 N 
HETATM   19  H   UNL     1      42.793 -17.541   3.994  1.00  0.00     0.162 HD
HETATM   20  O   UNL     1      43.450 -15.915   1.341  1.00  0.00    -0.268 OA
BRANCH  18  21
HETATM   21  C   UNL     1      43.000 -18.572   2.155  1.00  0.00     0.148 C 
BRANCH  21  22
HETATM   22  C   UNL     1      43.804 -19.688   2.824  1.00  0.00     0.183 C 
BRANCH  22  23
HETATM   23  O   UNL     1      43.718 -20.884   2.049  1.00  0.00    -0.399 OA
HETATM   24  H   UNL     1      43.693 -21.615   2.693  1.00  0.00     0.209 HD
ENDBRANCH  22  23
ENDBRANCH  21  22
ENDBRANCH  18  21
ENDBRANCH  14  17
ENDBRANCH   4  11
BRANCH   1  25
HETATM   25  N   UNL     1      42.345  -8.497   8.811  1.00  0.00    -0.339 N 
HETATM   26  H   UNL     1      41.682  -7.866   8.374  1.00  0.00     0.167 HD
BRANCH  25  27
HETATM   27  C   UNL     1      42.200  -8.528  10.215  1.00  0.00     0.033 A 
HETATM   28  C   UNL     1      41.149  -9.207  10.844  1.00  0.00     0.032 A 
HETATM   29  C   UNL     1      41.069  -9.295  12.240  1.00  0.00     0.039 A 
HETATM   30  C   UNL     1      42.058  -8.720  13.035  1.00  0.00     0.068 A 
HETATM   31  C   UNL     1      43.120  -8.058  12.420  1.00  0.00     0.039 A 
HETATM   32  C   UNL     1      43.200  -7.977  11.025  1.00  0.00     0.032 A 
BRANCH  30  33
HETATM   33  O   UNL     1      42.105  -8.739  14.401  1.00  0.00    -0.356 OA
HETATM   34  C   UNL     1      42.231  -7.481  15.053  1.00  0.00     0.210 C 
ENDBRANCH  30  33
ENDBRANCH  25  27
ENDBRANCH   1  25
TORSDOF 8
ENDMDL
MODEL 3
REMARK VINA RESULT:      -8.2     22.377     23.713
REMARK  8 active torsions:
REMARK  status: ('A' for Active; 'I' for Inactive)
REMARK    1  A    between atoms: O_2  and  C_3 
REMARK    2  A    between atoms: C_6  and  N_7 
REMARK    3  A    between atoms: N_7  and  C_8 
REMARK    4  A    between atoms: C_11  and  C_12 
REMARK    5  A    between atoms: C_15  and  C_16 
REMARK       I    between atoms: C_16  and  N_17 
REMARK    6  A    between atoms: N_17  and  C_18 
REMARK    7  A    between atoms: C_18  and  C_19 
REMARK    8  A    between atoms: C_19  and  O_20 
ROOT
HETATM    1  C   UNL     1      46.738 -28.346   0.500  1.00  0.00     0.161 A 
HETATM    2  N   UNL     1      46.484 -28.373   1.825  1.00  0.00    -0.131 NA
HETATM    3  N   UNL     1      47.303 -29.045   2.686  1.00  0.00    -0.147 NA
HETATM    4  C   UNL     1      48.393 -29.694   2.222  1.00  0.00     0.100 A 
HETATM    5  C   UNL     1      48.720 -29.711   0.854  1.00  0.00     0.009 A 
HETATM    6  C   UNL     1      47.870 -29.007  -0.032  1.00  0.00     0.024 A 
HETATM    7  C   UNL     1      49.840 -30.398   0.318  1.00  0.00     0.015 A 
HETATM    8  C   UNL     1      50.135 -30.368  -1.045  1.00  0.00     0.001 A 
HETATM    9  C   UNL     1      49.319 -29.656  -1.909  1.00  0.00     0.001 A 
HETATM   10  C   UNL     1      48.201 -28.986  -1.410  1.00  0.00     0.016 A 
ENDROOT
BRANCH   4  11
HETATM   11  C   UNL     1      49.171 -30.355   3.281  1.00  0.00    -0.005 A 
HETATM   12  C   UNL     1      48.563 -31.309   4.116  1.00  0.00     0.015 A 
HETATM   13  C   UNL     1      49.273 -31.918   5.156  1.00  0.00     0.018 A 
HETATM   14  C   UNL     1      50.607 -31.567   5.388  1.00  0.00     0.032 A 
HETATM   15  C   UNL     1      51.230 -30.630   4.556  1.00  0.00     0.018 A 
HETATM   16  C   UNL     1      50.514 -30.023   3.518  1.00  0.00     0.015 A 
BRANCH  14  17
HETATM   17  C   UNL     1      51.398 -32.162   6.499  1.00  0.00     0.251 C 
HETATM   18  N   UNL     1      52.623 -31.585   6.759  1.00  0.00    -0.355 N 
HETATM   19  H   UNL     1      53.002 -30.891   6.128  1.00  0.00     0.162 HD
HETATM   20  O   UNL     1      50.978 -33.142   7.103  1.00  0.00    -0.268 OA
BRANCH  18  21
HETATM   21  C   UNL     1      53.511 -32.118   7.779  1.00  0.00     0.148 C 
BRANCH  21  22
HETATM   22  C   UNL     1      54.251 -31.016   8.538  1.00  0.00     0.183 C 
BRANCH  22  23
HETATM   23  O   UNL     1      54.257 -29.812   7.771  1.00  0.00    -0.399 OA
HETATM   24  H   UNL     1      54.533 -30.072   6.873  1.00  0.00     0.209 HD
ENDBRANCH  22  23
ENDBRANCH  21  22
ENDBRANCH  18  21
ENDBRANCH  14  17
ENDBRANCH   4  11
BRANCH   1  25
HETATM   25  N   UNL     1      45.842 -27.677  -0.378  1.00  0.00    -0.339 N 
HETATM   26  H   UNL     1      46.171 -26.727  -0.513  1.00  0.00     0.167 HD
BRANCH  25  27
HETATM   27  C   UNL     1      45.240 -28.200  -1.544  1.00  0.00     0.033 A 
HETATM   28  C   UNL     1      45.500 -27.680  -2.817  1.00  0.00     0.032 A 
HETATM   29  C   UNL     1      44.958 -28.266  -3.968  1.00  0.00     0.039 A 
HETATM   30  C   UNL     1      44.159 -29.402  -3.866  1.00  0.00     0.068 A 
HETATM   31  C   UNL     1      43.909 -29.941  -2.604  1.00  0.00     0.039 A 
HETATM   32  C   UNL     1      44.457 -29.357  -1.456  1.00  0.00     0.032 A 
BRANCH  30  33
HETATM   33  O   UNL     1      43.576 -30.074  -4.904  1.00  0.00    -0.356 OA
HETATM   34  C   UNL     1      44.450 -30.769  -5.785  1.00  0.00     0.210 C 
ENDBRANCH  30  33
ENDBRANCH  25  27
ENDBRANCH   1  25
TORSDOF 8
ENDMDL
MODEL 4
REMARK VINA RESULT:      -8.1      2.525     10.768
REMARK  8 active torsions:
REMARK  status: ('A' for Active; 'I' for Inactive)
REMARK    1  A    between atoms: O_2  and  C_3 
REMARK    2  A    between atoms: C_6  and  N_7 
REMARK    3  A    between atoms: N_7  and  C_8 
REMARK    4  A    between atoms: C_11  and  C_12 
REMARK    5  A    between atoms: C_15  and  C_16 
REMARK       I    between atoms: C_16  and  N_17 
REMARK    6  A    between atoms: N_17  and  C_18 
REMARK    7  A    between atoms: C_18  and  C_19 
REMARK    8  A    between atoms: C_19  and  O_20 
ROOT
HETATM    1  C   UNL     1      41.078  -6.623  15.789  1.00  0.00     0.161 A 
HETATM    2  N   UNL     1      42.360  -7.039  15.720  1.00  0.00    -0.131 NA
HETATM    3  N   UNL     1      42.833  -7.685  14.615  1.00  0.00    -0.147 NA
HETATM    4  C   UNL     1      42.019  -7.915  13.561  1.00  0.00     0.100 A 
HETATM    5  C   UNL     1      40.671  -7.512  13.562  1.00  0.00     0.009 A 
HETATM    6  C   UNL     1      40.190  -6.837  14.709  1.00  0.00     0.024 A 
HETATM    7  C   UNL     1      39.775  -7.752  12.489  1.00  0.00     0.015 A 
HETATM    8  C   UNL     1      38.451  -7.314  12.528  1.00  0.00     0.001 A 
HETATM    9  C   UNL     1      37.986  -6.629  13.639  1.00  0.00     0.001 A 
HETATM   10  C   UNL     1      38.843  -6.394  14.715  1.00  0.00     0.016 A 
ENDROOT
BRANCH   4  11
HETATM   11  C   UNL     1      42.689  -8.610  12.451  1.00  0.00    -0.005 A 
HETATM   12  C   UNL     1      43.118  -7.892  11.322  1.00  0.00     0.015 A 
HETATM   13  C   UNL     1      43.719  -8.541  10.238  1.00  0.00     0.018 A 
HETATM   14  C   UNL     1      43.887  -9.929  10.261  1.00  0.00     0.032 A 
HETATM   15  C   UNL     1      43.479 -10.655  11.386  1.00  0.00     0.018 A 
HETATM   16  C   UNL     1      42.876 -10.002  12.466  1.00  0.00     0.015 A 
BRANCH  14  17
HETATM   17  C   UNL     1      44.492 -10.672   9.122  1.00  0.00     0.251 C 
HETATM   18  N   UNL     1      43.616 -11.298   8.261  1.00  0.00    -0.355 N 
HETATM   19  H   UNL     1      42.633 -11.354   8.489  1.00  0.00     0.162 HD
HETATM   20  O   UNL     1      45.711 -10.744   9.009  1.00  0.00    -0.268 OA
BRANCH  18  21
HETATM   21  C   UNL     1      44.093 -12.103   7.148  1.00  0.00     0.148 C 
BRANCH  21  22
HETATM   22  C   UNL     1      44.531 -11.249   5.959  1.00  0.00     0.183 C 
BRANCH  22  23
HETATM   23  O   UNL     1      45.954 -11.131   5.938  1.00  0.00    -0.399 OA
HETATM   24  H   UNL     1      46.279 -11.931   5.485  1.00  0.00     0.209 HD
ENDBRANCH  22  23
ENDBRANCH  21  22
ENDBRANCH  18  21
ENDBRANCH  14  17
ENDBRANCH   4  11
BRANCH   1  25
HETATM   25  N   UNL     1      40.602  -5.994  16.972  1.00  0.00    -0.339 N 
HETATM   26  H   UNL     1      39.855  -5.355  16.720  1.00  0.00     0.167 HD
BRANCH  25  27
HETATM   27  C   UNL     1      40.380  -6.598  18.229  1.00  0.00     0.033 A 
HETATM   28  C   UNL     1      40.588  -5.916  19.434  1.00  0.00     0.032 A 
HETATM   29  C   UNL     1      40.283  -6.506  20.667  1.00  0.00     0.039 A 
HETATM   30  C   UNL     1      39.741  -7.787  20.715  1.00  0.00     0.068 A 
HETATM   31  C   UNL     1      39.510  -8.469  19.521  1.00  0.00     0.039 A 
HETATM   32  C   UNL     1      39.810  -7.875  18.289  1.00  0.00     0.032 A 
BRANCH  30  33
HETATM   33  O   UNL     1      39.392  -8.473  21.846  1.00  0.00    -0.356 OA
HETATM   34  C   UNL     1      40.226  -9.565  22.212  1.00  0.00     0.210 C 
ENDBRANCH  30  33
ENDBRANCH  25  27
ENDBRANCH   1  25
TORSDOF 8
ENDMDL
MODEL 5
REMARK VINA RESULT:      -7.9      2.748     10.713
REMARK  8 active torsions:
REMARK  status: ('A' for Active; 'I' for Inactive)
REMARK    1  A    between atoms: O_2  and  C_3 
REMARK    2  A    between atoms: C_6  and  N_7 
REMARK    3  A    between atoms: N_7  and  C_8 
REMARK    4  A    between atoms: C_11  and  C_12 
REMARK    5  A    between atoms: C_15  and  C_16 
REMARK       I    between atoms: C_16  and  N_17 
REMARK    6  A    between atoms: N_17  and  C_18 
REMARK    7  A    between atoms: C_18  and  C_19 
REMARK    8  A    between atoms: C_19  and  O_20 
ROOT
HETATM    1  C   UNL     1      44.076  -9.900   8.189  1.00  0.00     0.161 A 
HETATM    2  N   UNL     1      44.839 -11.011   8.271  1.00  0.00    -0.131 NA
HETATM    3  N   UNL     1      44.554 -12.119   7.527  1.00  0.00    -0.147 NA
HETATM    4  C   UNL     1      43.499 -12.120   6.683  1.00  0.00     0.100 A 
HETATM    5  C   UNL     1      42.658 -10.999   6.546  1.00  0.00     0.009 A 
HETATM    6  C   UNL     1      42.964  -9.852   7.317  1.00  0.00     0.024 A 
HETATM    7  C   UNL     1      41.527 -10.962   5.691  1.00  0.00     0.015 A 
HETATM    8  C   UNL     1      40.734  -9.821   5.573  1.00  0.00     0.001 A 
HETATM    9  C   UNL     1      41.049  -8.687   6.306  1.00  0.00     0.001 A 
HETATM   10  C   UNL     1      42.147  -8.703   7.167  1.00  0.00     0.016 A 
ENDROOT
BRANCH   4  11
HETATM   11  C   UNL     1      43.341 -13.385   5.951  1.00  0.00    -0.005 A 
HETATM   12  C   UNL     1      43.596 -14.610   6.591  1.00  0.00     0.015 A 
HETATM   13  C   UNL     1      43.493 -15.822   5.901  1.00  0.00     0.018 A 
HETATM   14  C   UNL     1      43.147 -15.826   4.546  1.00  0.00     0.032 A 
HETATM   15  C   UNL     1      42.875 -14.615   3.899  1.00  0.00     0.018 A 
HETATM   16  C   UNL     1      42.981 -13.405   4.594  1.00  0.00     0.015 A 
BRANCH  14  17
HETATM   17  C   UNL     1      43.052 -17.085   3.758  1.00  0.00     0.251 C 
HETATM   18  N   UNL     1      43.922 -18.095   4.107  1.00  0.00    -0.355 N 
HETATM   19  H   UNL     1      44.667 -17.919   4.768  1.00  0.00     0.162 HD
HETATM   20  O   UNL     1      42.265 -17.172   2.823  1.00  0.00    -0.268 OA
BRANCH  18  21
HETATM   21  C   UNL     1      43.965 -19.348   3.370  1.00  0.00     0.148 C 
BRANCH  21  22
HETATM   22  C   UNL     1      43.973 -20.566   4.294  1.00  0.00     0.183 C 
BRANCH  22  23
HETATM   23  O   UNL     1      44.182 -21.756   3.533  1.00  0.00    -0.399 OA
HETATM   24  H   UNL     1      43.591 -22.426   3.923  1.00  0.00     0.209 HD
ENDBRANCH  22  23
ENDBRANCH  21  22
ENDBRANCH  18  21
ENDBRANCH  14  17
ENDBRANCH   4  11
BRANCH   1  25
HETATM   25  N   UNL     1      44.369  -8.778   9.011  1.00  0.00    -0.339 N 
HETATM   26  H   UNL     1      44.555  -7.980   8.413  1.00  0.00     0.167 HD
BRANCH  25  27
HETATM   27  C   UNL     1      43.719  -8.404  10.207  1.00  0.00     0.033 A 
HETATM   28  C   UNL     1      42.970  -7.227  10.315  1.00  0.00     0.032 A 
HETATM   29  C   UNL     1      42.265  -6.916  11.485  1.00  0.00     0.039 A 
HETATM   30  C   UNL     1      42.281  -7.793  12.566  1.00  0.00     0.068 A 
HETATM   31  C   UNL     1      43.007  -8.979  12.463  1.00  0.00     0.039 A 
HETATM   32  C   UNL     1      43.706  -9.290  11.291  1.00  0.00     0.032 A 
BRANCH  30  33
HETATM   33  O   UNL     1      41.633  -7.616  13.757  1.00  0.00    -0.356 OA
HETATM   34  C   UNL     1      41.799  -8.638  14.732  1.00  0.00     0.210 C 
ENDBRANCH  30  33
ENDBRANCH  25  27
ENDBRANCH   1  25
TORSDOF 8
ENDMDL
MODEL 6
REMARK VINA RESULT:      -7.8      4.531     12.308
REMARK  8 active torsions:
REMARK  status: ('A' for Active; 'I' for Inactive)
REMARK    1  A    between atoms: O_2  and  C_3 
REMARK    2  A    between atoms: C_6  and  N_7 
REMARK    3  A    between atoms: N_7  and  C_8 
REMARK    4  A    between atoms: C_11  and  C_12 
REMARK    5  A    between atoms: C_15  and  C_16 
REMARK       I    between atoms: C_16  and  N_17 
REMARK    6  A    between atoms: N_17  and  C_18 
REMARK    7  A    between atoms: C_18  and  C_19 
REMARK    8  A    between atoms: C_19  and  O_20 
ROOT
HETATM    1  C   UNL     1      44.216 -11.836   5.882  1.00  0.00     0.161 A 
HETATM    2  N   UNL     1      44.212 -11.024   4.804  1.00  0.00    -0.131 NA
HETATM    3  N   UNL     1      43.467 -11.322   3.700  1.00  0.00    -0.147 NA
HETATM    4  C   UNL     1      42.710 -12.441   3.670  1.00  0.00     0.100 A 
HETATM    5  C   UNL     1      42.666 -13.334   4.756  1.00  0.00     0.009 A 
HETATM    6  C   UNL     1      43.436 -13.015   5.900  1.00  0.00     0.024 A 
HETATM    7  C   UNL     1      41.904 -14.531   4.762  1.00  0.00     0.015 A 
HETATM    8  C   UNL     1      41.875 -15.376   5.871  1.00  0.00     0.001 A 
HETATM    9  C   UNL     1      42.607 -15.051   7.002  1.00  0.00     0.001 A 
HETATM   10  C   UNL     1      43.377 -13.888   7.016  1.00  0.00     0.016 A 
ENDROOT
BRANCH   4  11
HETATM   11  C   UNL     1      41.964 -12.604   2.414  1.00  0.00    -0.005 A 
HETATM   12  C   UNL     1      41.663 -13.889   1.931  1.00  0.00     0.015 A 
HETATM   13  C   UNL     1      40.990 -14.067   0.717  1.00  0.00     0.018 A 
HETATM   14  C   UNL     1      40.621 -12.954  -0.045  1.00  0.00     0.032 A 
HETATM   15  C   UNL     1      40.900 -11.668   0.431  1.00  0.00     0.018 A 
HETATM   16  C   UNL     1      41.574 -11.496   1.645  1.00  0.00     0.015 A 
BRANCH  14  17
HETATM   17  C   UNL     1      39.931 -13.088  -1.357  1.00  0.00     0.251 C 
HETATM   18  N   UNL     1      38.674 -13.652  -1.335  1.00  0.00    -0.355 N 
HETATM   19  H   UNL     1      38.320 -14.072  -0.486  1.00  0.00     0.162 HD
HETATM   20  O   UNL     1      40.496 -12.748  -2.390  1.00  0.00    -0.268 OA
BRANCH  18  21
HETATM   21  C   UNL     1      37.928 -13.890  -2.561  1.00  0.00     0.148 C 
BRANCH  21  22
HETATM   22  C   UNL     1      38.356 -15.181  -3.259  1.00  0.00     0.183 C 
BRANCH  22  23
HETATM   23  O   UNL     1      38.273 -16.280  -2.352  1.00  0.00    -0.399 OA
HETATM   24  H   UNL     1      38.937 -16.925  -2.656  1.00  0.00     0.209 HD
ENDBRANCH  22  23
ENDBRANCH  21  22
ENDBRANCH  18  21
ENDBRANCH  14  17
ENDBRANCH   4  11
BRANCH   1  25
HETATM   25  N   UNL     1      45.038 -11.524   6.999  1.00  0.00    -0.339 N 
HETATM   26  H   UNL     1      45.980 -11.348   6.667  1.00  0.00     0.167 HD
BRANCH  25  27
HETATM   27  C   UNL     1      44.704 -10.708   8.102  1.00  0.00     0.033 A 
HETATM   28  C   UNL     1      43.384 -10.346   8.393  1.00  0.00     0.032 A 
HETATM   29  C   UNL     1      43.066  -9.605   9.539  1.00  0.00     0.039 A 
HETATM   30  C   UNL     1      44.069  -9.231  10.430  1.00  0.00     0.068 A 
HETATM   31  C   UNL     1      45.386  -9.603  10.162  1.00  0.00     0.039 A 
HETATM   32  C   UNL     1      45.699 -10.348   9.020  1.00  0.00     0.032 A 
BRANCH  30  33
HETATM   33  O   UNL     1      43.896  -8.517  11.584  1.00  0.00    -0.356 OA
HETATM   34  C   UNL     1      42.800  -8.894  12.408  1.00  0.00     0.210 C 
ENDBRANCH  30  33
ENDBRANCH  25  27
ENDBRANCH   1  25
TORSDOF 8
ENDMDL
MODEL 7
REMARK VINA RESULT:      -7.8     11.562     14.105
REMARK  8 active torsions:
REMARK  status: ('A' for Active; 'I' for Inactive)
REMARK    1  A    between atoms: O_2  and  C_3 
REMARK    2  A    between atoms: C_6  and  N_7 
REMARK    3  A    between atoms: N_7  and  C_8 
REMARK    4  A    between atoms: C_11  and  C_12 
REMARK    5  A    between atoms: C_15  and  C_16 
REMARK       I    between atoms: C_16  and  N_17 
REMARK    6  A    between atoms: N_17  and  C_18 
REMARK    7  A    between atoms: C_18  and  C_19 
REMARK    8  A    between atoms: C_19  and  O_20 
ROOT
HETATM    1  C   UNL     1      38.518 -11.371  -0.782  1.00  0.00     0.161 A 
HETATM    2  N   UNL     1      39.111 -11.159   0.412  1.00  0.00    -0.131 NA
HETATM    3  N   UNL     1      39.787 -12.157   1.051  1.00  0.00    -0.147 NA
HETATM    4  C   UNL     1      39.881 -13.383   0.491  1.00  0.00     0.100 A 
HETATM    5  C   UNL     1      39.288 -13.678  -0.750  1.00  0.00     0.009 A 
HETATM    6  C   UNL     1      38.593 -12.636  -1.409  1.00  0.00     0.024 A 
HETATM    7  C   UNL     1      39.340 -14.955  -1.365  1.00  0.00     0.015 A 
HETATM    8  C   UNL     1      38.754 -15.195  -2.608  1.00  0.00     0.001 A 
HETATM    9  C   UNL     1      38.097 -14.168  -3.268  1.00  0.00     0.001 A 
HETATM   10  C   UNL     1      38.017 -12.907  -2.676  1.00  0.00     0.016 A 
ENDROOT
BRANCH   4  11
HETATM   11  C   UNL     1      40.652 -14.335   1.304  1.00  0.00    -0.005 A 
HETATM   12  C   UNL     1      42.045 -14.436   1.146  1.00  0.00     0.015 A 
HETATM   13  C   UNL     1      42.791 -15.365   1.880  1.00  0.00     0.018 A 
HETATM   14  C   UNL     1      42.148 -16.224   2.776  1.00  0.00     0.032 A 
HETATM   15  C   UNL     1      40.763 -16.124   2.955  1.00  0.00     0.018 A 
HETATM   16  C   UNL     1      40.022 -15.195   2.218  1.00  0.00     0.015 A 
BRANCH  14  17
HETATM   17  C   UNL     1      42.890 -17.249   3.558  1.00  0.00     0.251 C 
HETATM   18  N   UNL     1      43.586 -18.192   2.831  1.00  0.00    -0.355 N 
HETATM   19  H   UNL     1      43.469 -18.248   1.829  1.00  0.00     0.162 HD
HETATM   20  O   UNL     1      42.828 -17.258   4.783  1.00  0.00    -0.268 OA
BRANCH  18  21
HETATM   21  C   UNL     1      44.298 -19.279   3.485  1.00  0.00     0.148 C 
BRANCH  21  22
HETATM   22  C   UNL     1      43.679 -20.643   3.181  1.00  0.00     0.183 C 
BRANCH  22  23
HETATM   23  O   UNL     1      43.866 -20.970   1.804  1.00  0.00    -0.399 OA
HETATM   24  H   UNL     1      42.972 -21.008   1.417  1.00  0.00     0.209 HD
ENDBRANCH  22  23
ENDBRANCH  21  22
ENDBRANCH  18  21
ENDBRANCH  14  17
ENDBRANCH   4  11
BRANCH   1  25
HETATM   25  N   UNL     1      37.781 -10.326  -1.401  1.00  0.00    -0.339 N 
HETATM   26  H   UNL     1      37.985 -10.331  -2.395  1.00  0.00     0.167 HD
BRANCH  25  27
HETATM   27  C   UNL     1      36.445  -9.952  -1.137  1.00  0.00     0.033 A 
HETATM   28  C   UNL     1      35.994  -9.648   0.152  1.00  0.00     0.032 A 
HETATM   29  C   UNL     1      34.686  -9.199   0.381  1.00  0.00     0.039 A 
HETATM   30  C   UNL     1      33.810  -9.025  -0.687  1.00  0.00     0.068 A 
HETATM   31  C   UNL     1      34.254  -9.305  -1.979  1.00  0.00     0.039 A 
HETATM   32  C   UNL     1      35.562  -9.748  -2.205  1.00  0.00     0.032 A 
BRANCH  30  33
HETATM   33  O   UNL     1      32.516  -8.589  -0.604  1.00  0.00    -0.356 OA
HETATM   34  C   UNL     1      31.639  -8.993  -1.648  1.00  0.00     0.210 C 
ENDBRANCH  30  33
ENDBRANCH  25  27
ENDBRANCH   1  25
TORSDOF 8
ENDMDL
MODEL 8
REMARK VINA RESULT:      -7.6     22.671     23.884
REMARK  8 active torsions:
REMARK  status: ('A' for Active; 'I' for Inactive)
REMARK    1  A    between atoms: O_2  and  C_3 
REMARK    2  A    between atoms: C_6  and  N_7 
REMARK    3  A    between atoms: N_7  and  C_8 
REMARK    4  A    between atoms: C_11  and  C_12 
REMARK    5  A    between atoms: C_15  and  C_16 
REMARK       I    between atoms: C_16  and  N_17 
REMARK    6  A    between atoms: N_17  and  C_18 
REMARK    7  A    between atoms: C_18  and  C_19 
REMARK    8  A    between atoms: C_19  and  O_20 
ROOT
HETATM    1  C   UNL     1      46.203 -28.805   0.430  1.00  0.00     0.161 A 
HETATM    2  N   UNL     1      47.535 -28.635   0.292  1.00  0.00    -0.131 NA
HETATM    3  N   UNL     1      48.414 -29.218   1.158  1.00  0.00    -0.147 NA
HETATM    4  C   UNL     1      47.961 -29.986   2.173  1.00  0.00     0.100 A 
HETATM    5  C   UNL     1      46.587 -30.207   2.380  1.00  0.00     0.009 A 
HETATM    6  C   UNL     1      45.682 -29.604   1.474  1.00  0.00     0.024 A 
HETATM    7  C   UNL     1      46.064 -30.985   3.445  1.00  0.00     0.015 A 
HETATM    8  C   UNL     1      44.693 -31.193   3.597  1.00  0.00     0.001 A 
HETATM    9  C   UNL     1      43.808 -30.626   2.694  1.00  0.00     0.001 A 
HETATM   10  C   UNL     1      44.295 -29.842   1.648  1.00  0.00     0.016 A 
ENDROOT
BRANCH   4  11
HETATM   11  C   UNL     1      49.038 -30.546   3.003  1.00  0.00    -0.005 A 
HETATM   12  C   UNL     1      49.544 -31.830   2.736  1.00  0.00     0.015 A 
HETATM   13  C   UNL     1      50.539 -32.397   3.540  1.00  0.00     0.018 A 
HETATM   14  C   UNL     1      51.035 -31.689   4.640  1.00  0.00     0.032 A 
HETATM   15  C   UNL     1      50.552 -30.403   4.908  1.00  0.00     0.018 A 
HETATM   16  C   UNL     1      49.556 -29.842   4.102  1.00  0.00     0.015 A 
BRANCH  14  17
HETATM   17  C   UNL     1      52.071 -32.258   5.543  1.00  0.00     0.251 C 
HETATM   18  N   UNL     1      53.179 -31.472   5.779  1.00  0.00    -0.355 N 
HETATM   19  H   UNL     1      53.323 -30.625   5.248  1.00  0.00     0.162 HD
HETATM   20  O   UNL     1      51.940 -33.387   6.002  1.00  0.00    -0.268 OA
BRANCH  18  21
HETATM   21  C   UNL     1      54.285 -31.947   6.596  1.00  0.00     0.148 C 
BRANCH  21  22
HETATM   22  C   UNL     1      54.314 -31.286   7.974  1.00  0.00     0.183 C 
BRANCH  22  23
HETATM   23  O   UNL     1      54.288 -29.865   7.836  1.00  0.00    -0.399 OA
HETATM   24  H   UNL     1      54.839 -29.664   7.058  1.00  0.00     0.209 HD
ENDBRANCH  22  23
ENDBRANCH  21  22
ENDBRANCH  18  21
ENDBRANCH  14  17
ENDBRANCH   4  11
BRANCH   1  25
HETATM   25  N   UNL     1      45.311 -28.148  -0.460  1.00  0.00    -0.339 N 
HETATM   26  H   UNL     1      45.472 -27.148  -0.399  1.00  0.00     0.167 HD
BRANCH  25  27
HETATM   27  C   UNL     1      44.960 -28.548  -1.768  1.00  0.00     0.033 A 
HETATM   28  C   UNL     1      45.462 -27.907  -2.906  1.00  0.00     0.032 A 
HETATM   29  C   UNL     1      45.167 -28.372  -4.195  1.00  0.00     0.039 A 
HETATM   30  C   UNL     1      44.378 -29.506  -4.366  1.00  0.00     0.068 A 
HETATM   31  C   UNL     1      43.888 -30.166  -3.238  1.00  0.00     0.039 A 
HETATM   32  C   UNL     1      44.189 -29.702  -1.953  1.00  0.00     0.032 A 
BRANCH  30  33
HETATM   33  O   UNL     1      44.023 -30.068  -5.561  1.00  0.00    -0.356 OA
HETATM   34  C   UNL     1      44.343 -31.442  -5.740  1.00  0.00     0.210 C 
ENDBRANCH  30  33
ENDBRANCH  25  27
ENDBRANCH   1  25
TORSDOF 8
ENDMDL
MODEL 9
REMARK VINA RESULT:      -7.6      1.962      2.577
REMARK  8 active torsions:
REMARK  status: ('A' for Active; 'I' for Inactive)
REMARK    1  A    between atoms: O_2  and  C_3 
REMARK    2  A    between atoms: C_6  and  N_7 
REMARK    3  A    between atoms: N_7  and  C_8 
REMARK    4  A    between atoms: C_11  and  C_12 
REMARK    5  A    between atoms: C_15  and  C_16 
REMARK       I    between atoms: C_16  and  N_17 
REMARK    6  A    between atoms: N_17  and  C_18 
REMARK    7  A    between atoms: C_18  and  C_19 
REMARK    8  A    between atoms: C_19  and  O_20 
ROOT
HETATM    1  C   UNL     1      42.047  -9.658   7.957  1.00  0.00     0.161 A 
HETATM    2  N   UNL     1      40.964  -9.244   8.648  1.00  0.00    -0.131 NA
HETATM    3  N   UNL     1      41.059  -8.888   9.962  1.00  0.00    -0.147 NA
HETATM    4  C   UNL     1      42.251  -8.940  10.597  1.00  0.00     0.100 A 
HETATM    5  C   UNL     1      43.422  -9.364   9.942  1.00  0.00     0.009 A 
HETATM    6  C   UNL     1      43.316  -9.725   8.578  1.00  0.00     0.024 A 
HETATM    7  C   UNL     1      44.689  -9.457  10.574  1.00  0.00     0.015 A 
HETATM    8  C   UNL     1      45.827  -9.863   9.877  1.00  0.00     0.001 A 
HETATM    9  C   UNL     1      45.730 -10.191   8.534  1.00  0.00     0.001 A 
HETATM   10  C   UNL     1      44.492 -10.124   7.893  1.00  0.00     0.016 A 
ENDROOT
BRANCH   4  11
HETATM   11  C   UNL     1      42.179  -8.513  12.002  1.00  0.00    -0.005 A 
HETATM   12  C   UNL     1      41.766  -9.417  12.997  1.00  0.00     0.015 A 
HETATM   13  C   UNL     1      41.651  -9.019  14.333  1.00  0.00     0.018 A 
HETATM   14  C   UNL     1      41.934  -7.698  14.694  1.00  0.00     0.032 A 
HETATM   15  C   UNL     1      42.362  -6.791  13.717  1.00  0.00     0.018 A 
HETATM   16  C   UNL     1      42.474  -7.194  12.382  1.00  0.00     0.015 A 
BRANCH  14  17
HETATM   17  C   UNL     1      41.799  -7.216  16.095  1.00  0.00     0.251 C 
HETATM   18  N   UNL     1      41.280  -8.111  17.006  1.00  0.00    -0.355 N 
HETATM   19  H   UNL     1      40.890  -8.989  16.691  1.00  0.00     0.162 HD
HETATM   20  O   UNL     1      42.097  -6.062  16.384  1.00  0.00    -0.268 OA
BRANCH  18  21
HETATM   21  C   UNL     1      41.045  -7.734  18.391  1.00  0.00     0.148 C 
BRANCH  21  22
HETATM   22  C   UNL     1      42.269  -7.973  19.274  1.00  0.00     0.183 C 
BRANCH  22  23
HETATM   23  O   UNL     1      43.177  -6.877  19.160  1.00  0.00    -0.399 OA
HETATM   24  H   UNL     1      44.063  -7.249  19.321  1.00  0.00     0.209 HD
ENDBRANCH  22  23
ENDBRANCH  21  22
ENDBRANCH  18  21
ENDBRANCH  14  17
ENDBRANCH   4  11
BRANCH   1  25
HETATM   25  N   UNL     1      41.908 -10.067   6.603  1.00  0.00    -0.339 N 
HETATM   26  H   UNL     1      42.674  -9.672   6.066  1.00  0.00     0.167 HD
BRANCH  25  27
HETATM   27  C   UNL     1      41.535 -11.345   6.131  1.00  0.00     0.033 A 
HETATM   28  C   UNL     1      40.200 -11.758   6.068  1.00  0.00     0.032 A 
HETATM   29  C   UNL     1      39.845 -12.998   5.520  1.00  0.00     0.039 A 
HETATM   30  C   UNL     1      40.826 -13.840   5.003  1.00  0.00     0.068 A 
HETATM   31  C   UNL     1      42.158 -13.431   5.042  1.00  0.00     0.039 A 
HETATM   32  C   UNL     1      42.509 -12.190   5.585  1.00  0.00     0.032 A 
BRANCH  30  33
HETATM   33  O   UNL     1      40.616 -15.067   4.436  1.00  0.00    -0.356 OA
HETATM   34  C   UNL     1      41.600 -15.520   3.514  1.00  0.00     0.210 C 
ENDBRANCH  30  33
ENDBRANCH  25  27
ENDBRANCH   1  25
TORSDOF 8
ENDMDL
MODEL 10
REMARK VINA RESULT:      -7.4     22.260     26.227
REMARK  8 active torsions:
REMARK  status: ('A' for Active; 'I' for Inactive)
REMARK    1  A    between atoms: O_2  and  C_3 
REMARK    2  A    between atoms: C_6  and  N_7 
REMARK    3  A    between atoms: N_7  and  C_8 
REMARK    4  A    between atoms: C_11  and  C_12 
REMARK    5  A    between atoms: C_15  and  C_16 
REMARK       I    between atoms: C_16  and  N_17 
REMARK    6  A    between atoms: N_17  and  C_18 
REMARK    7  A    between atoms: C_18  and  C_19 
REMARK    8  A    between atoms: C_19  and  O_20 
ROOT
HETATM    1  C   UNL     1      46.314 -29.327   0.963  1.00  0.00     0.161 A 
HETATM    2  N   UNL     1      47.373 -30.034   1.413  1.00  0.00    -0.131 NA
HETATM    3  N   UNL     1      48.307 -30.530   0.551  1.00  0.00    -0.147 NA
HETATM    4  C   UNL     1      48.189 -30.315  -0.779  1.00  0.00     0.100 A 
HETATM    5  C   UNL     1      47.112 -29.589  -1.320  1.00  0.00     0.009 A 
HETATM    6  C   UNL     1      46.151 -29.072  -0.418  1.00  0.00     0.024 A 
HETATM    7  C   UNL     1      46.935 -29.358  -2.708  1.00  0.00     0.015 A 
HETATM    8  C   UNL     1      45.861 -28.614  -3.196  1.00  0.00     0.001 A 
HETATM    9  C   UNL     1      44.934 -28.084  -2.312  1.00  0.00     0.001 A 
HETATM   10  C   UNL     1      45.077 -28.311  -0.943  1.00  0.00     0.016 A 
ENDROOT
BRANCH   4  11
HETATM   11  C   UNL     1      49.284 -30.907  -1.562  1.00  0.00    -0.005 A 
HETATM   12  C   UNL     1      50.530 -30.262  -1.638  1.00  0.00     0.015 A 
HETATM   13  C   UNL     1      51.571 -30.787  -2.412  1.00  0.00     0.018 A 
HETATM   14  C   UNL     1      51.373 -31.966  -3.138  1.00  0.00     0.032 A 
HETATM   15  C   UNL     1      50.143 -32.628  -3.059  1.00  0.00     0.018 A 
HETATM   16  C   UNL     1      49.105 -32.097  -2.285  1.00  0.00     0.015 A 
BRANCH  14  17
HETATM   17  C   UNL     1      52.436 -32.550  -4.000  1.00  0.00     0.251 C 
HETATM   18  N   UNL     1      53.718 -32.086  -3.794  1.00  0.00    -0.355 N 
HETATM   19  H   UNL     1      53.881 -31.294  -3.188  1.00  0.00     0.162 HD
HETATM   20  O   UNL     1      52.150 -33.365  -4.869  1.00  0.00    -0.268 OA
BRANCH  18  21
HETATM   21  C   UNL     1      54.829 -32.539  -4.617  1.00  0.00     0.148 C 
BRANCH  21  22
HETATM   22  C   UNL     1      55.156 -31.557  -5.742  1.00  0.00     0.183 C 
BRANCH  22  23
HETATM   23  O   UNL     1      54.541 -30.294  -5.483  1.00  0.00    -0.399 OA
HETATM   24  H   UNL     1      54.717 -30.101  -4.545  1.00  0.00     0.209 HD
ENDBRANCH  22  23
ENDBRANCH  21  22
ENDBRANCH  18  21
ENDBRANCH  14  17
ENDBRANCH   4  11
BRANCH   1  25
HETATM   25  N   UNL     1      45.333 -28.863   1.881  1.00  0.00    -0.339 N 
HETATM   26  H   UNL     1      45.109 -27.899   1.654  1.00  0.00     0.167 HD
BRANCH  25  27
HETATM   27  C   UNL     1      44.208 -29.570   2.357  1.00  0.00     0.033 A 
HETATM   28  C   UNL     1      42.903 -29.257   1.959  1.00  0.00     0.032 A 
HETATM   29  C   UNL     1      41.808 -30.023   2.379  1.00  0.00     0.039 A 
HETATM   30  C   UNL     1      42.005 -31.137   3.192  1.00  0.00     0.068 A 
HETATM   31  C   UNL     1      43.302 -31.471   3.579  1.00  0.00     0.039 A 
HETATM   32  C   UNL     1      44.394 -30.706   3.154  1.00  0.00     0.032 A 
BRANCH  30  33
HETATM   33  O   UNL     1      41.029 -31.971   3.664  1.00  0.00    -0.356 OA
HETATM   34  C   UNL     1      39.945 -32.247   2.786  1.00  0.00     0.210 C 
ENDBRANCH  30  33
ENDBRANCH  25  27
ENDBRANCH   1  25
TORSDOF 8
ENDMDL
