MODEL 1
REMARK VINA RESULT:      -8.9      0.000      0.000
REMARK  8 active torsions:
REMARK  status: ('A' for Active; 'I' for Inactive)
REMARK    1  A    between atoms: C_2  and  C_3 
REMARK    2  A    between atoms: C_4  and  O_5 
REMARK    3  A    between atoms: N_10  and  N_11 
REMARK       I    between atoms: N_11  and  C_12 
REMARK    4  A    between atoms: C_12  and  C_13 
REMARK    5  A    between atoms: C_13  and  N_14 
REMARK       I    between atoms: N_14  and  C_15 
REMARK    6  A    between atoms: C_15  and  C_16 
REMARK    7  A    between atoms: C_16  and  N_17 
REMARK       I    between atoms: N_17  and  C_18 
REMARK    8  A    between atoms: C_18  and  C_19 
ROOT
HETATM    1  C   UNL     1      42.871 -12.526   6.113  1.00  0.00     0.227 C 
ENDROOT
BRANCH   1   2
HETATM    2  C   UNL     1      43.171 -14.018   5.952  1.00  0.00     0.255 C 
HETATM    3  N   UNL     1      42.594 -14.605   4.838  1.00  0.00    -0.246 N 
HETATM    4  H   UNL     1      42.155 -14.020   4.132  1.00  0.00     0.192 HD
HETATM    5  O   UNL     1      43.779 -14.640   6.824  1.00  0.00    -0.270 OA
BRANCH   3   6
HETATM    6  N   UNL     1      42.758 -15.943   4.641  1.00  0.00    -0.176 NA
HETATM    7  C   UNL     1      43.151 -16.383   3.482  1.00  0.00     0.064 C 
HETATM    8  C   UNL     1      43.383 -15.494   2.284  1.00  0.00     0.073 C 
BRANCH   7   9
HETATM    9  C   UNL     1      43.364 -17.857   3.332  1.00  0.00     0.023 A 
HETATM   10  C   UNL     1      43.966 -18.598   4.361  1.00  0.00     0.077 A 
HETATM   11  C   UNL     1      44.135 -19.977   4.237  1.00  0.00     0.037 A 
HETATM   12  C   UNL     1      43.726 -20.629   3.075  1.00  0.00     0.003 A 
HETATM   13  C   UNL     1      43.155 -19.901   2.034  1.00  0.00     0.001 A 
HETATM   14  C   UNL     1      42.976 -18.520   2.159  1.00  0.00     0.016 A 
BRANCH  10  15
HETATM   15  O   UNL     1      44.415 -18.042   5.528  1.00  0.00    -0.360 OA
HETATM   16  H   UNL     1      45.167 -18.587   5.860  1.00  0.00     0.217 HD
ENDBRANCH  10  15
ENDBRANCH   7   9
ENDBRANCH   3   6
ENDBRANCH   1   2
BRANCH   1  17
HETATM   17  N   UNL     1      43.770 -11.760   6.963  1.00  0.00    -0.351 N 
HETATM   18  C   UNL     1      44.973 -11.275   6.499  1.00  0.00     0.235 C 
HETATM   19  O   UNL     1      45.298 -11.292   5.315  1.00  0.00    -0.272 OA
HETATM   20  H   UNL     1      43.478 -11.502   7.903  1.00  0.00     0.163 HD
BRANCH  18  21
HETATM   21  C   UNL     1      45.848 -10.645   7.583  1.00  0.00     0.225 C 
BRANCH  21  22
HETATM   22  N   UNL     1      45.055 -10.171   8.696  1.00  0.00    -0.348 N 
HETATM   23  C   UNL     1      44.874  -8.834   8.937  1.00  0.00     0.253 C 
HETATM   24  O   UNL     1      45.488  -7.990   8.283  1.00  0.00    -0.268 OA
HETATM   25  H   UNL     1      44.650 -10.865   9.314  1.00  0.00     0.163 HD
BRANCH  23  26
HETATM   26  C   UNL     1      43.927  -8.413  10.023  1.00  0.00     0.053 A 
HETATM   27  C   UNL     1      42.927  -7.431   9.933  1.00  0.00     0.049 A 
HETATM   28 CL   UNL     1      42.609  -6.479   8.524  1.00  0.00    -0.083 Cl
HETATM   29  C   UNL     1      42.098  -7.163  11.035  1.00  0.00     0.025 A 
HETATM   30  C   UNL     1      42.250  -7.861  12.231  1.00  0.00     0.002 A 
HETATM   31  C   UNL     1      43.244  -8.826  12.341  1.00  0.00     0.001 A 
HETATM   32  C   UNL     1      44.077  -9.090  11.252  1.00  0.00     0.019 A 
ENDBRANCH  23  26
ENDBRANCH  21  22
ENDBRANCH  18  21
ENDBRANCH   1  17
TORSDOF 8
ENDMDL
MODEL 2
REMARK VINA RESULT:      -8.8      5.593      9.111
REMARK  8 active torsions:
REMARK  status: ('A' for Active; 'I' for Inactive)
REMARK    1  A    between atoms: C_2  and  C_3 
REMARK    2  A    between atoms: C_4  and  O_5 
REMARK    3  A    between atoms: N_10  and  N_11 
REMARK       I    between atoms: N_11  and  C_12 
REMARK    4  A    between atoms: C_12  and  C_13 
REMARK    5  A    between atoms: C_13  and  N_14 
REMARK       I    between atoms: N_14  and  C_15 
REMARK    6  A    between atoms: C_15  and  C_16 
REMARK    7  A    between atoms: C_16  and  N_17 
REMARK       I    between atoms: N_17  and  C_18 
REMARK    8  A    between atoms: C_18  and  C_19 
ROOT
HETATM    1  C   UNL     1      40.212 -13.806   5.938  1.00  0.00     0.227 C 
ENDROOT
BRANCH   1   2
HETATM    2  C   UNL     1      40.513 -13.380   4.500  1.00  0.00     0.255 C 
HETATM    3  N   UNL     1      39.481 -13.606   3.603  1.00  0.00    -0.246 N 
HETATM    4  H   UNL     1      38.565 -13.880   3.951  1.00  0.00     0.192 HD
HETATM    5  O   UNL     1      41.634 -12.985   4.177  1.00  0.00    -0.270 OA
BRANCH   3   6
HETATM    6  N   UNL     1      39.677 -13.312   2.288  1.00  0.00    -0.176 NA
HETATM    7  C   UNL     1      39.923 -14.268   1.441  1.00  0.00     0.064 C 
HETATM    8  C   UNL     1      40.074 -15.717   1.835  1.00  0.00     0.073 C 
BRANCH   7   9
HETATM    9  C   UNL     1      40.081 -13.897  -0.001  1.00  0.00     0.023 A 
HETATM   10  C   UNL     1      40.754 -12.720  -0.364  1.00  0.00     0.077 A 
HETATM   11  C   UNL     1      40.931 -12.389  -1.708  1.00  0.00     0.037 A 
HETATM   12  C   UNL     1      40.419 -13.218  -2.704  1.00  0.00     0.003 A 
HETATM   13  C   UNL     1      39.722 -14.374  -2.357  1.00  0.00     0.001 A 
HETATM   14  C   UNL     1      39.551 -14.712  -1.011  1.00  0.00     0.016 A 
BRANCH  10  15
HETATM   15  O   UNL     1      41.274 -11.838   0.544  1.00  0.00    -0.360 OA
HETATM   16  H   UNL     1      42.085 -12.241   0.935  1.00  0.00     0.217 HD
ENDBRANCH  10  15
ENDBRANCH   7   9
ENDBRANCH   3   6
ENDBRANCH   1   2
BRANCH   1  17
HETATM   17  N   UNL     1      40.872 -15.008   6.423  1.00  0.00    -0.351 N 
HETATM   18  C   UNL     1      42.170 -14.989   6.887  1.00  0.00     0.235 C 
HETATM   19  O   UNL     1      42.799 -13.956   7.093  1.00  0.00    -0.272 OA
HETATM   20  H   UNL     1      40.346 -15.876   6.500  1.00  0.00     0.163 HD
BRANCH  18  21
HETATM   21  C   UNL     1      42.740 -16.374   7.192  1.00  0.00     0.225 C 
BRANCH  21  22
HETATM   22  N   UNL     1      42.686 -17.238   6.033  1.00  0.00    -0.348 N 
HETATM   23  C   UNL     1      43.801 -17.511   5.283  1.00  0.00     0.253 C 
HETATM   24  O   UNL     1      44.862 -16.924   5.500  1.00  0.00    -0.268 OA
HETATM   25  H   UNL     1      41.785 -17.625   5.775  1.00  0.00     0.163 HD
BRANCH  23  26
HETATM   26  C   UNL     1      43.705 -18.525   4.180  1.00  0.00     0.053 A 
HETATM   27  C   UNL     1      43.914 -19.909   4.290  1.00  0.00     0.049 A 
HETATM   28 CL   UNL     1      44.361 -20.723   5.749  1.00  0.00    -0.083 Cl
HETATM   29  C   UNL     1      43.762 -20.738   3.165  1.00  0.00     0.025 A 
HETATM   30  C   UNL     1      43.404 -20.207   1.928  1.00  0.00     0.002 A 
HETATM   31  C   UNL     1      43.206 -18.838   1.800  1.00  0.00     0.001 A 
HETATM   32  C   UNL     1      43.364 -18.008   2.912  1.00  0.00     0.019 A 
ENDBRANCH  23  26
ENDBRANCH  21  22
ENDBRANCH  18  21
ENDBRANCH   1  17
TORSDOF 8
ENDMDL
MODEL 3
REMARK VINA RESULT:      -8.8      2.885     10.597
REMARK  8 active torsions:
REMARK  status: ('A' for Active; 'I' for Inactive)
REMARK    1  A    between atoms: C_2  and  C_3 
REMARK    2  A    between atoms: C_4  and  O_5 
REMARK    3  A    between atoms: N_10  and  N_11 
REMARK       I    between atoms: N_11  and  C_12 
REMARK    4  A    between atoms: C_12  and  C_13 
REMARK    5  A    between atoms: C_13  and  N_14 
REMARK       I    between atoms: N_14  and  C_15 
REMARK    6  A    between atoms: C_15  and  C_16 
REMARK    7  A    between atoms: C_16  and  N_17 
REMARK       I    between atoms: N_17  and  C_18 
REMARK    8  A    between atoms: C_18  and  C_19 
ROOT
HETATM    1  C   UNL     1      44.730 -11.008   6.866  1.00  0.00     0.227 C 
ENDROOT
BRANCH   1   2
HETATM    2  C   UNL     1      44.567 -10.806   8.374  1.00  0.00     0.255 C 
HETATM    3  N   UNL     1      43.299 -10.411   8.769  1.00  0.00    -0.246 N 
HETATM    4  H   UNL     1      42.536 -10.429   8.097  1.00  0.00     0.192 HD
HETATM    5  O   UNL     1      45.535 -10.878   9.132  1.00  0.00    -0.270 OA
BRANCH   3   6
HETATM    6  N   UNL     1      43.073 -10.152  10.087  1.00  0.00    -0.176 NA
HETATM    7  C   UNL     1      42.769  -8.944  10.465  1.00  0.00     0.064 C 
HETATM    8  C   UNL     1      42.712  -7.763   9.527  1.00  0.00     0.073 C 
BRANCH   7   9
HETATM    9  C   UNL     1      42.481  -8.722  11.917  1.00  0.00     0.023 A 
HETATM   10  C   UNL     1      41.439  -9.415  12.552  1.00  0.00     0.077 A 
HETATM   11  C   UNL     1      41.191  -9.234  13.913  1.00  0.00     0.037 A 
HETATM   12  C   UNL     1      41.966  -8.341  14.651  1.00  0.00     0.003 A 
HETATM   13  C   UNL     1      42.984  -7.623  14.026  1.00  0.00     0.001 A 
HETATM   14  C   UNL     1      43.241  -7.810  12.665  1.00  0.00     0.016 A 
BRANCH  10  15
HETATM   15  O   UNL     1      40.617 -10.297  11.905  1.00  0.00    -0.360 OA
HETATM   16  H   UNL     1      40.951 -11.209  12.073  1.00  0.00     0.217 HD
ENDBRANCH  10  15
ENDBRANCH   7   9
ENDBRANCH   3   6
ENDBRANCH   1   2
BRANCH   1  17
HETATM   17  N   UNL     1      43.860 -11.988   6.233  1.00  0.00    -0.351 N 
HETATM   18  C   UNL     1      43.550 -11.926   4.892  1.00  0.00     0.235 C 
HETATM   19  O   UNL     1      44.109 -11.170   4.103  1.00  0.00    -0.272 OA
HETATM   20  H   UNL     1      43.529 -12.788   6.768  1.00  0.00     0.163 HD
BRANCH  18  21
HETATM   21  C   UNL     1      42.492 -12.939   4.453  1.00  0.00     0.225 C 
BRANCH  21  22
HETATM   22  N   UNL     1      43.062 -14.255   4.262  1.00  0.00    -0.348 N 
HETATM   23  C   UNL     1      42.280 -15.378   4.194  1.00  0.00     0.253 C 
HETATM   24  O   UNL     1      41.071 -15.315   4.423  1.00  0.00    -0.268 OA
HETATM   25  H   UNL     1      44.072 -14.325   4.200  1.00  0.00     0.163 HD
BRANCH  23  26
HETATM   26  C   UNL     1      42.922 -16.692   3.855  1.00  0.00     0.053 A 
HETATM   27  C   UNL     1      43.894 -17.371   4.609  1.00  0.00     0.049 A 
HETATM   28 CL   UNL     1      44.570 -16.792   6.092  1.00  0.00    -0.083 Cl
HETATM   29  C   UNL     1      44.386 -18.613   4.171  1.00  0.00     0.025 A 
HETATM   30  C   UNL     1      43.923 -19.190   2.991  1.00  0.00     0.002 A 
HETATM   31  C   UNL     1      42.972 -18.525   2.228  1.00  0.00     0.001 A 
HETATM   32  C   UNL     1      42.486 -17.286   2.652  1.00  0.00     0.019 A 
ENDBRANCH  23  26
ENDBRANCH  21  22
ENDBRANCH  18  21
ENDBRANCH   1  17
TORSDOF 8
ENDMDL
MODEL 4
REMARK VINA RESULT:      -8.6      1.571      1.959
REMARK  8 active torsions:
REMARK  status: ('A' for Active; 'I' for Inactive)
REMARK    1  A    between atoms: C_2  and  C_3 
REMARK    2  A    between atoms: C_4  and  O_5 
REMARK    3  A    between atoms: N_10  and  N_11 
REMARK       I    between atoms: N_11  and  C_12 
REMARK    4  A    between atoms: C_12  and  C_13 
REMARK    5  A    between atoms: C_13  and  N_14 
REMARK       I    between atoms: N_14  and  C_15 
REMARK    6  A    between atoms: C_15  and  C_16 
REMARK    7  A    between atoms: C_16  and  N_17 
REMARK       I    between atoms: N_17  and  C_18 
REMARK    8  A    between atoms: C_18  and  C_19 
ROOT
HETATM    1  C   UNL     1      42.095 -12.512   5.063  1.00  0.00     0.227 C 
ENDROOT
BRANCH   1   2
HETATM    2  C   UNL     1      42.205 -13.889   4.404  1.00  0.00     0.255 C 
HETATM    3  N   UNL     1      42.450 -14.931   5.282  1.00  0.00    -0.246 N 
HETATM    4  H   UNL     1      42.391 -14.768   6.285  1.00  0.00     0.192 HD
HETATM    5  O   UNL     1      42.191 -14.007   3.178  1.00  0.00    -0.270 OA
BRANCH   3   6
HETATM    6  N   UNL     1      42.620 -16.186   4.782  1.00  0.00    -0.176 NA
HETATM    7  C   UNL     1      43.604 -16.924   5.206  1.00  0.00     0.064 C 
HETATM    8  C   UNL     1      44.639 -16.451   6.197  1.00  0.00     0.073 C 
BRANCH   7   9
HETATM    9  C   UNL     1      43.717 -18.314   4.661  1.00  0.00     0.023 A 
HETATM   10  C   UNL     1      43.666 -18.543   3.277  1.00  0.00     0.077 A 
HETATM   11  C   UNL     1      43.805 -19.833   2.765  1.00  0.00     0.037 A 
HETATM   12  C   UNL     1      43.973 -20.913   3.630  1.00  0.00     0.003 A 
HETATM   13  C   UNL     1      43.995 -20.703   5.007  1.00  0.00     0.001 A 
HETATM   14  C   UNL     1      43.865 -19.410   5.523  1.00  0.00     0.016 A 
BRANCH  10  15
HETATM   15  O   UNL     1      43.488 -17.548   2.354  1.00  0.00    -0.360 OA
HETATM   16  H   UNL     1      43.112 -16.763   2.816  1.00  0.00     0.217 HD
ENDBRANCH  10  15
ENDBRANCH   7   9
ENDBRANCH   3   6
ENDBRANCH   1   2
BRANCH   1  17
HETATM   17  N   UNL     1      43.138 -12.148   6.010  1.00  0.00    -0.351 N 
HETATM   18  C   UNL     1      44.347 -11.632   5.597  1.00  0.00     0.235 C 
HETATM   19  O   UNL     1      44.573 -11.278   4.443  1.00  0.00    -0.272 OA
HETATM   20  H   UNL     1      42.952 -12.197   7.009  1.00  0.00     0.163 HD
BRANCH  18  21
HETATM   21  C   UNL     1      45.370 -11.472   6.722  1.00  0.00     0.225 C 
BRANCH  21  22
HETATM   22  N   UNL     1      44.734 -11.115   7.971  1.00  0.00    -0.348 N 
HETATM   23  C   UNL     1      45.052  -9.961   8.639  1.00  0.00     0.253 C 
HETATM   24  O   UNL     1      45.985  -9.252   8.259  1.00  0.00    -0.268 OA
HETATM   25  H   UNL     1      44.053 -11.761   8.354  1.00  0.00     0.163 HD
BRANCH  23  26
HETATM   26  C   UNL     1      44.256  -9.582   9.855  1.00  0.00     0.053 A 
HETATM   27  C   UNL     1      43.672  -8.333  10.122  1.00  0.00     0.049 A 
HETATM   28 CL   UNL     1      43.787  -6.953   9.085  1.00  0.00    -0.083 Cl
HETATM   29  C   UNL     1      42.931  -8.137  11.299  1.00  0.00     0.025 A 
HETATM   30  C   UNL     1      42.762  -9.170  12.219  1.00  0.00     0.002 A 
HETATM   31  C   UNL     1      43.345 -10.407  11.976  1.00  0.00     0.001 A 
HETATM   32  C   UNL     1      44.090 -10.606  10.812  1.00  0.00     0.019 A 
ENDBRANCH  23  26
ENDBRANCH  21  22
ENDBRANCH  18  21
ENDBRANCH   1  17
TORSDOF 8
ENDMDL
MODEL 5
REMARK VINA RESULT:      -8.5      5.359      8.615
REMARK  8 active torsions:
REMARK  status: ('A' for Active; 'I' for Inactive)
REMARK    1  A    between atoms: C_2  and  C_3 
REMARK    2  A    between atoms: C_4  and  O_5 
REMARK    3  A    between atoms: N_10  and  N_11 
REMARK       I    between atoms: N_11  and  C_12 
REMARK    4  A    between atoms: C_12  and  C_13 
REMARK    5  A    between atoms: C_13  and  N_14 
REMARK       I    between atoms: N_14  and  C_15 
REMARK    6  A    between atoms: C_15  and  C_16 
REMARK    7  A    between atoms: C_16  and  N_17 
REMARK       I    between atoms: N_17  and  C_18 
REMARK    8  A    between atoms: C_18  and  C_19 
ROOT
HETATM    1  C   UNL     1      40.406 -12.776   5.609  1.00  0.00     0.227 C 
ENDROOT
BRANCH   1   2
HETATM    2  C   UNL     1      40.828 -14.247   5.599  1.00  0.00     0.255 C 
HETATM    3  N   UNL     1      41.574 -14.626   4.495  1.00  0.00    -0.246 N 
HETATM    4  H   UNL     1      41.923 -13.915   3.857  1.00  0.00     0.192 HD
HETATM    5  O   UNL     1      40.420 -15.029   6.458  1.00  0.00    -0.270 OA
BRANCH   3   6
HETATM    6  N   UNL     1      41.948 -15.930   4.371  1.00  0.00    -0.176 NA
HETATM    7  C   UNL     1      42.758 -16.281   3.416  1.00  0.00     0.064 C 
HETATM    8  C   UNL     1      43.279 -15.330   2.366  1.00  0.00     0.073 C 
BRANCH   7   9
HETATM    9  C   UNL     1      43.178 -17.717   3.353  1.00  0.00     0.023 A 
HETATM   10  C   UNL     1      43.849 -18.312   4.433  1.00  0.00     0.077 A 
HETATM   11  C   UNL     1      44.211 -19.659   4.390  1.00  0.00     0.037 A 
HETATM   12  C   UNL     1      43.927 -20.422   3.258  1.00  0.00     0.003 A 
HETATM   13  C   UNL     1      43.289 -19.836   2.167  1.00  0.00     0.001 A 
HETATM   14  C   UNL     1      42.917 -18.489   2.211  1.00  0.00     0.016 A 
BRANCH  10  15
HETATM   15  O   UNL     1      44.184 -17.638   5.576  1.00  0.00    -0.360 OA
HETATM   16  H   UNL     1      44.137 -18.271   6.331  1.00  0.00     0.217 HD
ENDBRANCH  10  15
ENDBRANCH   7   9
ENDBRANCH   3   6
ENDBRANCH   1   2
BRANCH   1  17
HETATM   17  N   UNL     1      39.424 -12.365   4.617  1.00  0.00    -0.351 N 
HETATM   18  C   UNL     1      39.797 -11.865   3.389  1.00  0.00     0.235 C 
HETATM   19  O   UNL     1      40.950 -11.890   2.969  1.00  0.00    -0.272 OA
HETATM   20  H   UNL     1      38.434 -12.520   4.793  1.00  0.00     0.163 HD
BRANCH  18  21
HETATM   21  C   UNL     1      38.630 -11.333   2.555  1.00  0.00     0.225 C 
BRANCH  21  22
HETATM   22  N   UNL     1      38.372 -12.173   1.406  1.00  0.00    -0.348 N 
HETATM   23  C   UNL     1      38.868 -11.871   0.165  1.00  0.00     0.253 C 
HETATM   24  O   UNL     1      39.446 -10.802  -0.037  1.00  0.00    -0.268 OA
HETATM   25  H   UNL     1      37.788 -12.991   1.543  1.00  0.00     0.163 HD
BRANCH  23  26
HETATM   26  C   UNL     1      38.680 -12.856  -0.952  1.00  0.00     0.053 A 
HETATM   27  C   UNL     1      39.349 -14.081  -1.115  1.00  0.00     0.049 A 
HETATM   28 CL   UNL     1      40.568 -14.684  -0.045  1.00  0.00    -0.083 Cl
HETATM   29  C   UNL     1      39.046 -14.912  -2.206  1.00  0.00     0.025 A 
HETATM   30  C   UNL     1      38.082 -14.542  -3.141  1.00  0.00     0.002 A 
HETATM   31  C   UNL     1      37.421 -13.328  -3.002  1.00  0.00     0.001 A 
HETATM   32  C   UNL     1      37.724 -12.493  -1.925  1.00  0.00     0.019 A 
ENDBRANCH  23  26
ENDBRANCH  21  22
ENDBRANCH  18  21
ENDBRANCH   1  17
TORSDOF 8
ENDMDL
MODEL 6
REMARK VINA RESULT:      -8.4      3.018     10.728
REMARK  8 active torsions:
REMARK  status: ('A' for Active; 'I' for Inactive)
REMARK    1  A    between atoms: C_2  and  C_3 
REMARK    2  A    between atoms: C_4  and  O_5 
REMARK    3  A    between atoms: N_10  and  N_11 
REMARK       I    between atoms: N_11  and  C_12 
REMARK    4  A    between atoms: C_12  and  C_13 
REMARK    5  A    between atoms: C_13  and  N_14 
REMARK       I    between atoms: N_14  and  C_15 
REMARK    6  A    between atoms: C_15  and  C_16 
REMARK    7  A    between atoms: C_16  and  N_17 
REMARK       I    between atoms: N_17  and  C_18 
REMARK    8  A    between atoms: C_18  and  C_19 
ROOT
HETATM    1  C   UNL     1      44.668 -10.560   7.167  1.00  0.00     0.227 C 
ENDROOT
BRANCH   1   2
HETATM    2  C   UNL     1      44.259  -9.764   8.407  1.00  0.00     0.255 C 
HETATM    3  N   UNL     1      43.211 -10.315   9.127  1.00  0.00    -0.246 N 
HETATM    4  H   UNL     1      42.886 -11.252   8.902  1.00  0.00     0.192 HD
HETATM    5  O   UNL     1      44.761  -8.666   8.650  1.00  0.00    -0.270 OA
BRANCH   3   6
HETATM    6  N   UNL     1      42.740  -9.647  10.217  1.00  0.00    -0.176 NA
HETATM    7  C   UNL     1      43.124 -10.002  11.408  1.00  0.00     0.064 C 
HETATM    8  C   UNL     1      44.032 -11.176  11.681  1.00  0.00     0.073 C 
BRANCH   7   9
HETATM    9  C   UNL     1      42.616  -9.204  12.569  1.00  0.00     0.023 A 
HETATM   10  C   UNL     1      41.410  -9.550  13.198  1.00  0.00     0.077 A 
HETATM   11  C   UNL     1      40.952  -8.828  14.301  1.00  0.00     0.037 A 
HETATM   12  C   UNL     1      41.682  -7.739  14.774  1.00  0.00     0.003 A 
HETATM   13  C   UNL     1      42.865  -7.367  14.140  1.00  0.00     0.001 A 
HETATM   14  C   UNL     1      43.332  -8.093  13.041  1.00  0.00     0.016 A 
BRANCH  10  15
HETATM   15  O   UNL     1      40.619 -10.590  12.793  1.00  0.00    -0.360 OA
HETATM   16  H   UNL     1      39.798 -10.583  13.338  1.00  0.00     0.217 HD
ENDBRANCH  10  15
ENDBRANCH   7   9
ENDBRANCH   3   6
ENDBRANCH   1   2
BRANCH   1  17
HETATM   17  N   UNL     1      43.616 -11.287   6.472  1.00  0.00    -0.351 N 
HETATM   18  C   UNL     1      43.582 -12.664   6.440  1.00  0.00     0.235 C 
HETATM   19  O   UNL     1      44.312 -13.374   7.125  1.00  0.00    -0.272 OA
HETATM   20  H   UNL     1      42.837 -10.776   6.062  1.00  0.00     0.163 HD
BRANCH  18  21
HETATM   21  C   UNL     1      42.501 -13.236   5.524  1.00  0.00     0.225 C 
BRANCH  21  22
HETATM   22  N   UNL     1      42.967 -14.412   4.821  1.00  0.00    -0.348 N 
HETATM   23  C   UNL     1      42.484 -15.662   5.107  1.00  0.00     0.253 C 
HETATM   24  O   UNL     1      41.728 -15.840   6.063  1.00  0.00    -0.268 OA
HETATM   25  H   UNL     1      43.686 -14.285   4.117  1.00  0.00     0.163 HD
BRANCH  23  26
HETATM   26  C   UNL     1      42.907 -16.818   4.247  1.00  0.00     0.053 A 
HETATM   27  C   UNL     1      42.392 -17.159   2.984  1.00  0.00     0.049 A 
HETATM   28 CL   UNL     1      41.124 -16.304   2.177  1.00  0.00    -0.083 Cl
HETATM   29  C   UNL     1      42.910 -18.262   2.286  1.00  0.00     0.025 A 
HETATM   30  C   UNL     1      43.935 -19.035   2.826  1.00  0.00     0.002 A 
HETATM   31  C   UNL     1      44.445 -18.719   4.079  1.00  0.00     0.001 A 
HETATM   32  C   UNL     1      43.929 -17.629   4.783  1.00  0.00     0.019 A 
ENDBRANCH  23  26
ENDBRANCH  21  22
ENDBRANCH  18  21
ENDBRANCH   1  17
TORSDOF 8
ENDMDL
MODEL 7
REMARK VINA RESULT:      -8.3      4.388      7.707
REMARK  8 active torsions:
REMARK  status: ('A' for Active; 'I' for Inactive)
REMARK    1  A    between atoms: C_2  and  C_3 
REMARK    2  A    between atoms: C_4  and  O_5 
REMARK    3  A    between atoms: N_10  and  N_11 
REMARK       I    between atoms: N_11  and  C_12 
REMARK    4  A    between atoms: C_12  and  C_13 
REMARK    5  A    between atoms: C_13  and  N_14 
REMARK       I    between atoms: N_14  and  C_15 
REMARK    6  A    between atoms: C_15  and  C_16 
REMARK    7  A    between atoms: C_16  and  N_17 
REMARK       I    between atoms: N_17  and  C_18 
REMARK    8  A    between atoms: C_18  and  C_19 
ROOT
HETATM    1  C   UNL     1      42.810 -11.992   5.849  1.00  0.00     0.227 C 
ENDROOT
BRANCH   1   2
HETATM    2  C   UNL     1      43.119 -13.489   5.785  1.00  0.00     0.255 C 
HETATM    3  N   UNL     1      42.655 -14.127   4.647  1.00  0.00    -0.246 N 
HETATM    4  H   UNL     1      42.292 -13.574   3.874  1.00  0.00     0.192 HD
HETATM    5  O   UNL     1      43.633 -14.071   6.741  1.00  0.00    -0.270 OA
BRANCH   3   6
HETATM    6  N   UNL     1      42.834 -15.471   4.528  1.00  0.00    -0.176 NA
HETATM    7  C   UNL     1      43.171 -15.980   3.379  1.00  0.00     0.064 C 
HETATM    8  C   UNL     1      43.319 -15.168   2.115  1.00  0.00     0.073 C 
BRANCH   7   9
HETATM    9  C   UNL     1      43.403 -17.457   3.313  1.00  0.00     0.023 A 
HETATM   10  C   UNL     1      44.058 -18.123   4.360  1.00  0.00     0.077 A 
HETATM   11  C   UNL     1      44.246 -19.505   4.316  1.00  0.00     0.037 A 
HETATM   12  C   UNL     1      43.803 -20.235   3.214  1.00  0.00     0.003 A 
HETATM   13  C   UNL     1      43.179 -19.582   2.153  1.00  0.00     0.001 A 
HETATM   14  C   UNL     1      42.981 -18.198   2.199  1.00  0.00     0.016 A 
BRANCH  10  15
HETATM   15  O   UNL     1      44.542 -17.489   5.472  1.00  0.00    -0.360 OA
HETATM   16  H   UNL     1      43.788 -17.040   5.923  1.00  0.00     0.217 HD
ENDBRANCH  10  15
ENDBRANCH   7   9
ENDBRANCH   3   6
ENDBRANCH   1   2
BRANCH   1  17
HETATM   17  N   UNL     1      42.059 -11.425   4.738  1.00  0.00    -0.351 N 
HETATM   18  C   UNL     1      42.676 -11.025   3.573  1.00  0.00     0.235 C 
HETATM   19  O   UNL     1      43.849 -11.270   3.310  1.00  0.00    -0.272 OA
HETATM   20  H   UNL     1      41.043 -11.392   4.781  1.00  0.00     0.163 HD
BRANCH  18  21
HETATM   21  C   UNL     1      41.747 -10.303   2.596  1.00  0.00     0.225 C 
BRANCH  21  22
HETATM   22  N   UNL     1      41.652 -11.005   1.336  1.00  0.00    -0.348 N 
HETATM   23  C   UNL     1      40.651 -11.907   1.085  1.00  0.00     0.253 C 
HETATM   24  O   UNL     1      39.872 -12.244   1.978  1.00  0.00    -0.268 OA
HETATM   25  H   UNL     1      42.368 -10.825   0.641  1.00  0.00     0.163 HD
BRANCH  23  26
HETATM   26  C   UNL     1      40.529 -12.495  -0.291  1.00  0.00     0.053 A 
HETATM   27  C   UNL     1      40.228 -13.829  -0.611  1.00  0.00     0.049 A 
HETATM   28 CL   UNL     1      39.961 -15.083   0.550  1.00  0.00    -0.083 Cl
HETATM   29  C   UNL     1      40.124 -14.226  -1.955  1.00  0.00     0.025 A 
HETATM   30  C   UNL     1      40.315 -13.312  -2.988  1.00  0.00     0.002 A 
HETATM   31  C   UNL     1      40.627 -11.992  -2.688  1.00  0.00     0.001 A 
HETATM   32  C   UNL     1      40.741 -11.593  -1.355  1.00  0.00     0.019 A 
ENDBRANCH  23  26
ENDBRANCH  21  22
ENDBRANCH  18  21
ENDBRANCH   1  17
TORSDOF 8
ENDMDL
MODEL 8
REMARK VINA RESULT:      -8.2      3.331     10.942
REMARK  8 active torsions:
REMARK  status: ('A' for Active; 'I' for Inactive)
REMARK    1  A    between atoms: C_2  and  C_3 
REMARK    2  A    between atoms: C_4  and  O_5 
REMARK    3  A    between atoms: N_10  and  N_11 
REMARK       I    between atoms: N_11  and  C_12 
REMARK    4  A    between atoms: C_12  and  C_13 
REMARK    5  A    between atoms: C_13  and  N_14 
REMARK       I    between atoms: N_14  and  C_15 
REMARK    6  A    between atoms: C_15  and  C_16 
REMARK    7  A    between atoms: C_16  and  N_17 
REMARK       I    between atoms: N_17  and  C_18 
REMARK    8  A    between atoms: C_18  and  C_19 
ROOT
HETATM    1  C   UNL     1      44.065 -11.757   6.107  1.00  0.00     0.227 C 
ENDROOT
BRANCH   1   2
HETATM    2  C   UNL     1      43.330 -11.036   7.239  1.00  0.00     0.255 C 
HETATM    3  N   UNL     1      43.978 -11.072   8.463  1.00  0.00    -0.246 N 
HETATM    4  H   UNL     1      44.933 -11.417   8.515  1.00  0.00     0.192 HD
HETATM    5  O   UNL     1      42.200 -10.576   7.069  1.00  0.00    -0.270 OA
BRANCH   3   6
HETATM    6  N   UNL     1      43.373 -10.505   9.543  1.00  0.00    -0.176 NA
HETATM    7  C   UNL     1      44.065  -9.761  10.355  1.00  0.00     0.064 C 
HETATM    8  C   UNL     1      45.549  -9.526  10.217  1.00  0.00     0.073 C 
BRANCH   7   9
HETATM    9  C   UNL     1      43.342  -9.121  11.500  1.00  0.00     0.023 A 
HETATM   10  C   UNL     1      42.862  -9.899  12.564  1.00  0.00     0.077 A 
HETATM   11  C   UNL     1      42.217  -9.301  13.648  1.00  0.00     0.037 A 
HETATM   12  C   UNL     1      42.024  -7.920  13.669  1.00  0.00     0.003 A 
HETATM   13  C   UNL     1      42.469  -7.140  12.605  1.00  0.00     0.001 A 
HETATM   14  C   UNL     1      43.123  -7.735  11.522  1.00  0.00     0.016 A 
BRANCH  10  15
HETATM   15  O   UNL     1      42.989 -11.261  12.621  1.00  0.00    -0.360 OA
HETATM   16  H   UNL     1      42.997 -11.608  11.699  1.00  0.00     0.217 HD
ENDBRANCH  10  15
ENDBRANCH   7   9
ENDBRANCH   3   6
ENDBRANCH   1   2
BRANCH   1  17
HETATM   17  N   UNL     1      44.375 -13.163   6.312  1.00  0.00    -0.351 N 
HETATM   18  C   UNL     1      43.394 -14.131   6.320  1.00  0.00     0.235 C 
HETATM   19  O   UNL     1      42.232 -13.919   5.987  1.00  0.00    -0.272 OA
HETATM   20  H   UNL     1      45.346 -13.462   6.373  1.00  0.00     0.163 HD
BRANCH  18  21
HETATM   21  C   UNL     1      43.896 -15.519   6.717  1.00  0.00     0.225 C 
BRANCH  21  22
HETATM   22  N   UNL     1      43.968 -16.405   5.576  1.00  0.00    -0.348 N 
HETATM   23  C   UNL     1      43.656 -17.736   5.672  1.00  0.00     0.253 C 
HETATM   24  O   UNL     1      43.426 -18.248   6.769  1.00  0.00    -0.268 OA
HETATM   25  H   UNL     1      44.281 -16.012   4.694  1.00  0.00     0.163 HD
BRANCH  23  26
HETATM   26  C   UNL     1      43.617 -18.566   4.422  1.00  0.00     0.053 A 
HETATM   27  C   UNL     1      43.918 -19.934   4.312  1.00  0.00     0.049 A 
HETATM   28 CL   UNL     1      44.431 -20.936   5.626  1.00  0.00    -0.083 Cl
HETATM   29  C   UNL     1      43.812 -20.582   3.070  1.00  0.00     0.025 A 
HETATM   30  C   UNL     1      43.409 -19.887   1.932  1.00  0.00     0.002 A 
HETATM   31  C   UNL     1      43.121 -18.532   2.022  1.00  0.00     0.001 A 
HETATM   32  C   UNL     1      43.233 -17.879   3.251  1.00  0.00     0.019 A 
ENDBRANCH  23  26
ENDBRANCH  21  22
ENDBRANCH  18  21
ENDBRANCH   1  17
TORSDOF 8
ENDMDL
MODEL 9
REMARK VINA RESULT:      -8.1      2.282      2.586
REMARK  8 active torsions:
REMARK  status: ('A' for Active; 'I' for Inactive)
REMARK    1  A    between atoms: C_2  and  C_3 
REMARK    2  A    between atoms: C_4  and  O_5 
REMARK    3  A    between atoms: N_10  and  N_11 
REMARK       I    between atoms: N_11  and  C_12 
REMARK    4  A    between atoms: C_12  and  C_13 
REMARK    5  A    between atoms: C_13  and  N_14 
REMARK       I    between atoms: N_14  and  C_15 
REMARK    6  A    between atoms: C_15  and  C_16 
REMARK    7  A    between atoms: C_16  and  N_17 
REMARK       I    between atoms: N_17  and  C_18 
REMARK    8  A    between atoms: C_18  and  C_19 
ROOT
HETATM    1  C   UNL     1      42.729 -12.139   4.729  1.00  0.00     0.227 C 
ENDROOT
BRANCH   1   2
HETATM    2  C   UNL     1      42.878 -13.533   4.117  1.00  0.00     0.255 C 
HETATM    3  N   UNL     1      42.603 -14.577   4.985  1.00  0.00    -0.246 N 
HETATM    4  H   UNL     1      42.184 -14.380   5.890  1.00  0.00     0.192 HD
HETATM    5  O   UNL     1      43.323 -13.681   2.978  1.00  0.00    -0.270 OA
BRANCH   3   6
HETATM    6  N   UNL     1      42.763 -15.856   4.545  1.00  0.00    -0.176 NA
HETATM    7  C   UNL     1      43.614 -16.642   5.138  1.00  0.00     0.064 C 
HETATM    8  C   UNL     1      44.510 -16.203   6.271  1.00  0.00     0.073 C 
BRANCH   7   9
HETATM    9  C   UNL     1      43.716 -18.053   4.649  1.00  0.00     0.023 A 
HETATM   10  C   UNL     1      43.669 -18.336   3.275  1.00  0.00     0.077 A 
HETATM   11  C   UNL     1      43.798 -19.647   2.815  1.00  0.00     0.037 A 
HETATM   12  C   UNL     1      43.952 -20.693   3.724  1.00  0.00     0.003 A 
HETATM   13  C   UNL     1      43.970 -20.429   5.091  1.00  0.00     0.001 A 
HETATM   14  C   UNL     1      43.851 -19.116   5.555  1.00  0.00     0.016 A 
BRANCH  10  15
HETATM   15  O   UNL     1      43.503 -17.378   2.312  1.00  0.00    -0.360 OA
HETATM   16  H   UNL     1      42.662 -17.565   1.833  1.00  0.00     0.217 HD
ENDBRANCH  10  15
ENDBRANCH   7   9
ENDBRANCH   3   6
ENDBRANCH   1   2
BRANCH   1  17
HETATM   17  N   UNL     1      43.375 -11.909   6.012  1.00  0.00    -0.351 N 
HETATM   18  C   UNL     1      42.886 -10.995   6.919  1.00  0.00     0.235 C 
HETATM   19  O   UNL     1      41.796 -10.443   6.803  1.00  0.00    -0.272 OA
HETATM   20  H   UNL     1      44.163 -12.489   6.291  1.00  0.00     0.163 HD
BRANCH  18  21
HETATM   21  C   UNL     1      43.794 -10.775   8.130  1.00  0.00     0.225 C 
BRANCH  21  22
HETATM   22  N   UNL     1      43.133  -9.999   9.156  1.00  0.00    -0.348 N 
HETATM   23  C   UNL     1      43.310 -10.265  10.489  1.00  0.00     0.253 C 
HETATM   24  O   UNL     1      43.940 -11.259  10.852  1.00  0.00    -0.268 OA
HETATM   25  H   UNL     1      42.510  -9.257   8.857  1.00  0.00     0.163 HD
BRANCH  23  26
HETATM   26  C   UNL     1      42.708  -9.335  11.502  1.00  0.00     0.053 A 
HETATM   27  C   UNL     1      41.339  -9.140  11.754  1.00  0.00     0.049 A 
HETATM   28 CL   UNL     1      40.060  -9.934  10.902  1.00  0.00    -0.083 Cl
HETATM   29  C   UNL     1      40.927  -8.247  12.758  1.00  0.00     0.025 A 
HETATM   30  C   UNL     1      41.859  -7.544  13.518  1.00  0.00     0.002 A 
HETATM   31  C   UNL     1      43.215  -7.717  13.272  1.00  0.00     0.001 A 
HETATM   32  C   UNL     1      43.632  -8.595  12.269  1.00  0.00     0.019 A 
ENDBRANCH  23  26
ENDBRANCH  21  22
ENDBRANCH  18  21
ENDBRANCH   1  17
TORSDOF 8
ENDMDL
MODEL 10
REMARK VINA RESULT:      -8.1      3.154     10.534
REMARK  8 active torsions:
REMARK  status: ('A' for Active; 'I' for Inactive)
REMARK    1  A    between atoms: C_2  and  C_3 
REMARK    2  A    between atoms: C_4  and  O_5 
REMARK    3  A    between atoms: N_10  and  N_11 
REMARK       I    between atoms: N_11  and  C_12 
REMARK    4  A    between atoms: C_12  and  C_13 
REMARK    5  A    between atoms: C_13  and  N_14 
REMARK       I    between atoms: N_14  and  C_15 
REMARK    6  A    between atoms: C_15  and  C_16 
REMARK    7  A    between atoms: C_16  and  N_17 
REMARK       I    between atoms: N_17  and  C_18 
REMARK    8  A    between atoms: C_18  and  C_19 
ROOT
HETATM    1  C   UNL     1      41.926  -9.882   6.141  1.00  0.00     0.227 C 
ENDROOT
BRANCH   1   2
HETATM    2  C   UNL     1      41.689  -9.239   7.508  1.00  0.00     0.255 C 
HETATM    3  N   UNL     1      42.214  -9.946   8.578  1.00  0.00    -0.246 N 
HETATM    4  H   UNL     1      42.836 -10.732   8.403  1.00  0.00     0.192 HD
HETATM    5  O   UNL     1      40.982  -8.237   7.624  1.00  0.00    -0.270 OA
BRANCH   3   6
HETATM    6  N   UNL     1      42.005  -9.480   9.840  1.00  0.00    -0.176 NA
HETATM    7  C   UNL     1      42.920  -9.643  10.750  1.00  0.00     0.064 C 
HETATM    8  C   UNL     1      44.210 -10.391  10.515  1.00  0.00     0.073 C 
BRANCH   7   9
HETATM    9  C   UNL     1      42.661  -9.069  12.108  1.00  0.00     0.023 A 
HETATM   10  C   UNL     1      41.648  -9.596  12.923  1.00  0.00     0.077 A 
HETATM   11  C   UNL     1      41.427  -9.084  14.202  1.00  0.00     0.037 A 
HETATM   12  C   UNL     1      42.201  -8.025  14.674  1.00  0.00     0.003 A 
HETATM   13  C   UNL     1      43.191  -7.473  13.863  1.00  0.00     0.001 A 
HETATM   14  C   UNL     1      43.420  -7.990  12.584  1.00  0.00     0.016 A 
BRANCH  10  15
HETATM   15  O   UNL     1      40.827 -10.622  12.539  1.00  0.00    -0.360 OA
HETATM   16  H   UNL     1      40.610 -11.157  13.338  1.00  0.00     0.217 HD
ENDBRANCH  10  15
ENDBRANCH   7   9
ENDBRANCH   3   6
ENDBRANCH   1   2
BRANCH   1  17
HETATM   17  N   UNL     1      41.084 -11.015   5.789  1.00  0.00    -0.351 N 
HETATM   18  C   UNL     1      41.530 -12.314   5.897  1.00  0.00     0.235 C 
HETATM   19  O   UNL     1      42.580 -12.625   6.452  1.00  0.00    -0.272 OA
HETATM   20  H   UNL     1      40.112 -10.860   5.531  1.00  0.00     0.163 HD
BRANCH  18  21
HETATM   21  C   UNL     1      40.564 -13.351   5.323  1.00  0.00     0.225 C 
BRANCH  21  22
HETATM   22  N   UNL     1      41.220 -14.620   5.096  1.00  0.00    -0.348 N 
HETATM   23  C   UNL     1      41.926 -14.874   3.949  1.00  0.00     0.253 C 
HETATM   24  O   UNL     1      41.916 -14.070   3.015  1.00  0.00    -0.268 OA
HETATM   25  H   UNL     1      41.124 -15.334   5.811  1.00  0.00     0.163 HD
BRANCH  23  26
HETATM   26  C   UNL     1      42.697 -16.157   3.839  1.00  0.00     0.053 A 
HETATM   27  C   UNL     1      43.634 -16.656   4.760  1.00  0.00     0.049 A 
HETATM   28 CL   UNL     1      44.105 -15.851   6.217  1.00  0.00    -0.083 Cl
HETATM   29  C   UNL     1      44.260 -17.893   4.529  1.00  0.00     0.025 A 
HETATM   30  C   UNL     1      43.968 -18.642   3.393  1.00  0.00     0.002 A 
HETATM   31  C   UNL     1      43.054 -18.156   2.466  1.00  0.00     0.001 A 
HETATM   32  C   UNL     1      42.435 -16.924   2.684  1.00  0.00     0.019 A 
ENDBRANCH  23  26
ENDBRANCH  21  22
ENDBRANCH  18  21
ENDBRANCH   1  17
TORSDOF 8
ENDMDL
