MODEL 1
REMARK VINA RESULT:      -7.4      0.000      0.000
REMARK  5 active torsions:
REMARK  status: ('A' for Active; 'I' for Inactive)
REMARK    1  A    between atoms: C_8  and  N_9 
REMARK       I    between atoms: N_9  and  C_10 
REMARK       I    between atoms: C_10  and  N_11 
REMARK    2  A    between atoms: N_11  and  C_12 
REMARK    3  A    between atoms: C_13  and  O_14 
REMARK    4  A    between atoms: O_14  and  C_15 
REMARK    5  A    between atoms: C_15  and  C_16 
ROOT
HETATM    1  N   UNL     1      42.101 -14.532   3.391  1.00  0.00    -0.305 N 
HETATM    2  C   UNL     1      41.940 -15.903   3.467  1.00  0.00     0.325 C 
HETATM    3  N   UNL     1      43.155 -16.538   3.273  1.00  0.00    -0.306 N 
HETATM    4  O   UNL     1      40.881 -16.477   3.681  1.00  0.00    -0.247 OA
HETATM    5  H   UNL     1      43.029 -14.184   3.573  1.00  0.00     0.171 HD
HETATM    6  H   UNL     1      43.894 -15.988   2.854  1.00  0.00     0.171 HD
ENDROOT
BRANCH   3   7
HETATM    7  C   UNL     1      43.440 -17.916   3.389  1.00  0.00     0.069 A 
HETATM    8  C   UNL     1      43.999 -18.359   4.600  1.00  0.00     0.095 A 
HETATM    9  C   UNL     1      44.269 -19.712   4.817  1.00  0.00     0.039 A 
HETATM   10  C   UNL     1      44.016 -20.634   3.804  1.00  0.00     0.003 A 
HETATM   11  C   UNL     1      43.481 -20.203   2.590  1.00  0.00     0.002 A 
HETATM   12  C   UNL     1      43.189 -18.850   2.384  1.00  0.00     0.032 A 
BRANCH   8  13
HETATM   13  O   UNL     1      44.228 -17.427   5.584  1.00  0.00    -0.340 OA
BRANCH  13  14
HETATM   14  C   UNL     1      43.348 -17.619   6.708  1.00  0.00     0.293 C 
BRANCH  14  15
HETATM   15  C   UNL     1      42.738 -16.289   7.118  1.00  0.00     0.408 C 
HETATM   16  F   UNL     1      43.214 -15.276   6.357  1.00  0.00    -0.169 F 
HETATM   17  F   UNL     1      41.392 -16.298   7.000  1.00  0.00    -0.169 F 
HETATM   18  F   UNL     1      43.031 -16.004   8.407  1.00  0.00    -0.169 F 
ENDBRANCH  14  15
ENDBRANCH  13  14
ENDBRANCH   8  13
ENDBRANCH   3   7
BRANCH   1  19
HETATM   19  C   UNL     1      41.092 -13.583   3.380  1.00  0.00     0.086 A 
HETATM   20  C   UNL     1      40.694 -12.945   2.219  1.00  0.00     0.052 A 
HETATM   21  C   UNL     1      41.155 -13.033   0.814  1.00  0.00     0.072 C 
HETATM   22  N   UNL     1      39.687 -12.099   2.586  1.00  0.00    -0.280 N 
HETATM   23  H   UNL     1      39.159 -11.461   2.000  1.00  0.00     0.189 HD
HETATM   24  N   UNL     1      39.381 -12.151   3.884  1.00  0.00    -0.177 NA
HETATM   25  C   UNL     1      40.228 -13.062   4.389  1.00  0.00     0.079 A 
HETATM   26  C   UNL     1      40.111 -13.406   5.828  1.00  0.00     0.075 C 
ENDBRANCH   1  19
TORSDOF 5
ENDMDL
MODEL 2
REMARK VINA RESULT:      -7.3      0.251      1.868
REMARK  5 active torsions:
REMARK  status: ('A' for Active; 'I' for Inactive)
REMARK    1  A    between atoms: C_8  and  N_9 
REMARK       I    between atoms: N_9  and  C_10 
REMARK       I    between atoms: C_10  and  N_11 
REMARK    2  A    between atoms: N_11  and  C_12 
REMARK    3  A    between atoms: C_13  and  O_14 
REMARK    4  A    between atoms: O_14  and  C_15 
REMARK    5  A    between atoms: C_15  and  C_16 
ROOT
HETATM    1  N   UNL     1      42.108 -14.532   3.218  1.00  0.00    -0.305 N 
HETATM    2  C   UNL     1      41.929 -15.903   3.233  1.00  0.00     0.325 C 
HETATM    3  N   UNL     1      43.155 -16.544   3.162  1.00  0.00    -0.306 N 
HETATM    4  O   UNL     1      40.849 -16.472   3.305  1.00  0.00    -0.247 OA
HETATM    5  H   UNL     1      43.011 -14.199   3.517  1.00  0.00     0.171 HD
HETATM    6  H   UNL     1      43.941 -15.991   2.849  1.00  0.00     0.171 HD
ENDROOT
BRANCH   3   7
HETATM    7  C   UNL     1      43.414 -17.928   3.268  1.00  0.00     0.069 A 
HETATM    8  C   UNL     1      43.990 -18.386   4.466  1.00  0.00     0.095 A 
HETATM    9  C   UNL     1      44.238 -19.745   4.673  1.00  0.00     0.039 A 
HETATM   10  C   UNL     1      43.944 -20.658   3.663  1.00  0.00     0.003 A 
HETATM   11  C   UNL     1      43.392 -20.213   2.462  1.00  0.00     0.002 A 
HETATM   12  C   UNL     1      43.123 -18.854   2.266  1.00  0.00     0.032 A 
BRANCH   8  13
HETATM   13  O   UNL     1      44.259 -17.462   5.447  1.00  0.00    -0.340 OA
BRANCH  13  14
HETATM   14  C   UNL     1      43.405 -17.645   6.593  1.00  0.00     0.293 C 
BRANCH  14  15
HETATM   15  C   UNL     1      42.659 -16.356   6.891  1.00  0.00     0.408 C 
HETATM   16  F   UNL     1      41.353 -16.455   6.551  1.00  0.00    -0.169 F 
HETATM   17  F   UNL     1      42.722 -16.033   8.202  1.00  0.00    -0.169 F 
HETATM   18  F   UNL     1      43.186 -15.325   6.193  1.00  0.00    -0.169 F 
ENDBRANCH  14  15
ENDBRANCH  13  14
ENDBRANCH   8  13
ENDBRANCH   3   7
BRANCH   1  19
HETATM   19  C   UNL     1      41.114 -13.572   3.119  1.00  0.00     0.086 A 
HETATM   20  C   UNL     1      40.422 -13.113   4.225  1.00  0.00     0.052 A 
HETATM   21  C   UNL     1      40.487 -13.454   5.665  1.00  0.00     0.072 C 
HETATM   22  N   UNL     1      39.543 -12.181   3.753  1.00  0.00    -0.280 N 
HETATM   23  H   UNL     1      38.863 -11.638   4.276  1.00  0.00     0.189 HD
HETATM   24  N   UNL     1      39.622 -11.979   2.436  1.00  0.00    -0.177 NA
HETATM   25  C   UNL     1      40.586 -12.819   2.028  1.00  0.00     0.079 A 
HETATM   26  C   UNL     1      40.970 -12.802   0.594  1.00  0.00     0.075 C 
ENDBRANCH   1  19
TORSDOF 5
ENDMDL
MODEL 3
REMARK VINA RESULT:      -7.3      2.317      3.470
REMARK  5 active torsions:
REMARK  status: ('A' for Active; 'I' for Inactive)
REMARK    1  A    between atoms: C_8  and  N_9 
REMARK       I    between atoms: N_9  and  C_10 
REMARK       I    between atoms: C_10  and  N_11 
REMARK    2  A    between atoms: N_11  and  C_12 
REMARK    3  A    between atoms: C_13  and  O_14 
REMARK    4  A    between atoms: O_14  and  C_15 
REMARK    5  A    between atoms: C_15  and  C_16 
ROOT
HETATM    1  N   UNL     1      41.207 -13.985   0.695  1.00  0.00    -0.305 N 
HETATM    2  C   UNL     1      41.277 -15.176   1.394  1.00  0.00     0.325 C 
HETATM    3  N   UNL     1      42.593 -15.461   1.719  1.00  0.00    -0.306 N 
HETATM    4  O   UNL     1      40.319 -15.876   1.691  1.00  0.00    -0.247 OA
HETATM    5  H   UNL     1      41.975 -13.346   0.829  1.00  0.00     0.171 HD
HETATM    6  H   UNL     1      43.306 -14.960   1.208  1.00  0.00     0.171 HD
ENDROOT
BRANCH   3   7
HETATM    7  C   UNL     1      43.076 -16.515   2.524  1.00  0.00     0.069 A 
HETATM    8  C   UNL     1      43.286 -16.242   3.887  1.00  0.00     0.095 A 
HETATM    9  C   UNL     1      43.719 -17.238   4.764  1.00  0.00     0.039 A 
HETATM   10  C   UNL     1      43.982 -18.516   4.276  1.00  0.00     0.003 A 
HETATM   11  C   UNL     1      43.798 -18.794   2.922  1.00  0.00     0.002 A 
HETATM   12  C   UNL     1      43.341 -17.800   2.049  1.00  0.00     0.032 A 
BRANCH   8  13
HETATM   13  O   UNL     1      43.007 -14.974   4.340  1.00  0.00    -0.340 OA
BRANCH  13  14
HETATM   14  C   UNL     1      42.301 -15.006   5.596  1.00  0.00     0.293 C 
BRANCH  14  15
HETATM   15  C   UNL     1      40.803 -15.022   5.344  1.00  0.00     0.408 C 
HETATM   16  F   UNL     1      40.114 -14.715   6.468  1.00  0.00    -0.169 F 
HETATM   17  F   UNL     1      40.448 -14.138   4.386  1.00  0.00    -0.169 F 
HETATM   18  F   UNL     1      40.398 -16.246   4.938  1.00  0.00    -0.169 F 
ENDBRANCH  14  15
ENDBRANCH  13  14
ENDBRANCH   8  13
ENDBRANCH   3   7
BRANCH   1  19
HETATM   19  C   UNL     1      40.085 -13.459   0.075  1.00  0.00     0.086 A 
HETATM   20  C   UNL     1      39.198 -12.630   0.737  1.00  0.00     0.052 A 
HETATM   21  C   UNL     1      39.145 -12.120   2.128  1.00  0.00     0.072 C 
HETATM   22  N   UNL     1      38.239 -12.304  -0.178  1.00  0.00    -0.280 N 
HETATM   23  H   UNL     1      37.420 -11.719  -0.047  1.00  0.00     0.189 HD
HETATM   24  N   UNL     1      38.442 -12.832  -1.387  1.00  0.00    -0.177 NA
HETATM   25  C   UNL     1      39.574 -13.540  -1.255  1.00  0.00     0.079 A 
HETATM   26  C   UNL     1      40.120 -14.219  -2.457  1.00  0.00     0.075 C 
ENDBRANCH   1  19
TORSDOF 5
ENDMDL
MODEL 4
REMARK VINA RESULT:      -7.0      2.371      6.106
REMARK  5 active torsions:
REMARK  status: ('A' for Active; 'I' for Inactive)
REMARK    1  A    between atoms: C_8  and  N_9 
REMARK       I    between atoms: N_9  and  C_10 
REMARK       I    between atoms: C_10  and  N_11 
REMARK    2  A    between atoms: N_11  and  C_12 
REMARK    3  A    between atoms: C_13  and  O_14 
REMARK    4  A    between atoms: O_14  and  C_15 
REMARK    5  A    between atoms: C_15  and  C_16 
ROOT
HETATM    1  N   UNL     1      43.469 -17.465   2.503  1.00  0.00    -0.305 N 
HETATM    2  C   UNL     1      42.390 -16.600   2.515  1.00  0.00     0.325 C 
HETATM    3  N   UNL     1      42.579 -15.589   1.587  1.00  0.00    -0.306 N 
HETATM    4  O   UNL     1      41.405 -16.710   3.232  1.00  0.00    -0.247 OA
HETATM    5  H   UNL     1      44.014 -17.483   1.656  1.00  0.00     0.171 HD
HETATM    6  H   UNL     1      43.522 -15.455   1.246  1.00  0.00     0.171 HD
ENDROOT
BRANCH   3   7
HETATM    7  C   UNL     1      41.667 -14.580   1.208  1.00  0.00     0.069 A 
HETATM    8  C   UNL     1      41.894 -13.285   1.706  1.00  0.00     0.095 A 
HETATM    9  C   UNL     1      41.068 -12.219   1.345  1.00  0.00     0.039 A 
HETATM   10  C   UNL     1      39.979 -12.447   0.507  1.00  0.00     0.003 A 
HETATM   11  C   UNL     1      39.731 -13.732   0.024  1.00  0.00     0.002 A 
HETATM   12  C   UNL     1      40.575 -14.794   0.368  1.00  0.00     0.032 A 
BRANCH   8  13
HETATM   13  O   UNL     1      42.982 -13.091   2.523  1.00  0.00    -0.340 OA
BRANCH  13  14
HETATM   14  C   UNL     1      42.613 -12.414   3.741  1.00  0.00     0.293 C 
BRANCH  14  15
HETATM   15  C   UNL     1      42.416 -13.430   4.854  1.00  0.00     0.408 C 
HETATM   16  F   UNL     1      43.309 -14.442   4.759  1.00  0.00    -0.169 F 
HETATM   17  F   UNL     1      42.556 -12.867   6.074  1.00  0.00    -0.169 F 
HETATM   18  F   UNL     1      41.178 -13.970   4.796  1.00  0.00    -0.169 F 
ENDBRANCH  14  15
ENDBRANCH  13  14
ENDBRANCH   8  13
ENDBRANCH   3   7
BRANCH   1  19
HETATM   19  C   UNL     1      43.705 -18.499   3.394  1.00  0.00     0.086 A 
HETATM   20  C   UNL     1      43.751 -19.821   2.992  1.00  0.00     0.052 A 
HETATM   21  C   UNL     1      43.570 -20.480   1.677  1.00  0.00     0.072 C 
HETATM   22  N   UNL     1      44.011 -20.545   4.120  1.00  0.00    -0.280 N 
HETATM   23  H   UNL     1      44.106 -21.551   4.212  1.00  0.00     0.189 HD
HETATM   24  N   UNL     1      44.162 -19.801   5.218  1.00  0.00    -0.177 NA
HETATM   25  C   UNL     1      43.984 -18.541   4.793  1.00  0.00     0.079 A 
HETATM   26  C   UNL     1      44.147 -17.440   5.776  1.00  0.00     0.075 C 
ENDBRANCH   1  19
TORSDOF 5
ENDMDL
MODEL 5
REMARK VINA RESULT:      -6.9      2.147      2.792
REMARK  5 active torsions:
REMARK  status: ('A' for Active; 'I' for Inactive)
REMARK    1  A    between atoms: C_8  and  N_9 
REMARK       I    between atoms: N_9  and  C_10 
REMARK       I    between atoms: C_10  and  N_11 
REMARK    2  A    between atoms: N_11  and  C_12 
REMARK    3  A    between atoms: C_13  and  O_14 
REMARK    4  A    between atoms: O_14  and  C_15 
REMARK    5  A    between atoms: C_15  and  C_16 
ROOT
HETATM    1  N   UNL     1      40.619 -14.879   1.221  1.00  0.00    -0.305 N 
HETATM    2  C   UNL     1      41.835 -15.414   1.606  1.00  0.00     0.325 C 
HETATM    3  N   UNL     1      41.635 -16.479   2.468  1.00  0.00    -0.306 N 
HETATM    4  O   UNL     1      42.930 -15.013   1.237  1.00  0.00    -0.247 OA
HETATM    5  H   UNL     1      39.823 -15.493   1.288  1.00  0.00     0.171 HD
HETATM    6  H   UNL     1      40.723 -16.552   2.897  1.00  0.00     0.171 HD
ENDROOT
BRANCH   3   7
HETATM    7  C   UNL     1      42.605 -17.362   2.991  1.00  0.00     0.069 A 
HETATM    8  C   UNL     1      43.158 -17.044   4.243  1.00  0.00     0.095 A 
HETATM    9  C   UNL     1      44.090 -17.885   4.855  1.00  0.00     0.039 A 
HETATM   10  C   UNL     1      44.506 -19.041   4.198  1.00  0.00     0.003 A 
HETATM   11  C   UNL     1      43.979 -19.357   2.946  1.00  0.00     0.002 A 
HETATM   12  C   UNL     1      43.028 -18.524   2.346  1.00  0.00     0.032 A 
BRANCH   8  13
HETATM   13  O   UNL     1      42.721 -15.901   4.870  1.00  0.00    -0.340 OA
BRANCH  13  14
HETATM   14  C   UNL     1      41.955 -16.208   6.051  1.00  0.00     0.293 C 
BRANCH  14  15
HETATM   15  C   UNL     1      40.494 -15.853   5.825  1.00  0.00     0.408 C 
HETATM   16  F   UNL     1      40.373 -14.727   5.084  1.00  0.00    -0.169 F 
HETATM   17  F   UNL     1      39.833 -16.842   5.186  1.00  0.00    -0.169 F 
HETATM   18  F   UNL     1      39.866 -15.637   7.003  1.00  0.00    -0.169 F 
ENDBRANCH  14  15
ENDBRANCH  13  14
ENDBRANCH   8  13
ENDBRANCH   3   7
BRANCH   1  19
HETATM   19  C   UNL     1      40.424 -13.716   0.493  1.00  0.00     0.086 A 
HETATM   20  C   UNL     1      39.798 -13.716  -0.740  1.00  0.00     0.052 A 
HETATM   21  C   UNL     1      39.231 -14.796  -1.581  1.00  0.00     0.072 C 
HETATM   22  N   UNL     1      39.775 -12.412  -1.146  1.00  0.00    -0.280 N 
HETATM   23  H   UNL     1      39.402 -12.030  -2.008  1.00  0.00     0.189 HD
HETATM   24  N   UNL     1      40.312 -11.562  -0.268  1.00  0.00    -0.177 NA
HETATM   25  C   UNL     1      40.711 -12.342   0.749  1.00  0.00     0.079 A 
HETATM   26  C   UNL     1      41.309 -11.689   1.941  1.00  0.00     0.075 C 
ENDBRANCH   1  19
TORSDOF 5
ENDMDL
MODEL 6
REMARK VINA RESULT:      -6.8      2.528      3.493
REMARK  5 active torsions:
REMARK  status: ('A' for Active; 'I' for Inactive)
REMARK    1  A    between atoms: C_8  and  N_9 
REMARK       I    between atoms: N_9  and  C_10 
REMARK       I    between atoms: C_10  and  N_11 
REMARK    2  A    between atoms: N_11  and  C_12 
REMARK    3  A    between atoms: C_13  and  O_14 
REMARK    4  A    between atoms: O_14  and  C_15 
REMARK    5  A    between atoms: C_15  and  C_16 
ROOT
HETATM    1  N   UNL     1      39.840 -14.776   0.810  1.00  0.00    -0.305 N 
HETATM    2  C   UNL     1      41.065 -15.060   1.384  1.00  0.00     0.325 C 
HETATM    3  N   UNL     1      40.964 -16.180   2.192  1.00  0.00    -0.306 N 
HETATM    4  O   UNL     1      42.093 -14.423   1.203  1.00  0.00    -0.247 OA
HETATM    5  H   UNL     1      39.192 -15.545   0.741  1.00  0.00     0.171 HD
HETATM    6  H   UNL     1      40.032 -16.461   2.467  1.00  0.00     0.171 HD
ENDROOT
BRANCH   3   7
HETATM    7  C   UNL     1      42.004 -16.862   2.860  1.00  0.00     0.069 A 
HETATM    8  C   UNL     1      42.163 -16.612   4.234  1.00  0.00     0.095 A 
HETATM    9  C   UNL     1      43.137 -17.278   4.981  1.00  0.00     0.039 A 
HETATM   10  C   UNL     1      43.991 -18.178   4.348  1.00  0.00     0.003 A 
HETATM   11  C   UNL     1      43.857 -18.419   2.981  1.00  0.00     0.002 A 
HETATM   12  C   UNL     1      42.864 -17.769   2.240  1.00  0.00     0.032 A 
BRANCH   8  13
HETATM   13  O   UNL     1      41.299 -15.725   4.831  1.00  0.00    -0.340 OA
BRANCH  13  14
HETATM   14  C   UNL     1      42.006 -14.764   5.640  1.00  0.00     0.293 C 
BRANCH  14  15
HETATM   15  C   UNL     1      42.205 -13.478   4.855  1.00  0.00     0.408 C 
HETATM   16  F   UNL     1      41.117 -13.187   4.105  1.00  0.00    -0.169 F 
HETATM   17  F   UNL     1      42.440 -12.426   5.670  1.00  0.00    -0.169 F 
HETATM   18  F   UNL     1      43.261 -13.587   4.018  1.00  0.00    -0.169 F 
ENDBRANCH  14  15
ENDBRANCH  13  14
ENDBRANCH   8  13
ENDBRANCH   3   7
BRANCH   1  19
HETATM   19  C   UNL     1      39.518 -13.649   0.071  1.00  0.00     0.086 A 
HETATM   20  C   UNL     1      39.169 -13.721  -1.266  1.00  0.00     0.052 A 
HETATM   21  C   UNL     1      39.058 -14.851  -2.218  1.00  0.00     0.072 C 
HETATM   22  N   UNL     1      38.913 -12.436  -1.653  1.00  0.00    -0.280 N 
HETATM   23  H   UNL     1      38.638 -12.101  -2.570  1.00  0.00     0.189 HD
HETATM   24  N   UNL     1      39.043 -11.539  -0.673  1.00  0.00    -0.177 NA
HETATM   25  C   UNL     1      39.408 -12.264   0.395  1.00  0.00     0.079 A 
HETATM   26  C   UNL     1      39.582 -11.562   1.692  1.00  0.00     0.075 C 
ENDBRANCH   1  19
TORSDOF 5
ENDMDL
MODEL 7
REMARK VINA RESULT:      -6.7      2.754      6.895
REMARK  5 active torsions:
REMARK  status: ('A' for Active; 'I' for Inactive)
REMARK    1  A    between atoms: C_8  and  N_9 
REMARK       I    between atoms: N_9  and  C_10 
REMARK       I    between atoms: C_10  and  N_11 
REMARK    2  A    between atoms: N_11  and  C_12 
REMARK    3  A    between atoms: C_13  and  O_14 
REMARK    4  A    between atoms: O_14  and  C_15 
REMARK    5  A    between atoms: C_15  and  C_16 
ROOT
HETATM    1  N   UNL     1      43.311 -16.507   4.290  1.00  0.00    -0.305 N 
HETATM    2  C   UNL     1      42.114 -15.854   4.520  1.00  0.00     0.325 C 
HETATM    3  N   UNL     1      42.274 -14.490   4.341  1.00  0.00    -0.306 N 
HETATM    4  O   UNL     1      41.063 -16.397   4.829  1.00  0.00    -0.247 OA
HETATM    5  H   UNL     1      43.977 -16.022   3.709  1.00  0.00     0.171 HD
HETATM    6  H   UNL     1      43.222 -14.139   4.344  1.00  0.00     0.171 HD
ENDROOT
BRANCH   3   7
HETATM    7  C   UNL     1      41.276 -13.491   4.366  1.00  0.00     0.069 A 
HETATM    8  C   UNL     1      40.784 -13.041   3.128  1.00  0.00     0.095 A 
HETATM    9  C   UNL     1      39.764 -12.089   3.061  1.00  0.00     0.039 A 
HETATM   10  C   UNL     1      39.251 -11.549   4.238  1.00  0.00     0.003 A 
HETATM   11  C   UNL     1      39.745 -11.973   5.471  1.00  0.00     0.002 A 
HETATM   12  C   UNL     1      40.750 -12.944   5.536  1.00  0.00     0.032 A 
BRANCH   8  13
HETATM   13  O   UNL     1      41.305 -13.600   1.985  1.00  0.00    -0.340 OA
BRANCH  13  14
HETATM   14  C   UNL     1      40.263 -14.066   1.105  1.00  0.00     0.293 C 
BRANCH  14  15
HETATM   15  C   UNL     1      40.050 -15.557   1.304  1.00  0.00     0.408 C 
HETATM   16  F   UNL     1      39.434 -16.112   0.235  1.00  0.00    -0.169 F 
HETATM   17  F   UNL     1      41.218 -16.209   1.494  1.00  0.00    -0.169 F 
HETATM   18  F   UNL     1      39.274 -15.789   2.388  1.00  0.00    -0.169 F 
ENDBRANCH  14  15
ENDBRANCH  13  14
ENDBRANCH   8  13
ENDBRANCH   3   7
BRANCH   1  19
HETATM   19  C   UNL     1      43.575 -17.847   4.521  1.00  0.00     0.086 A 
HETATM   20  C   UNL     1      43.671 -18.369   5.798  1.00  0.00     0.052 A 
HETATM   21  C   UNL     1      43.562 -17.760   7.145  1.00  0.00     0.072 C 
HETATM   22  N   UNL     1      43.926 -19.701   5.638  1.00  0.00    -0.280 N 
HETATM   23  H   UNL     1      44.067 -20.403   6.357  1.00  0.00     0.189 HD
HETATM   24  N   UNL     1      43.978 -20.093   4.363  1.00  0.00    -0.177 NA
HETATM   25  C   UNL     1      43.759 -18.971   3.661  1.00  0.00     0.079 A 
HETATM   26  C   UNL     1      43.694 -19.072   2.181  1.00  0.00     0.075 C 
ENDBRANCH   1  19
TORSDOF 5
ENDMDL
MODEL 8
REMARK VINA RESULT:      -6.6      2.679      6.505
REMARK  5 active torsions:
REMARK  status: ('A' for Active; 'I' for Inactive)
REMARK    1  A    between atoms: C_8  and  N_9 
REMARK       I    between atoms: N_9  and  C_10 
REMARK       I    between atoms: C_10  and  N_11 
REMARK    2  A    between atoms: N_11  and  C_12 
REMARK    3  A    between atoms: C_13  and  O_14 
REMARK    4  A    between atoms: O_14  and  C_15 
REMARK    5  A    between atoms: C_15  and  C_16 
ROOT
HETATM    1  N   UNL     1      43.568 -17.248   2.304  1.00  0.00    -0.305 N 
HETATM    2  C   UNL     1      42.471 -16.408   2.370  1.00  0.00     0.325 C 
HETATM    3  N   UNL     1      42.653 -15.320   1.533  1.00  0.00    -0.306 N 
HETATM    4  O   UNL     1      41.479 -16.597   3.060  1.00  0.00    -0.247 OA
HETATM    5  H   UNL     1      44.126 -17.184   1.467  1.00  0.00     0.171 HD
HETATM    6  H   UNL     1      43.597 -15.140   1.220  1.00  0.00     0.171 HD
ENDROOT
BRANCH   3   7
HETATM    7  C   UNL     1      41.725 -14.301   1.224  1.00  0.00     0.069 A 
HETATM    8  C   UNL     1      41.911 -13.052   1.842  1.00  0.00     0.095 A 
HETATM    9  C   UNL     1      41.067 -11.975   1.558  1.00  0.00     0.039 A 
HETATM   10  C   UNL     1      40.002 -12.151   0.678  1.00  0.00     0.003 A 
HETATM   11  C   UNL     1      39.795 -13.392   0.076  1.00  0.00     0.002 A 
HETATM   12  C   UNL     1      40.656 -14.462   0.343  1.00  0.00     0.032 A 
BRANCH   8  13
HETATM   13  O   UNL     1      42.976 -12.908   2.698  1.00  0.00    -0.340 OA
BRANCH  13  14
HETATM   14  C   UNL     1      43.113 -11.545   3.145  1.00  0.00     0.293 C 
BRANCH  14  15
HETATM   15  C   UNL     1      43.380 -11.517   4.641  1.00  0.00     0.408 C 
HETATM   16  F   UNL     1      44.681 -11.255   4.902  1.00  0.00    -0.169 F 
HETATM   17  F   UNL     1      42.635 -10.579   5.264  1.00  0.00    -0.169 F 
HETATM   18  F   UNL     1      43.083 -12.711   5.202  1.00  0.00    -0.169 F 
ENDBRANCH  14  15
ENDBRANCH  13  14
ENDBRANCH   8  13
ENDBRANCH   3   7
BRANCH   1  19
HETATM   19  C   UNL     1      43.813 -18.348   3.110  1.00  0.00     0.086 A 
HETATM   20  C   UNL     1      44.163 -18.220   4.442  1.00  0.00     0.052 A 
HETATM   21  C   UNL     1      44.382 -17.045   5.317  1.00  0.00     0.072 C 
HETATM   22  N   UNL     1      44.313 -19.494   4.911  1.00  0.00    -0.280 N 
HETATM   23  H   UNL     1      44.576 -19.792   5.844  1.00  0.00     0.189 HD
HETATM   24  N   UNL     1      44.064 -20.439   4.001  1.00  0.00    -0.177 NA
HETATM   25  C   UNL     1      43.749 -19.756   2.890  1.00  0.00     0.079 A 
HETATM   26  C   UNL     1      43.354 -20.525   1.683  1.00  0.00     0.075 C 
ENDBRANCH   1  19
TORSDOF 5
ENDMDL
MODEL 9
REMARK VINA RESULT:      -6.6      3.848      7.611
REMARK  5 active torsions:
REMARK  status: ('A' for Active; 'I' for Inactive)
REMARK    1  A    between atoms: C_8  and  N_9 
REMARK       I    between atoms: N_9  and  C_10 
REMARK       I    between atoms: C_10  and  N_11 
REMARK    2  A    between atoms: N_11  and  C_12 
REMARK    3  A    between atoms: C_13  and  O_14 
REMARK    4  A    between atoms: O_14  and  C_15 
REMARK    5  A    between atoms: C_15  and  C_16 
ROOT
HETATM    1  N   UNL     1      43.100 -17.008   2.865  1.00  0.00    -0.305 N 
HETATM    2  C   UNL     1      42.043 -16.233   3.305  1.00  0.00     0.325 C 
HETATM    3  N   UNL     1      41.999 -15.042   2.600  1.00  0.00    -0.306 N 
HETATM    4  O   UNL     1      41.254 -16.551   4.185  1.00  0.00    -0.247 OA
HETATM    5  H   UNL     1      43.433 -16.816   1.933  1.00  0.00     0.171 HD
HETATM    6  H   UNL     1      42.834 -14.782   2.094  1.00  0.00     0.171 HD
ENDROOT
BRANCH   3   7
HETATM    7  C   UNL     1      41.011 -14.035   2.663  1.00  0.00     0.069 A 
HETATM    8  C   UNL     1      40.292 -13.761   1.487  1.00  0.00     0.095 A 
HETATM    9  C   UNL     1      39.267 -12.813   1.472  1.00  0.00     0.039 A 
HETATM   10  C   UNL     1      38.975 -12.100   2.632  1.00  0.00     0.003 A 
HETATM   11  C   UNL     1      39.696 -12.347   3.800  1.00  0.00     0.002 A 
HETATM   12  C   UNL     1      40.706 -13.315   3.818  1.00  0.00     0.032 A 
BRANCH   8  13
HETATM   13  O   UNL     1      40.597 -14.489   0.361  1.00  0.00    -0.340 OA
BRANCH  13  14
HETATM   14  C   UNL     1      40.306 -13.749  -0.841  1.00  0.00     0.293 C 
BRANCH  14  15
HETATM   15  C   UNL     1      39.290 -14.506  -1.679  1.00  0.00     0.408 C 
HETATM   16  F   UNL     1      39.067 -15.744  -1.179  1.00  0.00    -0.169 F 
HETATM   17  F   UNL     1      38.105 -13.860  -1.732  1.00  0.00    -0.169 F 
HETATM   18  F   UNL     1      39.731 -14.652  -2.949  1.00  0.00    -0.169 F 
ENDBRANCH  14  15
ENDBRANCH  13  14
ENDBRANCH   8  13
ENDBRANCH   3   7
BRANCH   1  19
HETATM   19  C   UNL     1      43.550 -18.188   3.434  1.00  0.00     0.086 A 
HETATM   20  C   UNL     1      44.100 -18.229   4.702  1.00  0.00     0.052 A 
HETATM   21  C   UNL     1      44.373 -17.183   5.716  1.00  0.00     0.072 C 
HETATM   22  N   UNL     1      44.414 -19.539   4.929  1.00  0.00    -0.280 N 
HETATM   23  H   UNL     1      44.845 -19.947   5.752  1.00  0.00     0.189 HD
HETATM   24  N   UNL     1      44.091 -20.355   3.924  1.00  0.00    -0.177 NA
HETATM   25  C   UNL     1      43.553 -19.546   2.999  1.00  0.00     0.079 A 
HETATM   26  C   UNL     1      43.025 -20.160   1.753  1.00  0.00     0.075 C 
ENDBRANCH   1  19
TORSDOF 5
ENDMDL
MODEL 10
REMARK VINA RESULT:      -6.5      4.326      7.479
REMARK  5 active torsions:
REMARK  status: ('A' for Active; 'I' for Inactive)
REMARK    1  A    between atoms: C_8  and  N_9 
REMARK       I    between atoms: N_9  and  C_10 
REMARK       I    between atoms: C_10  and  N_11 
REMARK    2  A    between atoms: N_11  and  C_12 
REMARK    3  A    between atoms: C_13  and  O_14 
REMARK    4  A    between atoms: O_14  and  C_15 
REMARK    5  A    between atoms: C_15  and  C_16 
ROOT
HETATM    1  N   UNL     1      42.263 -14.999   1.280  1.00  0.00    -0.305 N 
HETATM    2  C   UNL     1      40.955 -14.960   0.832  1.00  0.00     0.325 C 
HETATM    3  N   UNL     1      40.865 -14.179  -0.308  1.00  0.00    -0.306 N 
HETATM    4  O   UNL     1      40.013 -15.534   1.359  1.00  0.00    -0.247 OA
HETATM    5  H   UNL     1      42.974 -14.806   0.591  1.00  0.00     0.171 HD
HETATM    6  H   UNL     1      41.640 -13.558  -0.497  1.00  0.00     0.171 HD
ENDROOT
BRANCH   3   7
HETATM    7  C   UNL     1      39.737 -13.982  -1.134  1.00  0.00     0.069 A 
HETATM    8  C   UNL     1      38.997 -12.802  -0.943  1.00  0.00     0.095 A 
HETATM    9  C   UNL     1      37.894 -12.505  -1.746  1.00  0.00     0.039 A 
HETATM   10  C   UNL     1      37.498 -13.409  -2.730  1.00  0.00     0.003 A 
HETATM   11  C   UNL     1      38.212 -14.592  -2.915  1.00  0.00     0.002 A 
HETATM   12  C   UNL     1      39.331 -14.876  -2.124  1.00  0.00     0.032 A 
BRANCH   8  13
HETATM   13  O   UNL     1      39.418 -11.926   0.029  1.00  0.00    -0.340 OA
BRANCH  13  14
HETATM   14  C   UNL     1      38.665 -12.088   1.247  1.00  0.00     0.293 C 
BRANCH  14  15
HETATM   15  C   UNL     1      37.830 -10.845   1.505  1.00  0.00     0.408 C 
HETATM   16  F   UNL     1      37.906 -10.462   2.800  1.00  0.00    -0.169 F 
HETATM   17  F   UNL     1      38.232  -9.806   0.741  1.00  0.00    -0.169 F 
HETATM   18  F   UNL     1      36.527 -11.076   1.223  1.00  0.00    -0.169 F 
ENDBRANCH  14  15
ENDBRANCH  13  14
ENDBRANCH   8  13
ENDBRANCH   3   7
BRANCH   1  19
HETATM   19  C   UNL     1      42.711 -15.549   2.470  1.00  0.00     0.086 A 
HETATM   20  C   UNL     1      42.934 -14.779   3.598  1.00  0.00     0.052 A 
HETATM   21  C   UNL     1      42.810 -13.327   3.866  1.00  0.00     0.072 C 
HETATM   22  N   UNL     1      43.352 -15.648   4.565  1.00  0.00    -0.280 N 
HETATM   23  H   UNL     1      43.617 -15.441   5.521  1.00  0.00     0.189 HD
HETATM   24  N   UNL     1      43.395 -16.922   4.166  1.00  0.00    -0.177 NA
HETATM   25  C   UNL     1      42.999 -16.883   2.885  1.00  0.00     0.079 A 
HETATM   26  C   UNL     1      42.877 -18.168   2.150  1.00  0.00     0.075 C 
ENDBRANCH   1  19
TORSDOF 5
ENDMDL
