MODEL 1
REMARK VINA RESULT:      -7.5      0.000      0.000
REMARK  2 active torsions:
REMARK  status: ('A' for Active; 'I' for Inactive)
REMARK    1  A    between atoms: C_8  and  S_9 
REMARK    2  A    between atoms: S_9  and  C_10 
ROOT
HETATM    1  C   UNL     1      43.406 -20.324   2.298  1.00  0.00     0.002 A 
HETATM    2  C   UNL     1      43.065 -18.977   2.175  1.00  0.00     0.034 A 
HETATM    3  C   UNL     1      43.296 -18.078   3.209  1.00  0.00     0.087 A 
HETATM    4  C   UNL     1      43.891 -18.547   4.411  1.00  0.00     0.087 A 
HETATM    5  N   UNL     1      44.131 -17.718   5.447  1.00  0.00    -0.232 NA
HETATM    6  C   UNL     1      43.801 -16.424   5.269  1.00  0.00     0.164 A 
HETATM    7 CL   UNL     1      44.118 -15.427   6.628  1.00  0.00    -0.059 Cl
HETATM    8  C   UNL     1      43.219 -15.966   4.100  1.00  0.00     0.165 A 
HETATM    9  N   UNL     1      42.946 -16.784   3.057  1.00  0.00    -0.234 NA
HETATM   10  C   UNL     1      44.225 -19.890   4.520  1.00  0.00     0.034 A 
HETATM   11  C   UNL     1      43.988 -20.783   3.473  1.00  0.00     0.002 A 
ENDROOT
BRANCH   8  12
HETATM   12  S   UNL     1      42.742 -14.269   3.821  1.00  0.00     0.078 S 
HETATM   13  O   UNL     1      42.953 -13.927   2.371  1.00  0.00    -0.251 OA
BRANCH  12  14
HETATM   14  C   UNL     1      40.915 -14.384   4.036  1.00  0.00     0.112 C 
HETATM   15  C   UNL     1      40.661 -14.661   5.528  1.00  0.00     0.250 C 
HETATM   16  N   UNL     1      40.968 -13.433   6.339  1.00  0.00    -0.074 N 
HETATM   17  H   UNL     1      41.967 -13.178   6.167  1.00  0.00     0.277 HD
HETATM   18  H   UNL     1      40.908 -13.632   7.346  1.00  0.00     0.277 HD
HETATM   19  C   UNL     1      40.135 -12.250   5.990  1.00  0.00     0.232 C 
HETATM   20  C   UNL     1      40.318 -11.921   4.516  1.00  0.00     0.029 C 
HETATM   21  C   UNL     1      40.118 -13.141   3.609  1.00  0.00     0.021 C 
ENDBRANCH  12  14
ENDBRANCH   8  12
TORSDOF 2
ENDMDL
MODEL 2
REMARK VINA RESULT:      -7.5      1.556      2.227
REMARK  2 active torsions:
REMARK  status: ('A' for Active; 'I' for Inactive)
REMARK    1  A    between atoms: C_8  and  S_9 
REMARK    2  A    between atoms: S_9  and  C_10 
ROOT
HETATM    1  C   UNL     1      43.645 -20.627   2.558  1.00  0.00     0.002 A 
HETATM    2  C   UNL     1      43.370 -19.298   2.234  1.00  0.00     0.034 A 
HETATM    3  C   UNL     1      43.472 -18.289   3.183  1.00  0.00     0.087 A 
HETATM    4  C   UNL     1      43.866 -18.624   4.507  1.00  0.00     0.087 A 
HETATM    5  N   UNL     1      43.975 -17.684   5.467  1.00  0.00    -0.232 NA
HETATM    6  C   UNL     1      43.718 -16.415   5.096  1.00  0.00     0.164 A 
HETATM    7 CL   UNL     1      43.861 -15.271   6.367  1.00  0.00    -0.059 Cl
HETATM    8  C   UNL     1      43.332 -16.086   3.808  1.00  0.00     0.165 A 
HETATM    9  N   UNL     1      43.191 -17.016   2.835  1.00  0.00    -0.234 NA
HETATM   10  C   UNL     1      44.136 -19.950   4.816  1.00  0.00     0.034 A 
HETATM   11  C   UNL     1      44.029 -20.955   3.853  1.00  0.00     0.002 A 
ENDROOT
BRANCH   8  12
HETATM   12  S   UNL     1      42.957 -14.427   3.271  1.00  0.00     0.078 S 
HETATM   13  O   UNL     1      43.175 -14.326   1.786  1.00  0.00    -0.251 OA
BRANCH  12  14
HETATM   14  C   UNL     1      41.128 -14.394   3.501  1.00  0.00     0.112 C 
HETATM   15  C   UNL     1      40.644 -13.022   2.998  1.00  0.00     0.250 C 
HETATM   16  N   UNL     1      40.746 -12.958   1.500  1.00  0.00    -0.074 N 
HETATM   17  H   UNL     1      41.744 -13.124   1.240  1.00  0.00     0.277 HD
HETATM   18  H   UNL     1      40.529 -12.014   1.156  1.00  0.00     0.277 HD
HETATM   19  C   UNL     1      39.920 -13.974   0.791  1.00  0.00     0.232 C 
HETATM   20  C   UNL     1      40.329 -15.365   1.249  1.00  0.00     0.029 C 
HETATM   21  C   UNL     1      40.349 -15.502   2.776  1.00  0.00     0.021 C 
ENDBRANCH  12  14
ENDBRANCH   8  12
TORSDOF 2
ENDMDL
MODEL 3
REMARK VINA RESULT:      -7.0      1.510      2.110
REMARK  2 active torsions:
REMARK  status: ('A' for Active; 'I' for Inactive)
REMARK    1  A    between atoms: C_8  and  S_9 
REMARK    2  A    between atoms: S_9  and  C_10 
ROOT
HETATM    1  C   UNL     1      44.218 -20.608   4.919  1.00  0.00     0.002 A 
HETATM    2  C   UNL     1      43.996 -19.285   5.304  1.00  0.00     0.034 A 
HETATM    3  C   UNL     1      43.603 -18.323   4.383  1.00  0.00     0.087 A 
HETATM    4  C   UNL     1      43.426 -18.699   3.024  1.00  0.00     0.087 A 
HETATM    5  N   UNL     1      43.051 -17.803   2.090  1.00  0.00    -0.232 NA
HETATM    6  C   UNL     1      42.831 -16.545   2.518  1.00  0.00     0.164 A 
HETATM    7 CL   UNL     1      42.372 -15.452   1.278  1.00  0.00    -0.059 Cl
HETATM    8  C   UNL     1      43.006 -16.175   3.840  1.00  0.00     0.165 A 
HETATM    9  N   UNL     1      43.405 -17.052   4.792  1.00  0.00    -0.234 NA
HETATM   10  C   UNL     1      43.650 -20.018   2.654  1.00  0.00     0.034 A 
HETATM   11  C   UNL     1      44.044 -20.976   3.590  1.00  0.00     0.002 A 
ENDROOT
BRANCH   8  12
HETATM   12  S   UNL     1      42.751 -14.521   4.456  1.00  0.00     0.078 S 
HETATM   13  O   UNL     1      43.208 -13.529   3.421  1.00  0.00    -0.251 OA
BRANCH  12  14
HETATM   14  C   UNL     1      40.910 -14.427   4.444  1.00  0.00     0.112 C 
HETATM   15  C   UNL     1      40.454 -14.482   5.913  1.00  0.00     0.250 C 
HETATM   16  N   UNL     1      40.801 -13.195   6.607  1.00  0.00    -0.074 N 
HETATM   17  H   UNL     1      41.836 -13.063   6.538  1.00  0.00     0.277 HD
HETATM   18  H   UNL     1      40.602 -13.254   7.614  1.00  0.00     0.277 HD
HETATM   19  C   UNL     1      40.153 -11.992   6.017  1.00  0.00     0.232 C 
HETATM   20  C   UNL     1      40.543 -11.876   4.551  1.00  0.00     0.029 C 
HETATM   21  C   UNL     1      40.314 -13.179   3.775  1.00  0.00     0.021 C 
ENDBRANCH  12  14
ENDBRANCH   8  12
TORSDOF 2
ENDMDL
MODEL 4
REMARK VINA RESULT:      -6.9      2.838      3.445
REMARK  2 active torsions:
REMARK  status: ('A' for Active; 'I' for Inactive)
REMARK    1  A    between atoms: C_8  and  S_9 
REMARK    2  A    between atoms: S_9  and  C_10 
ROOT
HETATM    1  C   UNL     1      44.334 -19.294   3.581  1.00  0.00     0.002 A 
HETATM    2  C   UNL     1      44.239 -18.296   4.552  1.00  0.00     0.034 A 
HETATM    3  C   UNL     1      43.360 -17.230   4.406  1.00  0.00     0.087 A 
HETATM    4  C   UNL     1      42.545 -17.162   3.243  1.00  0.00     0.087 A 
HETATM    5  N   UNL     1      41.680 -16.146   3.049  1.00  0.00    -0.232 NA
HETATM    6  C   UNL     1      41.613 -15.221   4.026  1.00  0.00     0.164 A 
HETATM    7 CL   UNL     1      40.505 -13.949   3.712  1.00  0.00    -0.059 Cl
HETATM    8  C   UNL     1      42.407 -15.284   5.158  1.00  0.00     0.165 A 
HETATM    9  N   UNL     1      43.300 -16.280   5.362  1.00  0.00    -0.234 NA
HETATM   10  C   UNL     1      42.651 -18.161   2.285  1.00  0.00     0.034 A 
HETATM   11  C   UNL     1      43.538 -19.226   2.444  1.00  0.00     0.002 A 
ENDROOT
BRANCH   8  12
HETATM   12  S   UNL     1      42.375 -14.074   6.469  1.00  0.00     0.078 S 
HETATM   13  O   UNL     1      43.167 -14.590   7.640  1.00  0.00    -0.251 OA
BRANCH  12  14
HETATM   14  C   UNL     1      43.405 -12.736   5.731  1.00  0.00     0.112 C 
HETATM   15  C   UNL     1      42.466 -11.546   5.471  1.00  0.00     0.250 C 
HETATM   16  N   UNL     1      42.065 -10.913   6.774  1.00  0.00    -0.074 N 
HETATM   17  H   UNL     1      41.595 -11.645   7.354  1.00  0.00     0.277 HD
HETATM   18  H   UNL     1      41.354 -10.185   6.627  1.00  0.00     0.277 HD
HETATM   19  C   UNL     1      43.206 -10.375   7.565  1.00  0.00     0.232 C 
HETATM   20  C   UNL     1      44.195 -11.495   7.849  1.00  0.00     0.029 C 
HETATM   21  C   UNL     1      44.593 -12.267   6.585  1.00  0.00     0.021 C 
ENDBRANCH  12  14
ENDBRANCH   8  12
TORSDOF 2
ENDMDL
MODEL 5
REMARK VINA RESULT:      -6.8      4.112      6.553
REMARK  2 active torsions:
REMARK  status: ('A' for Active; 'I' for Inactive)
REMARK    1  A    between atoms: C_8  and  S_9 
REMARK    2  A    between atoms: S_9  and  C_10 
ROOT
HETATM    1  C   UNL     1      39.061 -14.380  -2.760  1.00  0.00     0.002 A 
HETATM    2  C   UNL     1      39.301 -14.861  -1.472  1.00  0.00     0.034 A 
HETATM    3  C   UNL     1      39.971 -14.093  -0.529  1.00  0.00     0.087 A 
HETATM    4  C   UNL     1      40.417 -12.793  -0.889  1.00  0.00     0.087 A 
HETATM    5  N   UNL     1      41.077 -12.008  -0.014  1.00  0.00    -0.232 NA
HETATM    6  C   UNL     1      41.265 -12.513   1.222  1.00  0.00     0.164 A 
HETATM    7 CL   UNL     1      42.122 -11.471   2.281  1.00  0.00    -0.059 Cl
HETATM    8  C   UNL     1      40.833 -13.779   1.574  1.00  0.00     0.165 A 
HETATM    9  N   UNL     1      40.190 -14.594   0.705  1.00  0.00    -0.234 NA
HETATM   10  C   UNL     1      40.173 -12.327  -2.174  1.00  0.00     0.034 A 
HETATM   11  C   UNL     1      39.498 -13.109  -3.112  1.00  0.00     0.002 A 
ENDROOT
BRANCH   8  12
HETATM   12  S   UNL     1      41.075 -14.504   3.186  1.00  0.00     0.078 S 
HETATM   13  O   UNL     1      40.426 -15.861   3.223  1.00  0.00    -0.251 OA
BRANCH  12  14
HETATM   14  C   UNL     1      42.889 -14.829   3.151  1.00  0.00     0.112 C 
HETATM   15  C   UNL     1      43.240 -15.525   4.477  1.00  0.00     0.250 C 
HETATM   16  N   UNL     1      42.698 -16.927   4.481  1.00  0.00    -0.074 N 
HETATM   17  H   UNL     1      41.663 -16.870   4.348  1.00  0.00     0.277 HD
HETATM   18  H   UNL     1      42.829 -17.370   5.400  1.00  0.00     0.277 HD
HETATM   19  C   UNL     1      43.246 -17.793   3.402  1.00  0.00     0.232 C 
HETATM   20  C   UNL     1      42.953 -17.160   2.050  1.00  0.00     0.029 C 
HETATM   21  C   UNL     1      43.385 -15.691   1.980  1.00  0.00     0.021 C 
ENDBRANCH  12  14
ENDBRANCH   8  12
TORSDOF 2
ENDMDL
MODEL 6
REMARK VINA RESULT:      -6.6      2.593      3.355
REMARK  2 active torsions:
REMARK  status: ('A' for Active; 'I' for Inactive)
REMARK    1  A    between atoms: C_8  and  S_9 
REMARK    2  A    between atoms: S_9  and  C_10 
ROOT
HETATM    1  C   UNL     1      44.332 -18.683   4.396  1.00  0.00     0.002 A 
HETATM    2  C   UNL     1      43.718 -17.586   5.000  1.00  0.00     0.034 A 
HETATM    3  C   UNL     1      42.772 -16.826   4.323  1.00  0.00     0.087 A 
HETATM    4  C   UNL     1      42.430 -17.179   2.990  1.00  0.00     0.087 A 
HETATM    5  N   UNL     1      41.523 -16.472   2.287  1.00  0.00    -0.232 NA
HETATM    6  C   UNL     1      40.945 -15.434   2.924  1.00  0.00     0.164 A 
HETATM    7 CL   UNL     1      39.813 -14.568   1.969  1.00  0.00    -0.059 Cl
HETATM    8  C   UNL     1      41.279 -15.087   4.221  1.00  0.00     0.165 A 
HETATM    9  N   UNL     1      42.205 -15.767   4.938  1.00  0.00    -0.234 NA
HETATM   10  C   UNL     1      43.049 -18.272   2.400  1.00  0.00     0.034 A 
HETATM   11  C   UNL     1      43.997 -19.028   3.092  1.00  0.00     0.002 A 
ENDROOT
BRANCH   8  12
HETATM   12  S   UNL     1      40.563 -13.712   5.103  1.00  0.00     0.078 S 
HETATM   13  O   UNL     1      40.026 -14.194   6.423  1.00  0.00    -0.251 OA
BRANCH  12  14
HETATM   14  C   UNL     1      42.074 -12.740   5.515  1.00  0.00     0.112 C 
HETATM   15  C   UNL     1      42.809 -12.482   4.188  1.00  0.00     0.250 C 
HETATM   16  N   UNL     1      42.045 -11.486   3.361  1.00  0.00    -0.074 N 
HETATM   17  H   UNL     1      41.090 -11.876   3.193  1.00  0.00     0.277 HD
HETATM   18  H   UNL     1      42.465 -11.383   2.428  1.00  0.00     0.277 HD
HETATM   19  C   UNL     1      41.882 -10.156   4.009  1.00  0.00     0.232 C 
HETATM   20  C   UNL     1      41.173 -10.329   5.344  1.00  0.00     0.029 C 
HETATM   21  C   UNL     1      41.827 -11.400   6.225  1.00  0.00     0.021 C 
ENDBRANCH  12  14
ENDBRANCH   8  12
TORSDOF 2
ENDMDL
MODEL 7
REMARK VINA RESULT:      -6.6      4.232      5.280
REMARK  2 active torsions:
REMARK  status: ('A' for Active; 'I' for Inactive)
REMARK    1  A    between atoms: C_8  and  S_9 
REMARK    2  A    between atoms: S_9  and  C_10 
ROOT
HETATM    1  C   UNL     1      43.540 -17.535   2.504  1.00  0.00     0.002 A 
HETATM    2  C   UNL     1      42.986 -16.598   1.632  1.00  0.00     0.034 A 
HETATM    3  C   UNL     1      42.099 -15.629   2.084  1.00  0.00     0.087 A 
HETATM    4  C   UNL     1      41.753 -15.599   3.462  1.00  0.00     0.087 A 
HETATM    5  N   UNL     1      40.893 -14.684   3.951  1.00  0.00    -0.232 NA
HETATM    6  C   UNL     1      40.402 -13.790   3.071  1.00  0.00     0.164 A 
HETATM    7 CL   UNL     1      39.303 -12.664   3.754  1.00  0.00    -0.059 Cl
HETATM    8  C   UNL     1      40.735 -13.819   1.728  1.00  0.00     0.165 A 
HETATM    9  N   UNL     1      41.577 -14.743   1.209  1.00  0.00    -0.234 NA
HETATM   10  C   UNL     1      42.311 -16.538   4.319  1.00  0.00     0.034 A 
HETATM   11  C   UNL     1      43.202 -17.506   3.851  1.00  0.00     0.002 A 
ENDROOT
BRANCH   8  12
HETATM   12  S   UNL     1      40.098 -12.674   0.517  1.00  0.00     0.078 S 
HETATM   13  O   UNL     1      40.979 -11.455   0.475  1.00  0.00    -0.251 OA
BRANCH  12  14
HETATM   14  C   UNL     1      40.454 -13.589  -1.044  1.00  0.00     0.112 C 
HETATM   15  C   UNL     1      39.248 -14.509  -1.303  1.00  0.00     0.250 C 
HETATM   16  N   UNL     1      38.056 -13.692  -1.715  1.00  0.00    -0.074 N 
HETATM   17  H   UNL     1      37.854 -13.012  -0.948  1.00  0.00     0.277 HD
HETATM   18  H   UNL     1      37.215 -14.278  -1.787  1.00  0.00     0.277 HD
HETATM   19  C   UNL     1      38.258 -12.912  -2.967  1.00  0.00     0.232 C 
HETATM   20  C   UNL     1      39.451 -11.985  -2.797  1.00  0.00     0.029 C 
HETATM   21  C   UNL     1      40.698 -12.714  -2.283  1.00  0.00     0.021 C 
ENDBRANCH  12  14
ENDBRANCH   8  12
TORSDOF 2
ENDMDL
MODEL 8
REMARK VINA RESULT:      -6.3     14.984     16.076
REMARK  2 active torsions:
REMARK  status: ('A' for Active; 'I' for Inactive)
REMARK    1  A    between atoms: C_8  and  S_9 
REMARK    2  A    between atoms: S_9  and  C_10 
ROOT
HETATM    1  C   UNL     1      48.863 -30.100   4.133  1.00  0.00     0.002 A 
HETATM    2  C   UNL     1      48.103 -30.194   2.967  1.00  0.00     0.034 A 
HETATM    3  C   UNL     1      48.703 -30.218   1.715  1.00  0.00     0.087 A 
HETATM    4  C   UNL     1      50.120 -30.147   1.628  1.00  0.00     0.087 A 
HETATM    5  N   UNL     1      50.753 -30.162   0.438  1.00  0.00    -0.232 NA
HETATM    6  C   UNL     1      49.973 -30.273  -0.655  1.00  0.00     0.164 A 
HETATM    7 CL   UNL     1      50.839 -30.270  -2.137  1.00  0.00    -0.059 Cl
HETATM    8  C   UNL     1      48.593 -30.339  -0.573  1.00  0.00     0.165 A 
HETATM    9  N   UNL     1      47.935 -30.301   0.609  1.00  0.00    -0.234 NA
HETATM   10  C   UNL     1      50.865 -30.054   2.796  1.00  0.00     0.034 A 
HETATM   11  C   UNL     1      50.248 -30.031   4.048  1.00  0.00     0.002 A 
ENDROOT
BRANCH   8  12
HETATM   12  S   UNL     1      47.514 -30.464  -1.988  1.00  0.00     0.078 S 
HETATM   13  O   UNL     1      47.101 -31.899  -2.173  1.00  0.00    -0.251 OA
BRANCH  12  14
HETATM   14  C   UNL     1      46.013 -29.600  -1.356  1.00  0.00     0.112 C 
HETATM   15  C   UNL     1      46.095 -28.147  -1.856  1.00  0.00     0.250 C 
HETATM   16  N   UNL     1      45.849 -28.099  -3.338  1.00  0.00    -0.074 N 
HETATM   17  H   UNL     1      46.570 -28.699  -3.801  1.00  0.00     0.277 HD
HETATM   18  H   UNL     1      46.006 -27.152  -3.707  1.00  0.00     0.277 HD
HETATM   19  C   UNL     1      44.511 -28.604  -3.749  1.00  0.00     0.232 C 
HETATM   20  C   UNL     1      44.344 -30.039  -3.272  1.00  0.00     0.029 C 
HETATM   21  C   UNL     1      44.669 -30.208  -1.783  1.00  0.00     0.021 C 
ENDBRANCH  12  14
ENDBRANCH   8  12
TORSDOF 2
ENDMDL
MODEL 9
REMARK VINA RESULT:      -6.1      3.924      7.079
REMARK  2 active torsions:
REMARK  status: ('A' for Active; 'I' for Inactive)
REMARK    1  A    between atoms: C_8  and  S_9 
REMARK    2  A    between atoms: S_9  and  C_10 
ROOT
HETATM    1  C   UNL     1      46.238  -9.871   8.199  1.00  0.00     0.002 A 
HETATM    2  C   UNL     1      45.861 -10.702   7.144  1.00  0.00     0.034 A 
HETATM    3  C   UNL     1      44.530 -10.833   6.769  1.00  0.00     0.087 A 
HETATM    4  C   UNL     1      43.538 -10.104   7.479  1.00  0.00     0.087 A 
HETATM    5  N   UNL     1      42.232 -10.200   7.161  1.00  0.00    -0.232 NA
HETATM    6  C   UNL     1      41.925 -11.001   6.122  1.00  0.00     0.164 A 
HETATM    7 CL   UNL     1      40.246 -11.090   5.778  1.00  0.00    -0.059 Cl
HETATM    8  C   UNL     1      42.888 -11.714   5.430  1.00  0.00     0.165 A 
HETATM    9  N   UNL     1      44.203 -11.653   5.748  1.00  0.00    -0.234 NA
HETATM   10  C   UNL     1      43.926  -9.281   8.528  1.00  0.00     0.034 A 
HETATM   11  C   UNL     1      45.268  -9.158   8.893  1.00  0.00     0.002 A 
ENDROOT
BRANCH   8  12
HETATM   12  S   UNL     1      42.534 -12.804   4.064  1.00  0.00     0.078 S 
HETATM   13  O   UNL     1      43.601 -12.647   3.014  1.00  0.00    -0.251 OA
BRANCH  12  14
HETATM   14  C   UNL     1      42.850 -14.446   4.840  1.00  0.00     0.112 C 
HETATM   15  C   UNL     1      41.653 -14.738   5.761  1.00  0.00     0.250 C 
HETATM   16  N   UNL     1      40.432 -15.040   4.939  1.00  0.00    -0.074 N 
HETATM   17  H   UNL     1      40.245 -14.213   4.328  1.00  0.00     0.277 HD
HETATM   18  H   UNL     1      39.600 -15.132   5.535  1.00  0.00     0.277 HD
HETATM   19  C   UNL     1      40.574 -16.230   4.056  1.00  0.00     0.232 C 
HETATM   20  C   UNL     1      41.756 -16.026   3.120  1.00  0.00     0.029 C 
HETATM   21  C   UNL     1      43.033 -15.617   3.862  1.00  0.00     0.021 C 
ENDBRANCH  12  14
ENDBRANCH   8  12
TORSDOF 2
ENDMDL
MODEL 10
REMARK VINA RESULT:      -6.0      4.296      6.997
REMARK  2 active torsions:
REMARK  status: ('A' for Active; 'I' for Inactive)
REMARK    1  A    between atoms: C_8  and  S_9 
REMARK    2  A    between atoms: S_9  and  C_10 
ROOT
HETATM    1  C   UNL     1      41.013 -10.593  -2.128  1.00  0.00     0.002 A 
HETATM    2  C   UNL     1      41.201 -10.969  -0.798  1.00  0.00     0.034 A 
HETATM    3  C   UNL     1      40.849 -12.236  -0.350  1.00  0.00     0.087 A 
HETATM    4  C   UNL     1      40.289 -13.163  -1.271  1.00  0.00     0.087 A 
HETATM    5  N   UNL     1      39.926 -14.403  -0.888  1.00  0.00    -0.232 NA
HETATM    6  C   UNL     1      40.147 -14.721   0.403  1.00  0.00     0.164 A 
HETATM    7 CL   UNL     1      39.650 -16.307   0.829  1.00  0.00    -0.059 Cl
HETATM    8  C   UNL     1      40.690 -13.820   1.302  1.00  0.00     0.165 A 
HETATM    9  N   UNL     1      41.039 -12.561   0.946  1.00  0.00    -0.234 NA
HETATM   10  C   UNL     1      40.107 -12.776  -2.592  1.00  0.00     0.034 A 
HETATM   11  C   UNL     1      40.464 -11.499  -3.028  1.00  0.00     0.002 A 
ENDROOT
BRANCH   8  12
HETATM   12  S   UNL     1      40.983 -14.181   3.024  1.00  0.00     0.078 S 
HETATM   13  O   UNL     1      40.387 -15.522   3.358  1.00  0.00    -0.251 OA
BRANCH  12  14
HETATM   14  C   UNL     1      42.807 -14.444   3.018  1.00  0.00     0.112 C 
HETATM   15  C   UNL     1      43.172 -15.049   4.385  1.00  0.00     0.250 C 
HETATM   16  N   UNL     1      42.679 -16.467   4.468  1.00  0.00    -0.074 N 
HETATM   17  H   UNL     1      41.643 -16.454   4.325  1.00  0.00     0.277 HD
HETATM   18  H   UNL     1      42.818 -16.851   5.411  1.00  0.00     0.277 HD
HETATM   19  C   UNL     1      43.264 -17.375   3.444  1.00  0.00     0.232 C 
HETATM   20  C   UNL     1      42.960 -16.832   2.055  1.00  0.00     0.029 C 
HETATM   21  C   UNL     1      43.341 -15.355   1.902  1.00  0.00     0.021 C 
ENDBRANCH  12  14
ENDBRANCH   8  12
TORSDOF 2
ENDMDL
