MODEL 1
REMARK VINA RESULT:      -7.9      0.000      0.000
REMARK  9 active torsions:
REMARK  status: ('A' for Active; 'I' for Inactive)
REMARK    1  A    between atoms: C_2  and  N_3 
REMARK    2  A    between atoms: C_2  and  C_23 
REMARK       I    between atoms: N_3  and  C_4 
REMARK       I    between atoms: C_4  and  N_5 
REMARK    3  A    between atoms: N_5  and  C_6 
REMARK    4  A    between atoms: C_6  and  C_7 
REMARK    5  A    between atoms: C_7  and  N_8 
REMARK    6  A    between atoms: C_7  and  C_14 
REMARK    7  A    between atoms: C_15  and  O_16 
REMARK    8  A    between atoms: C_23  and  C_24 
REMARK    9  A    between atoms: C_27  and  O_28 
ROOT
HETATM    1  N   UNL     1      41.825 -14.305   2.335  1.00  0.00    -0.339 N 
HETATM    2  C   UNL     1      42.320 -13.064   2.523  1.00  0.00     0.316 C 
HETATM    3  N   UNL     1      43.136 -12.894   3.597  1.00  0.00    -0.341 N 
HETATM    4  O   UNL     1      42.110 -12.159   1.719  1.00  0.00    -0.248 OA
HETATM    5  H   UNL     1      41.191 -14.370   1.547  1.00  0.00     0.164 HD
HETATM    6  H   UNL     1      42.886 -13.475   4.388  1.00  0.00     0.164 HD
ENDROOT
BRANCH   3   7
HETATM    7  C   UNL     1      43.637 -11.567   3.930  1.00  0.00     0.162 C 
BRANCH   7   8
HETATM    8  C   UNL     1      43.186 -10.960   5.304  1.00  0.00     0.241 C 
BRANCH   8   9
HETATM    9  N   UNL     1      43.967 -11.554   6.486  1.00  0.00    -0.061 N 
HETATM   10  H   UNL     1      43.618 -12.530   6.569  1.00  0.00     0.280 HD
HETATM   11  C   UNL     1      43.767 -10.958   7.857  1.00  0.00     0.236 C 
HETATM   12  C   UNL     1      44.940 -10.021   8.027  1.00  0.00     0.029 C 
HETATM   13  C   UNL     1      46.085 -10.771   7.377  1.00  0.00     0.029 C 
HETATM   14  C   UNL     1      45.461 -11.611   6.271  1.00  0.00     0.236 C 
ENDBRANCH   8   9
BRANCH   8  15
HETATM   15  C   UNL     1      41.671 -10.902   5.472  1.00  0.00     0.007 A 
HETATM   16  C   UNL     1      40.947 -12.053   5.854  1.00  0.00     0.076 A 
HETATM   17  C   UNL     1      39.554 -11.997   5.976  1.00  0.00     0.037 A 
HETATM   18  C   UNL     1      38.871 -10.801   5.755  1.00  0.00     0.003 A 
HETATM   19  C   UNL     1      39.574  -9.654   5.409  1.00  0.00     0.001 A 
HETATM   20  C   UNL     1      40.961  -9.702   5.271  1.00  0.00     0.012 A 
BRANCH  16  21
HETATM   21  O   UNL     1      41.678 -13.193   6.063  1.00  0.00    -0.355 OA
HETATM   22  C   UNL     1      40.941 -14.366   6.409  1.00  0.00     0.210 C 
ENDBRANCH  16  21
ENDBRANCH   8  15
ENDBRANCH   7   8
ENDBRANCH   3   7
BRANCH   1  23
HETATM   23  C   UNL     1      42.189 -15.557   3.009  1.00  0.00     0.086 C 
HETATM   24  C   UNL     1      40.925 -16.322   3.390  1.00  0.00     0.032 C 
BRANCH  23  25
HETATM   25  C   UNL     1      43.107 -16.419   2.118  1.00  0.00     0.063 C 
BRANCH  25  26
HETATM   26  C   UNL     1      43.437 -17.751   2.758  1.00  0.00    -0.056 A 
HETATM   27  C   UNL     1      43.175 -18.952   2.082  1.00  0.00     0.010 A 
HETATM   28  C   UNL     1      43.455 -20.181   2.686  1.00  0.00     0.037 A 
HETATM   29  C   UNL     1      43.989 -20.206   3.969  1.00  0.00     0.065 A 
HETATM   30  C   UNL     1      44.254 -19.028   4.655  1.00  0.00     0.037 A 
HETATM   31  C   UNL     1      43.985 -17.801   4.049  1.00  0.00     0.010 A 
BRANCH  29  32
HETATM   32  O   UNL     1      44.262 -21.382   4.599  1.00  0.00    -0.361 OA
HETATM   33  H   UNL     1      45.191 -21.615   4.432  1.00  0.00     0.217 HD
ENDBRANCH  29  32
ENDBRANCH  25  26
ENDBRANCH  23  25
ENDBRANCH   1  23
TORSDOF 9
ENDMDL
MODEL 2
REMARK VINA RESULT:      -7.8      3.698      5.732
REMARK  9 active torsions:
REMARK  status: ('A' for Active; 'I' for Inactive)
REMARK    1  A    between atoms: C_2  and  N_3 
REMARK    2  A    between atoms: C_2  and  C_23 
REMARK       I    between atoms: N_3  and  C_4 
REMARK       I    between atoms: C_4  and  N_5 
REMARK    3  A    between atoms: N_5  and  C_6 
REMARK    4  A    between atoms: C_6  and  C_7 
REMARK    5  A    between atoms: C_7  and  N_8 
REMARK    6  A    between atoms: C_7  and  C_14 
REMARK    7  A    between atoms: C_15  and  O_16 
REMARK    8  A    between atoms: C_23  and  C_24 
REMARK    9  A    between atoms: C_27  and  O_28 
ROOT
HETATM    1  N   UNL     1      40.988 -16.260   3.363  1.00  0.00    -0.339 N 
HETATM    2  C   UNL     1      40.226 -15.556   2.502  1.00  0.00     0.316 C 
HETATM    3  N   UNL     1      40.140 -14.217   2.723  1.00  0.00    -0.341 N 
HETATM    4  O   UNL     1      39.705 -16.085   1.522  1.00  0.00    -0.248 OA
HETATM    5  H   UNL     1      40.986 -17.258   3.180  1.00  0.00     0.164 HD
HETATM    6  H   UNL     1      40.174 -13.969   3.705  1.00  0.00     0.164 HD
ENDROOT
BRANCH   3   7
HETATM    7  C   UNL     1      39.264 -13.396   1.900  1.00  0.00     0.162 C 
BRANCH   7   8
HETATM    8  C   UNL     1      39.905 -12.704   0.647  1.00  0.00     0.241 C 
BRANCH   8   9
HETATM    9  N   UNL     1      40.059 -11.188   0.837  1.00  0.00    -0.061 N 
HETATM   10  H   UNL     1      39.502 -10.768   0.065  1.00  0.00     0.280 HD
HETATM   11  C   UNL     1      41.431 -10.577   0.694  1.00  0.00     0.236 C 
HETATM   12  C   UNL     1      41.920 -10.434   2.117  1.00  0.00     0.029 C 
HETATM   13  C   UNL     1      40.675 -10.026   2.877  1.00  0.00     0.029 C 
HETATM   14  C   UNL     1      39.506 -10.670   2.143  1.00  0.00     0.236 C 
ENDBRANCH   8   9
BRANCH   8  15
HETATM   15  C   UNL     1      39.285 -13.149  -0.673  1.00  0.00     0.007 A 
HETATM   16  C   UNL     1      38.095 -12.553  -1.144  1.00  0.00     0.076 A 
HETATM   17  C   UNL     1      37.518 -12.989  -2.342  1.00  0.00     0.037 A 
HETATM   18  C   UNL     1      38.126 -13.990  -3.098  1.00  0.00     0.003 A 
HETATM   19  C   UNL     1      39.314 -14.564  -2.663  1.00  0.00     0.001 A 
HETATM   20  C   UNL     1      39.890 -14.146  -1.463  1.00  0.00     0.012 A 
BRANCH  16  21
HETATM   21  O   UNL     1      37.552 -11.570  -0.358  1.00  0.00    -0.355 OA
HETATM   22  C   UNL     1      37.048 -10.419  -1.037  1.00  0.00     0.210 C 
ENDBRANCH  16  21
ENDBRANCH   8  15
ENDBRANCH   7   8
ENDBRANCH   3   7
BRANCH   1  23
HETATM   23  C   UNL     1      41.904 -15.770   4.400  1.00  0.00     0.086 C 
HETATM   24  C   UNL     1      41.520 -16.369   5.750  1.00  0.00     0.032 C 
BRANCH  23  25
HETATM   25  C   UNL     1      43.369 -16.102   4.048  1.00  0.00     0.063 C 
BRANCH  25  26
HETATM   26  C   UNL     1      43.585 -17.587   3.841  1.00  0.00    -0.056 A 
HETATM   27  C   UNL     1      43.293 -18.185   2.607  1.00  0.00     0.010 A 
HETATM   28  C   UNL     1      43.467 -19.560   2.427  1.00  0.00     0.037 A 
HETATM   29  C   UNL     1      43.924 -20.335   3.486  1.00  0.00     0.065 A 
HETATM   30  C   UNL     1      44.217 -19.762   4.716  1.00  0.00     0.037 A 
HETATM   31  C   UNL     1      44.054 -18.388   4.894  1.00  0.00     0.010 A 
BRANCH  29  32
HETATM   32  O   UNL     1      44.092 -21.681   3.357  1.00  0.00    -0.361 OA
HETATM   33  H   UNL     1      44.174 -21.894   2.412  1.00  0.00     0.217 HD
ENDBRANCH  29  32
ENDBRANCH  25  26
ENDBRANCH  23  25
ENDBRANCH   1  23
TORSDOF 9
ENDMDL
MODEL 3
REMARK VINA RESULT:      -7.8      2.342      5.045
REMARK  9 active torsions:
REMARK  status: ('A' for Active; 'I' for Inactive)
REMARK    1  A    between atoms: C_2  and  N_3 
REMARK    2  A    between atoms: C_2  and  C_23 
REMARK       I    between atoms: N_3  and  C_4 
REMARK       I    between atoms: C_4  and  N_5 
REMARK    3  A    between atoms: N_5  and  C_6 
REMARK    4  A    between atoms: C_6  and  C_7 
REMARK    5  A    between atoms: C_7  and  N_8 
REMARK    6  A    between atoms: C_7  and  C_14 
REMARK    7  A    between atoms: C_15  and  O_16 
REMARK    8  A    between atoms: C_23  and  C_24 
REMARK    9  A    between atoms: C_27  and  O_28 
ROOT
HETATM    1  N   UNL     1      42.024 -16.403   5.872  1.00  0.00    -0.339 N 
HETATM    2  C   UNL     1      41.032 -16.053   5.028  1.00  0.00     0.316 C 
HETATM    3  N   UNL     1      41.406 -15.441   3.873  1.00  0.00    -0.341 N 
HETATM    4  O   UNL     1      39.860 -16.346   5.254  1.00  0.00    -0.248 OA
HETATM    5  H   UNL     1      41.690 -16.818   6.735  1.00  0.00     0.164 HD
HETATM    6  H   UNL     1      42.227 -14.856   3.975  1.00  0.00     0.164 HD
ENDROOT
BRANCH   3   7
HETATM    7  C   UNL     1      40.396 -14.943   2.949  1.00  0.00     0.162 C 
BRANCH   7   8
HETATM    8  C   UNL     1      40.645 -13.530   2.315  1.00  0.00     0.241 C 
BRANCH   8   9
HETATM    9  N   UNL     1      40.961 -13.616   0.814  1.00  0.00    -0.061 N 
HETATM   10  H   UNL     1      41.998 -13.666   0.765  1.00  0.00     0.280 HD
HETATM   11  C   UNL     1      40.593 -12.449  -0.069  1.00  0.00     0.236 C 
HETATM   12  C   UNL     1      39.281 -12.860  -0.695  1.00  0.00     0.029 C 
HETATM   13  C   UNL     1      39.464 -14.342  -0.953  1.00  0.00     0.029 C 
HETATM   14  C   UNL     1      40.403 -14.844   0.135  1.00  0.00     0.236 C 
ENDBRANCH   8   9
BRANCH   8  15
HETATM   15  C   UNL     1      41.580 -12.653   3.141  1.00  0.00     0.007 A 
HETATM   16  C   UNL     1      41.086 -11.908   4.234  1.00  0.00     0.076 A 
HETATM   17  C   UNL     1      41.946 -11.083   4.968  1.00  0.00     0.037 A 
HETATM   18  C   UNL     1      43.301 -11.012   4.649  1.00  0.00     0.003 A 
HETATM   19  C   UNL     1      43.808 -11.764   3.596  1.00  0.00     0.001 A 
HETATM   20  C   UNL     1      42.956 -12.578   2.850  1.00  0.00     0.012 A 
BRANCH  16  21
HETATM   21  O   UNL     1      39.746 -12.028   4.500  1.00  0.00    -0.355 OA
HETATM   22  C   UNL     1      39.397 -12.622   5.750  1.00  0.00     0.210 C 
ENDBRANCH  16  21
ENDBRANCH   8  15
ENDBRANCH   7   8
ENDBRANCH   3   7
BRANCH   1  23
HETATM   23  C   UNL     1      43.474 -16.398   5.646  1.00  0.00     0.086 C 
HETATM   24  C   UNL     1      44.137 -15.396   6.585  1.00  0.00     0.032 C 
BRANCH  23  25
HETATM   25  C   UNL     1      44.070 -17.808   5.836  1.00  0.00     0.063 C 
BRANCH  25  26
HETATM   26  C   UNL     1      43.930 -18.660   4.592  1.00  0.00    -0.056 A 
HETATM   27  C   UNL     1      43.655 -18.069   3.350  1.00  0.00     0.010 A 
HETATM   28  C   UNL     1      43.499 -18.860   2.209  1.00  0.00     0.037 A 
HETATM   29  C   UNL     1      43.610 -20.241   2.314  1.00  0.00     0.065 A 
HETATM   30  C   UNL     1      43.879 -20.846   3.535  1.00  0.00     0.037 A 
HETATM   31  C   UNL     1      44.046 -20.057   4.673  1.00  0.00     0.010 A 
BRANCH  29  32
HETATM   32  O   UNL     1      43.449 -21.049   1.229  1.00  0.00    -0.361 OA
HETATM   33  H   UNL     1      44.157 -20.855   0.590  1.00  0.00     0.217 HD
ENDBRANCH  29  32
ENDBRANCH  25  26
ENDBRANCH  23  25
ENDBRANCH   1  23
TORSDOF 9
ENDMDL
MODEL 4
REMARK VINA RESULT:      -7.8      1.944      7.698
REMARK  9 active torsions:
REMARK  status: ('A' for Active; 'I' for Inactive)
REMARK    1  A    between atoms: C_2  and  N_3 
REMARK    2  A    between atoms: C_2  and  C_23 
REMARK       I    between atoms: N_3  and  C_4 
REMARK       I    between atoms: C_4  and  N_5 
REMARK    3  A    between atoms: N_5  and  C_6 
REMARK    4  A    between atoms: C_6  and  C_7 
REMARK    5  A    between atoms: C_7  and  N_8 
REMARK    6  A    between atoms: C_7  and  C_14 
REMARK    7  A    between atoms: C_15  and  O_16 
REMARK    8  A    between atoms: C_23  and  C_24 
REMARK    9  A    between atoms: C_27  and  O_28 
ROOT
HETATM    1  N   UNL     1      40.655 -13.278   6.359  1.00  0.00    -0.339 N 
HETATM    2  C   UNL     1      40.888 -14.549   5.974  1.00  0.00     0.316 C 
HETATM    3  N   UNL     1      41.301 -14.727   4.690  1.00  0.00    -0.341 N 
HETATM    4  O   UNL     1      40.811 -15.487   6.765  1.00  0.00    -0.248 OA
HETATM    5  H   UNL     1      40.310 -13.202   7.310  1.00  0.00     0.164 HD
HETATM    6  H   UNL     1      40.905 -14.056   4.044  1.00  0.00     0.164 HD
ENDROOT
BRANCH   3   7
HETATM    7  C   UNL     1      41.483 -16.072   4.162  1.00  0.00     0.162 C 
BRANCH   7   8
HETATM    8  C   UNL     1      42.812 -16.354   3.377  1.00  0.00     0.241 C 
BRANCH   8   9
HETATM    9  N   UNL     1      42.853 -15.624   2.026  1.00  0.00    -0.061 N 
HETATM   10  H   UNL     1      43.407 -16.248   1.406  1.00  0.00     0.280 HD
HETATM   11  C   UNL     1      43.553 -14.289   1.948  1.00  0.00     0.236 C 
HETATM   12  C   UNL     1      42.432 -13.279   2.044  1.00  0.00     0.029 C 
HETATM   13  C   UNL     1      41.316 -13.917   1.242  1.00  0.00     0.029 C 
HETATM   14  C   UNL     1      41.498 -15.421   1.392  1.00  0.00     0.236 C 
ENDBRANCH   8   9
BRANCH   8  15
HETATM   15  C   UNL     1      43.194 -17.830   3.346  1.00  0.00     0.007 A 
HETATM   16  C   UNL     1      43.842 -18.428   4.449  1.00  0.00     0.076 A 
HETATM   17  C   UNL     1      44.215 -19.776   4.398  1.00  0.00     0.037 A 
HETATM   18  C   UNL     1      43.923 -20.549   3.275  1.00  0.00     0.003 A 
HETATM   19  C   UNL     1      43.258 -19.983   2.195  1.00  0.00     0.001 A 
HETATM   20  C   UNL     1      42.894 -18.637   2.230  1.00  0.00     0.012 A 
BRANCH  16  21
HETATM   21  O   UNL     1      44.093 -17.615   5.523  1.00  0.00    -0.355 OA
HETATM   22  C   UNL     1      43.418 -17.941   6.739  1.00  0.00     0.210 C 
ENDBRANCH  16  21
ENDBRANCH   8  15
ENDBRANCH   7   8
ENDBRANCH   3   7
BRANCH   1  23
HETATM   23  C   UNL     1      40.967 -12.027   5.657  1.00  0.00     0.086 C 
HETATM   24  C   UNL     1      39.746 -11.563   4.868  1.00  0.00     0.032 C 
BRANCH  23  25
HETATM   25  C   UNL     1      41.430 -10.937   6.645  1.00  0.00     0.063 C 
BRANCH  25  26
HETATM   26  C   UNL     1      42.936 -10.910   6.801  1.00  0.00    -0.056 A 
HETATM   27  C   UNL     1      43.527 -10.288   7.910  1.00  0.00     0.010 A 
HETATM   28  C   UNL     1      44.918 -10.241   8.038  1.00  0.00     0.037 A 
HETATM   29  C   UNL     1      45.715 -10.809   7.051  1.00  0.00     0.065 A 
HETATM   30  C   UNL     1      45.148 -11.427   5.944  1.00  0.00     0.037 A 
HETATM   31  C   UNL     1      43.760 -11.485   5.821  1.00  0.00     0.010 A 
BRANCH  29  32
HETATM   32  O   UNL     1      47.074 -10.770   7.129  1.00  0.00    -0.361 OA
HETATM   33  H   UNL     1      47.442 -11.203   6.340  1.00  0.00     0.217 HD
ENDBRANCH  29  32
ENDBRANCH  25  26
ENDBRANCH  23  25
ENDBRANCH   1  23
TORSDOF 9
ENDMDL
MODEL 5
REMARK VINA RESULT:      -7.7      2.854      5.367
REMARK  9 active torsions:
REMARK  status: ('A' for Active; 'I' for Inactive)
REMARK    1  A    between atoms: C_2  and  N_3 
REMARK    2  A    between atoms: C_2  and  C_23 
REMARK       I    between atoms: N_3  and  C_4 
REMARK       I    between atoms: C_4  and  N_5 
REMARK    3  A    between atoms: N_5  and  C_6 
REMARK    4  A    between atoms: C_6  and  C_7 
REMARK    5  A    between atoms: C_7  and  N_8 
REMARK    6  A    between atoms: C_7  and  C_14 
REMARK    7  A    between atoms: C_15  and  O_16 
REMARK    8  A    between atoms: C_23  and  C_24 
REMARK    9  A    between atoms: C_27  and  O_28 
ROOT
HETATM    1  N   UNL     1      42.038 -16.283   5.483  1.00  0.00    -0.339 N 
HETATM    2  C   UNL     1      41.089 -15.993   4.570  1.00  0.00     0.316 C 
HETATM    3  N   UNL     1      41.484 -15.259   3.496  1.00  0.00    -0.341 N 
HETATM    4  O   UNL     1      39.948 -16.441   4.663  1.00  0.00    -0.248 OA
HETATM    5  H   UNL     1      41.684 -16.796   6.283  1.00  0.00     0.164 HD
HETATM    6  H   UNL     1      42.212 -14.589   3.714  1.00  0.00     0.164 HD
ENDROOT
BRANCH   3   7
HETATM    7  C   UNL     1      40.505 -14.820   2.511  1.00  0.00     0.162 C 
BRANCH   7   8
HETATM    8  C   UNL     1      40.817 -13.489   1.742  1.00  0.00     0.241 C 
BRANCH   8   9
HETATM    9  N   UNL     1      40.327 -12.249   2.507  1.00  0.00    -0.061 N 
HETATM   10  H   UNL     1      40.070 -11.567   1.766  1.00  0.00     0.280 HD
HETATM   11  C   UNL     1      41.306 -11.509   3.385  1.00  0.00     0.236 C 
HETATM   12  C   UNL     1      41.019 -12.027   4.775  1.00  0.00     0.029 C 
HETATM   13  C   UNL     1      39.511 -12.171   4.791  1.00  0.00     0.029 C 
HETATM   14  C   UNL     1      39.105 -12.493   3.360  1.00  0.00     0.236 C 
ENDBRANCH   8   9
BRANCH   8  15
HETATM   15  C   UNL     1      40.450 -13.544   0.264  1.00  0.00     0.007 A 
HETATM   16  C   UNL     1      40.777 -12.474  -0.598  1.00  0.00     0.076 A 
HETATM   17  C   UNL     1      40.410 -12.523  -1.948  1.00  0.00     0.037 A 
HETATM   18  C   UNL     1      39.748 -13.637  -2.462  1.00  0.00     0.003 A 
HETATM   19  C   UNL     1      39.448 -14.710  -1.633  1.00  0.00     0.001 A 
HETATM   20  C   UNL     1      39.797 -14.666  -0.284  1.00  0.00     0.012 A 
BRANCH  16  21
HETATM   21  O   UNL     1      41.435 -11.413  -0.032  1.00  0.00    -0.355 OA
HETATM   22  C   UNL     1      41.038 -10.113  -0.468  1.00  0.00     0.210 C 
ENDBRANCH  16  21
ENDBRANCH   8  15
ENDBRANCH   7   8
ENDBRANCH   3   7
BRANCH   1  23
HETATM   23  C   UNL     1      43.491 -16.088   5.400  1.00  0.00     0.086 C 
HETATM   24  C   UNL     1      43.929 -15.050   6.428  1.00  0.00     0.032 C 
BRANCH  23  25
HETATM   25  C   UNL     1      44.242 -17.419   5.607  1.00  0.00     0.063 C 
BRANCH  25  26
HETATM   26  C   UNL     1      43.992 -18.397   4.478  1.00  0.00    -0.056 A 
HETATM   27  C   UNL     1      44.043 -19.780   4.708  1.00  0.00     0.010 A 
HETATM   28  C   UNL     1      43.839 -20.681   3.659  1.00  0.00     0.037 A 
HETATM   29  C   UNL     1      43.593 -20.196   2.380  1.00  0.00     0.065 A 
HETATM   30  C   UNL     1      43.540 -18.830   2.132  1.00  0.00     0.037 A 
HETATM   31  C   UNL     1      43.733 -17.930   3.180  1.00  0.00     0.010 A 
BRANCH  29  32
HETATM   32  O   UNL     1      43.405 -21.039   1.327  1.00  0.00    -0.361 OA
HETATM   33  H   UNL     1      44.242 -21.500   1.146  1.00  0.00     0.217 HD
ENDBRANCH  29  32
ENDBRANCH  25  26
ENDBRANCH  23  25
ENDBRANCH   1  23
TORSDOF 9
ENDMDL
MODEL 6
REMARK VINA RESULT:      -7.4      1.142      2.021
REMARK  9 active torsions:
REMARK  status: ('A' for Active; 'I' for Inactive)
REMARK    1  A    between atoms: C_2  and  N_3 
REMARK    2  A    between atoms: C_2  and  C_23 
REMARK       I    between atoms: N_3  and  C_4 
REMARK       I    between atoms: C_4  and  N_5 
REMARK    3  A    between atoms: N_5  and  C_6 
REMARK    4  A    between atoms: C_6  and  C_7 
REMARK    5  A    between atoms: C_7  and  N_8 
REMARK    6  A    between atoms: C_7  and  C_14 
REMARK    7  A    between atoms: C_15  and  O_16 
REMARK    8  A    between atoms: C_23  and  C_24 
REMARK    9  A    between atoms: C_27  and  O_28 
ROOT
HETATM    1  N   UNL     1      41.836 -14.382   2.646  1.00  0.00    -0.339 N 
HETATM    2  C   UNL     1      42.236 -13.101   2.784  1.00  0.00     0.316 C 
HETATM    3  N   UNL     1      43.125 -12.848   3.781  1.00  0.00    -0.341 N 
HETATM    4  O   UNL     1      41.880 -12.226   1.997  1.00  0.00    -0.248 OA
HETATM    5  H   UNL     1      41.143 -14.511   1.916  1.00  0.00     0.164 HD
HETATM    6  H   UNL     1      42.996 -13.440   4.594  1.00  0.00     0.164 HD
ENDROOT
BRANCH   3   7
HETATM    7  C   UNL     1      43.537 -11.480   4.063  1.00  0.00     0.162 C 
BRANCH   7   8
HETATM    8  C   UNL     1      43.292 -10.949   5.518  1.00  0.00     0.241 C 
BRANCH   8   9
HETATM    9  N   UNL     1      44.221 -11.617   6.543  1.00  0.00    -0.061 N 
HETATM   10  H   UNL     1      44.048 -12.636   6.430  1.00  0.00     0.280 HD
HETATM   11  C   UNL     1      43.988 -11.351   8.010  1.00  0.00     0.236 C 
HETATM   12  C   UNL     1      44.991 -10.273   8.352  1.00  0.00     0.029 C 
HETATM   13  C   UNL     1      46.214 -10.663   7.548  1.00  0.00     0.029 C 
HETATM   14  C   UNL     1      45.690 -11.365   6.302  1.00  0.00     0.236 C 
ENDBRANCH   8   9
BRANCH   8  15
HETATM   15  C   UNL     1      41.817 -10.886   5.900  1.00  0.00     0.007 A 
HETATM   16  C   UNL     1      41.211  -9.653   6.224  1.00  0.00     0.076 A 
HETATM   17  C   UNL     1      39.864  -9.610   6.601  1.00  0.00     0.037 A 
HETATM   18  C   UNL     1      39.100 -10.776   6.631  1.00  0.00     0.003 A 
HETATM   19  C   UNL     1      39.675 -11.992   6.283  1.00  0.00     0.001 A 
HETATM   20  C   UNL     1      41.020 -12.047   5.919  1.00  0.00     0.012 A 
BRANCH  16  21
HETATM   21  O   UNL     1      42.015  -8.544   6.169  1.00  0.00    -0.355 OA
HETATM   22  C   UNL     1      42.172  -7.811   7.384  1.00  0.00     0.210 C 
ENDBRANCH  16  21
ENDBRANCH   8  15
ENDBRANCH   7   8
ENDBRANCH   3   7
BRANCH   1  23
HETATM   23  C   UNL     1      42.364 -15.590   3.290  1.00  0.00     0.086 C 
HETATM   24  C   UNL     1      41.209 -16.459   3.779  1.00  0.00     0.032 C 
BRANCH  23  25
HETATM   25  C   UNL     1      43.277 -16.378   2.328  1.00  0.00     0.063 C 
BRANCH  25  26
HETATM   26  C   UNL     1      43.475 -17.811   2.773  1.00  0.00    -0.056 A 
HETATM   27  C   UNL     1      44.129 -18.099   3.981  1.00  0.00     0.010 A 
HETATM   28  C   UNL     1      44.335 -19.423   4.376  1.00  0.00     0.037 A 
HETATM   29  C   UNL     1      43.894 -20.457   3.560  1.00  0.00     0.065 A 
HETATM   30  C   UNL     1      43.247 -20.193   2.360  1.00  0.00     0.037 A 
HETATM   31  C   UNL     1      43.031 -18.872   1.968  1.00  0.00     0.010 A 
BRANCH  29  32
HETATM   32  O   UNL     1      44.089 -21.762   3.901  1.00  0.00    -0.361 OA
HETATM   33  H   UNL     1      44.527 -21.793   4.768  1.00  0.00     0.217 HD
ENDBRANCH  29  32
ENDBRANCH  25  26
ENDBRANCH  23  25
ENDBRANCH   1  23
TORSDOF 9
ENDMDL
MODEL 7
REMARK VINA RESULT:      -7.4      2.517      5.024
REMARK  9 active torsions:
REMARK  status: ('A' for Active; 'I' for Inactive)
REMARK    1  A    between atoms: C_2  and  N_3 
REMARK    2  A    between atoms: C_2  and  C_23 
REMARK       I    between atoms: N_3  and  C_4 
REMARK       I    between atoms: C_4  and  N_5 
REMARK    3  A    between atoms: N_5  and  C_6 
REMARK    4  A    between atoms: C_6  and  C_7 
REMARK    5  A    between atoms: C_7  and  N_8 
REMARK    6  A    between atoms: C_7  and  C_14 
REMARK    7  A    between atoms: C_15  and  O_16 
REMARK    8  A    between atoms: C_23  and  C_24 
REMARK    9  A    between atoms: C_27  and  O_28 
ROOT
HETATM    1  N   UNL     1      41.189 -16.454   4.027  1.00  0.00    -0.339 N 
HETATM    2  C   UNL     1      40.461 -15.783   3.111  1.00  0.00     0.316 C 
HETATM    3  N   UNL     1      40.205 -14.475   3.380  1.00  0.00    -0.341 N 
HETATM    4  O   UNL     1      40.119 -16.304   2.052  1.00  0.00    -0.248 OA
HETATM    5  H   UNL     1      41.317 -17.434   3.800  1.00  0.00     0.164 HD
HETATM    6  H   UNL     1      40.096 -14.282   4.369  1.00  0.00     0.164 HD
ENDROOT
BRANCH   3   7
HETATM    7  C   UNL     1      39.347 -13.701   2.494  1.00  0.00     0.162 C 
BRANCH   7   8
HETATM    8  C   UNL     1      39.904 -12.326   1.986  1.00  0.00     0.241 C 
BRANCH   8   9
HETATM    9  N   UNL     1      40.141 -12.321   0.468  1.00  0.00    -0.061 N 
HETATM   10  H   UNL     1      41.172 -12.239   0.362  1.00  0.00     0.280 HD
HETATM   11  C   UNL     1      39.582 -11.181  -0.347  1.00  0.00     0.236 C 
HETATM   12  C   UNL     1      38.296 -11.732  -0.919  1.00  0.00     0.029 C 
HETATM   13  C   UNL     1      38.645 -13.170  -1.246  1.00  0.00     0.029 C 
HETATM   14  C   UNL     1      39.700 -13.586  -0.230  1.00  0.00     0.236 C 
ENDBRANCH   8   9
BRANCH   8  15
HETATM   15  C   UNL     1      41.046 -11.784   2.838  1.00  0.00     0.007 A 
HETATM   16  C   UNL     1      42.361 -12.269   2.668  1.00  0.00     0.076 A 
HETATM   17  C   UNL     1      43.397 -11.786   3.475  1.00  0.00     0.037 A 
HETATM   18  C   UNL     1      43.150 -10.800   4.430  1.00  0.00     0.003 A 
HETATM   19  C   UNL     1      41.868 -10.291   4.586  1.00  0.00     0.001 A 
HETATM   20  C   UNL     1      40.825 -10.775   3.796  1.00  0.00     0.012 A 
BRANCH  16  21
HETATM   21  O   UNL     1      42.538 -13.232   1.708  1.00  0.00    -0.355 OA
HETATM   22  C   UNL     1      43.480 -14.262   2.007  1.00  0.00     0.210 C 
ENDBRANCH  16  21
ENDBRANCH   8  15
ENDBRANCH   7   8
ENDBRANCH   3   7
BRANCH   1  23
HETATM   23  C   UNL     1      41.919 -15.934   5.190  1.00  0.00     0.086 C 
HETATM   24  C   UNL     1      41.292 -16.471   6.472  1.00  0.00     0.032 C 
BRANCH  23  25
HETATM   25  C   UNL     1      43.416 -16.299   5.114  1.00  0.00     0.063 C 
BRANCH  25  26
HETATM   26  C   UNL     1      43.633 -17.722   4.644  1.00  0.00    -0.056 A 
HETATM   27  C   UNL     1      43.653 -18.026   3.275  1.00  0.00     0.010 A 
HETATM   28  C   UNL     1      43.827 -19.345   2.845  1.00  0.00     0.037 A 
HETATM   29  C   UNL     1      43.971 -20.357   3.786  1.00  0.00     0.065 A 
HETATM   30  C   UNL     1      43.952 -20.077   5.146  1.00  0.00     0.037 A 
HETATM   31  C   UNL     1      43.789 -18.760   5.577  1.00  0.00     0.010 A 
BRANCH  29  32
HETATM   32  O   UNL     1      44.126 -21.657   3.409  1.00  0.00    -0.361 OA
HETATM   33  H   UNL     1      44.842 -22.050   3.938  1.00  0.00     0.217 HD
ENDBRANCH  29  32
ENDBRANCH  25  26
ENDBRANCH  23  25
ENDBRANCH   1  23
TORSDOF 9
ENDMDL
MODEL 8
REMARK VINA RESULT:      -7.2      2.245      7.575
REMARK  9 active torsions:
REMARK  status: ('A' for Active; 'I' for Inactive)
REMARK    1  A    between atoms: C_2  and  N_3 
REMARK    2  A    between atoms: C_2  and  C_23 
REMARK       I    between atoms: N_3  and  C_4 
REMARK       I    between atoms: C_4  and  N_5 
REMARK    3  A    between atoms: N_5  and  C_6 
REMARK    4  A    between atoms: C_6  and  C_7 
REMARK    5  A    between atoms: C_7  and  N_8 
REMARK    6  A    between atoms: C_7  and  C_14 
REMARK    7  A    between atoms: C_15  and  O_16 
REMARK    8  A    between atoms: C_23  and  C_24 
REMARK    9  A    between atoms: C_27  and  O_28 
ROOT
HETATM    1  N   UNL     1      40.369 -11.358   6.737  1.00  0.00    -0.339 N 
HETATM    2  C   UNL     1      40.204 -12.489   6.021  1.00  0.00     0.316 C 
HETATM    3  N   UNL     1      40.813 -12.531   4.805  1.00  0.00    -0.341 N 
HETATM    4  O   UNL     1      39.605 -13.460   6.478  1.00  0.00    -0.248 OA
HETATM    5  H   UNL     1      39.863 -11.361   7.616  1.00  0.00     0.164 HD
HETATM    6  H   UNL     1      40.854 -11.629   4.345  1.00  0.00     0.164 HD
ENDROOT
BRANCH   3   7
HETATM    7  C   UNL     1      40.608 -13.673   3.926  1.00  0.00     0.162 C 
BRANCH   7   8
HETATM    8  C   UNL     1      41.759 -14.006   2.913  1.00  0.00     0.241 C 
BRANCH   8   9
HETATM    9  N   UNL     1      41.364 -13.689   1.462  1.00  0.00    -0.061 N 
HETATM   10  H   UNL     1      41.948 -14.326   0.885  1.00  0.00     0.280 HD
HETATM   11  C   UNL     1      41.651 -12.311   0.919  1.00  0.00     0.236 C 
HETATM   12  C   UNL     1      40.334 -11.581   1.050  1.00  0.00     0.029 C 
HETATM   13  C   UNL     1      39.309 -12.642   0.704  1.00  0.00     0.029 C 
HETATM   14  C   UNL     1      39.915 -13.969   1.142  1.00  0.00     0.236 C 
ENDBRANCH   8   9
BRANCH   8  15
HETATM   15  C   UNL     1      42.393 -15.373   3.145  1.00  0.00     0.007 A 
HETATM   16  C   UNL     1      43.139 -15.629   4.316  1.00  0.00     0.076 A 
HETATM   17  C   UNL     1      43.741 -16.878   4.505  1.00  0.00     0.037 A 
HETATM   18  C   UNL     1      43.585 -17.890   3.559  1.00  0.00     0.003 A 
HETATM   19  C   UNL     1      42.827 -17.663   2.417  1.00  0.00     0.001 A 
HETATM   20  C   UNL     1      42.234 -16.417   2.212  1.00  0.00     0.012 A 
BRANCH  16  21
HETATM   21  O   UNL     1      43.248 -14.595   5.209  1.00  0.00    -0.355 OA
HETATM   22  C   UNL     1      43.183 -14.941   6.593  1.00  0.00     0.210 C 
ENDBRANCH  16  21
ENDBRANCH   8  15
ENDBRANCH   7   8
ENDBRANCH   3   7
BRANCH   1  23
HETATM   23  C   UNL     1      41.273 -10.229   6.487  1.00  0.00     0.086 C 
HETATM   24  C   UNL     1      40.485  -9.059   5.905  1.00  0.00     0.032 C 
BRANCH  23  25
HETATM   25  C   UNL     1      42.008  -9.810   7.777  1.00  0.00     0.063 C 
BRANCH  25  26
HETATM   26  C   UNL     1      43.500 -10.051   7.689  1.00  0.00    -0.056 A 
HETATM   27  C   UNL     1      44.405  -9.129   8.236  1.00  0.00     0.010 A 
HETATM   28  C   UNL     1      45.782  -9.340   8.129  1.00  0.00     0.037 A 
HETATM   29  C   UNL     1      46.252 -10.467   7.466  1.00  0.00     0.065 A 
HETATM   30  C   UNL     1      45.372 -11.390   6.915  1.00  0.00     0.037 A 
HETATM   31  C   UNL     1      43.997 -11.187   7.031  1.00  0.00     0.010 A 
BRANCH  29  32
HETATM   32  O   UNL     1      47.586 -10.701   7.325  1.00  0.00    -0.361 OA
HETATM   33  H   UNL     1      47.722 -11.656   7.197  1.00  0.00     0.217 HD
ENDBRANCH  29  32
ENDBRANCH  25  26
ENDBRANCH  23  25
ENDBRANCH   1  23
TORSDOF 9
ENDMDL
MODEL 9
REMARK VINA RESULT:      -7.2      2.329      5.975
REMARK  9 active torsions:
REMARK  status: ('A' for Active; 'I' for Inactive)
REMARK    1  A    between atoms: C_2  and  N_3 
REMARK    2  A    between atoms: C_2  and  C_23 
REMARK       I    between atoms: N_3  and  C_4 
REMARK       I    between atoms: C_4  and  N_5 
REMARK    3  A    between atoms: N_5  and  C_6 
REMARK    4  A    between atoms: C_6  and  C_7 
REMARK    5  A    between atoms: C_7  and  N_8 
REMARK    6  A    between atoms: C_7  and  C_14 
REMARK    7  A    between atoms: C_15  and  O_16 
REMARK    8  A    between atoms: C_23  and  C_24 
REMARK    9  A    between atoms: C_27  and  O_28 
ROOT
HETATM    1  N   UNL     1      43.938 -11.220   4.503  1.00  0.00    -0.339 N 
HETATM    2  C   UNL     1      43.376 -11.655   3.357  1.00  0.00     0.316 C 
HETATM    3  N   UNL     1      43.405 -12.997   3.138  1.00  0.00    -0.341 N 
HETATM    4  O   UNL     1      42.796 -10.887   2.592  1.00  0.00    -0.248 OA
HETATM    5  H   UNL     1      43.927 -10.210   4.599  1.00  0.00     0.164 HD
HETATM    6  H   UNL     1      44.233 -13.447   3.511  1.00  0.00     0.164 HD
ENDROOT
BRANCH   3   7
HETATM    7  C   UNL     1      42.907 -13.543   1.884  1.00  0.00     0.162 C 
BRANCH   7   8
HETATM    8  C   UNL     1      41.500 -14.234   1.917  1.00  0.00     0.241 C 
BRANCH   8   9
HETATM    9  N   UNL     1      41.600 -15.761   1.781  1.00  0.00    -0.061 N 
HETATM   10  H   UNL     1      40.922 -16.005   1.032  1.00  0.00     0.280 HD
HETATM   11  C   UNL     1      41.195 -16.619   2.955  1.00  0.00     0.236 C 
HETATM   12  C   UNL     1      42.503 -16.960   3.631  1.00  0.00     0.029 C 
HETATM   13  C   UNL     1      43.454 -17.169   2.469  1.00  0.00     0.029 C 
HETATM   14  C   UNL     1      42.962 -16.255   1.355  1.00  0.00     0.236 C 
ENDBRANCH   8   9
BRANCH   8  15
HETATM   15  C   UNL     1      40.471 -13.554   1.020  1.00  0.00     0.007 A 
HETATM   16  C   UNL     1      39.625 -12.547   1.533  1.00  0.00     0.076 A 
HETATM   17  C   UNL     1      38.665 -11.950   0.709  1.00  0.00     0.037 A 
HETATM   18  C   UNL     1      38.553 -12.319  -0.631  1.00  0.00     0.003 A 
HETATM   19  C   UNL     1      39.400 -13.286  -1.158  1.00  0.00     0.001 A 
HETATM   20  C   UNL     1      40.351 -13.897  -0.341  1.00  0.00     0.012 A 
BRANCH  16  21
HETATM   21  O   UNL     1      39.791 -12.225   2.855  1.00  0.00    -0.355 OA
HETATM   22  C   UNL     1      39.294 -10.951   3.267  1.00  0.00     0.210 C 
ENDBRANCH  16  21
ENDBRANCH   8  15
ENDBRANCH   7   8
ENDBRANCH   3   7
BRANCH   1  23
HETATM   23  C   UNL     1      44.410 -11.998   5.654  1.00  0.00     0.086 C 
HETATM   24  C   UNL     1      45.716 -11.405   6.174  1.00  0.00     0.032 C 
BRANCH  23  25
HETATM   25  C   UNL     1      43.344 -12.044   6.768  1.00  0.00     0.063 C 
BRANCH  25  26
HETATM   26  C   UNL     1      42.374 -13.192   6.585  1.00  0.00    -0.056 A 
HETATM   27  C   UNL     1      41.110 -12.974   6.018  1.00  0.00     0.010 A 
HETATM   28  C   UNL     1      40.207 -14.031   5.875  1.00  0.00     0.037 A 
HETATM   29  C   UNL     1      40.567 -15.302   6.306  1.00  0.00     0.065 A 
HETATM   30  C   UNL     1      41.814 -15.537   6.871  1.00  0.00     0.037 A 
HETATM   31  C   UNL     1      42.720 -14.486   7.005  1.00  0.00     0.010 A 
BRANCH  29  32
HETATM   32  O   UNL     1      39.710 -16.355   6.199  1.00  0.00    -0.361 OA
HETATM   33  H   UNL     1      40.017 -16.933   5.479  1.00  0.00     0.217 HD
ENDBRANCH  29  32
ENDBRANCH  25  26
ENDBRANCH  23  25
ENDBRANCH   1  23
TORSDOF 9
ENDMDL
MODEL 10
REMARK VINA RESULT:      -7.1     16.325     18.359
REMARK  9 active torsions:
REMARK  status: ('A' for Active; 'I' for Inactive)
REMARK    1  A    between atoms: C_2  and  N_3 
REMARK    2  A    between atoms: C_2  and  C_23 
REMARK       I    between atoms: N_3  and  C_4 
REMARK       I    between atoms: C_4  and  N_5 
REMARK    3  A    between atoms: N_5  and  C_6 
REMARK    4  A    between atoms: C_6  and  C_7 
REMARK    5  A    between atoms: C_7  and  N_8 
REMARK    6  A    between atoms: C_7  and  C_14 
REMARK    7  A    between atoms: C_15  and  O_16 
REMARK    8  A    between atoms: C_23  and  C_24 
REMARK    9  A    between atoms: C_27  and  O_28 
ROOT
HETATM    1  N   UNL     1      44.458 -31.704   1.574  1.00  0.00    -0.339 N 
HETATM    2  C   UNL     1      45.683 -31.518   2.108  1.00  0.00     0.316 C 
HETATM    3  N   UNL     1      46.741 -31.675   1.267  1.00  0.00    -0.341 N 
HETATM    4  O   UNL     1      45.829 -31.146   3.270  1.00  0.00    -0.248 OA
HETATM    5  H   UNL     1      43.707 -31.616   2.249  1.00  0.00     0.164 HD
HETATM    6  H   UNL     1      46.588 -32.382   0.557  1.00  0.00     0.164 HD
ENDROOT
BRANCH   3   7
HETATM    7  C   UNL     1      48.100 -31.588   1.781  1.00  0.00     0.162 C 
BRANCH   7   8
HETATM    8  C   UNL     1      48.997 -30.426   1.228  1.00  0.00     0.241 C 
BRANCH   8   9
HETATM    9  N   UNL     1      49.683 -29.637   2.354  1.00  0.00    -0.061 N 
HETATM   10  H   UNL     1      49.663 -28.648   2.034  1.00  0.00     0.280 HD
HETATM   11  C   UNL     1      51.137 -29.913   2.648  1.00  0.00     0.236 C 
HETATM   12  C   UNL     1      51.101 -30.856   3.829  1.00  0.00     0.029 C 
HETATM   13  C   UNL     1      49.954 -30.327   4.665  1.00  0.00     0.029 C 
HETATM   14  C   UNL     1      48.968 -29.709   3.683  1.00  0.00     0.236 C 
ENDBRANCH   8   9
BRANCH   8  15
HETATM   15  C   UNL     1      48.309 -29.589   0.155  1.00  0.00     0.007 A 
HETATM   16  C   UNL     1      48.590 -29.803  -1.212  1.00  0.00     0.076 A 
HETATM   17  C   UNL     1      47.975 -29.010  -2.187  1.00  0.00     0.037 A 
HETATM   18  C   UNL     1      47.058 -28.024  -1.824  1.00  0.00     0.003 A 
HETATM   19  C   UNL     1      46.748 -27.824  -0.485  1.00  0.00     0.001 A 
HETATM   20  C   UNL     1      47.365 -28.600   0.496  1.00  0.00     0.012 A 
BRANCH  16  21
HETATM   21  O   UNL     1      49.494 -30.791  -1.502  1.00  0.00    -0.355 OA
HETATM   22  C   UNL     1      50.710 -30.377  -2.127  1.00  0.00     0.210 C 
ENDBRANCH  16  21
ENDBRANCH   8  15
ENDBRANCH   7   8
ENDBRANCH   3   7
BRANCH   1  23
HETATM   23  C   UNL     1      44.078 -31.862   0.165  1.00  0.00     0.086 C 
HETATM   24  C   UNL     1      42.796 -32.682   0.068  1.00  0.00     0.032 C 
BRANCH  23  25
HETATM   25  C   UNL     1      43.909 -30.491  -0.522  1.00  0.00     0.063 C 
BRANCH  25  26
HETATM   26  C   UNL     1      44.376 -30.512  -1.962  1.00  0.00    -0.056 A 
HETATM   27  C   UNL     1      43.894 -29.569  -2.882  1.00  0.00     0.010 A 
HETATM   28  C   UNL     1      44.307 -29.607  -4.216  1.00  0.00     0.037 A 
HETATM   29  C   UNL     1      45.193 -30.593  -4.630  1.00  0.00     0.065 A 
HETATM   30  C   UNL     1      45.680 -31.537  -3.735  1.00  0.00     0.037 A 
HETATM   31  C   UNL     1      45.278 -31.494  -2.400  1.00  0.00     0.010 A 
BRANCH  29  32
HETATM   32  O   UNL     1      45.607 -30.675  -5.925  1.00  0.00    -0.361 OA
HETATM   33  H   UNL     1      44.892 -31.068  -6.455  1.00  0.00     0.217 HD
ENDBRANCH  29  32
ENDBRANCH  25  26
ENDBRANCH  23  25
ENDBRANCH   1  23
TORSDOF 9
ENDMDL
