MODEL 1
REMARK VINA RESULT:      -8.9      0.000      0.000
REMARK  7 active torsions:
REMARK  status: ('A' for Active; 'I' for Inactive)
REMARK    1  A    between atoms: C_3  and  N_4 
REMARK       I    between atoms: N_4  and  C_5 
REMARK    2  A    between atoms: C_5  and  C_6 
REMARK    3  A    between atoms: C_7  and  C_8 
REMARK    4  A    between atoms: C_20  and  C_21 
REMARK    5  A    between atoms: C_21  and  C_22 
REMARK    6  A    between atoms: C_22  and  C_23 
REMARK    7  A    between atoms: C_23  and  O_24 
ROOT
HETATM    1  C   UNL     1      40.927 -12.146   3.097  1.00  0.00     0.062 A 
HETATM    2  C   UNL     1      42.409 -12.502   3.160  1.00  0.00     0.202 A 
HETATM    3  N   UNL     1      43.055 -11.960   4.361  1.00  0.00    -0.083 N 
HETATM    4  C   UNL     1      42.418 -11.183   5.286  1.00  0.00     0.726 A 
HETATM    5  N   UNL     1      41.114 -10.904   5.122  1.00  0.00    -0.192 N 
HETATM    6  N   UNL     1      44.378 -12.047   4.618  1.00  0.00    -0.140 NA
HETATM    7  C   UNL     1      44.451 -11.367   5.774  1.00  0.00     0.166 A 
HETATM    8  N   UNL     1      43.268 -10.818   6.210  1.00  0.00    -0.046 NA
HETATM    9  C   UNL     1      40.354 -11.372   4.057  1.00  0.00     0.037 A 
HETATM   10  C   UNL     1      38.907 -10.937   4.057  1.00  0.00     0.070 C 
HETATM   11  H   UNL     1      40.646 -10.333   5.821  1.00  0.00     0.184 HD
ENDROOT
BRANCH   1  12
HETATM   12  C   UNL     1      40.076 -12.756   2.026  1.00  0.00     0.256 C 
HETATM   13  N   UNL     1      40.205 -12.190   0.773  1.00  0.00    -0.323 N 
HETATM   14  H   UNL     1      41.013 -11.616   0.591  1.00  0.00     0.169 HD
HETATM   15  O   UNL     1      39.405 -13.749   2.291  1.00  0.00    -0.267 OA
BRANCH  13  16
HETATM   16  C   UNL     1      39.554 -12.667  -0.390  1.00  0.00     0.041 A 
HETATM   17  C   UNL     1      38.274 -12.270  -0.815  1.00  0.00    -0.035 A 
HETATM   18  C   UNL     1      37.465 -11.183  -0.162  1.00  0.00     0.050 C 
HETATM   19  C   UNL     1      37.718 -12.883  -1.954  1.00  0.00     0.009 A 
HETATM   20  C   UNL     1      38.434 -13.827  -2.690  1.00  0.00     0.001 A 
HETATM   21  C   UNL     1      39.726 -14.163  -2.306  1.00  0.00     0.002 A 
HETATM   22  C   UNL     1      40.287 -13.577  -1.171  1.00  0.00     0.030 A 
ENDBRANCH  13  16
ENDBRANCH   1  12
BRANCH   2  23
HETATM   23  C   UNL     1      42.698 -13.997   3.041  1.00  0.00    -0.026 A 
HETATM   24  C   UNL     1      42.488 -14.837   4.150  1.00  0.00     0.035 A 
HETATM   25  C   UNL     1      42.770 -16.207   4.078  1.00  0.00     0.056 A 
HETATM   26 CL   UNL     1      42.515 -17.151   5.503  1.00  0.00    -0.083 Cl
HETATM   27  C   UNL     1      43.253 -16.757   2.888  1.00  0.00     0.055 A 
HETATM   28 CL   UNL     1      43.628 -18.435   2.728  1.00  0.00    -0.083 Cl
HETATM   29  C   UNL     1      43.445 -15.935   1.775  1.00  0.00     0.026 A 
HETATM   30  C   UNL     1      43.167 -14.566   1.847  1.00  0.00     0.011 A 
ENDBRANCH   2  23
BRANCH   7  31
HETATM   31  C   UNL     1      45.720 -11.178   6.521  1.00  0.00     0.085 C 
BRANCH  31  32
HETATM   32  C   UNL     1      45.507 -10.769   7.977  1.00  0.00     0.034 C 
BRANCH  32  33
HETATM   33  C   UNL     1      45.884  -9.318   8.254  1.00  0.00     0.164 C 
BRANCH  33  34
HETATM   34  O   UNL     1      46.990  -8.949   7.437  1.00  0.00    -0.401 OA
HETATM   35  H   UNL     1      47.784  -9.366   7.813  1.00  0.00     0.209 HD
ENDBRANCH  33  34
ENDBRANCH  32  33
ENDBRANCH  31  32
ENDBRANCH   7  31
TORSDOF 7
ENDMDL
MODEL 2
REMARK VINA RESULT:      -8.2      3.374      6.600
REMARK  7 active torsions:
REMARK  status: ('A' for Active; 'I' for Inactive)
REMARK    1  A    between atoms: C_3  and  N_4 
REMARK       I    between atoms: N_4  and  C_5 
REMARK    2  A    between atoms: C_5  and  C_6 
REMARK    3  A    between atoms: C_7  and  C_8 
REMARK    4  A    between atoms: C_20  and  C_21 
REMARK    5  A    between atoms: C_21  and  C_22 
REMARK    6  A    between atoms: C_22  and  C_23 
REMARK    7  A    between atoms: C_23  and  O_24 
ROOT
HETATM    1  C   UNL     1      42.322 -12.679   3.157  1.00  0.00     0.062 A 
HETATM    2  C   UNL     1      40.869 -12.509   2.723  1.00  0.00     0.202 A 
HETATM    3  N   UNL     1      40.413 -11.121   2.854  1.00  0.00    -0.083 N 
HETATM    4  C   UNL     1      41.181 -10.110   3.356  1.00  0.00     0.726 A 
HETATM    5  N   UNL     1      42.442 -10.371   3.737  1.00  0.00    -0.192 N 
HETATM    6  N   UNL     1      39.146 -10.712   2.628  1.00  0.00    -0.140 NA
HETATM    7  C   UNL     1      39.248  -9.409   2.933  1.00  0.00     0.166 A 
HETATM    8  N   UNL     1      40.481  -9.006   3.389  1.00  0.00    -0.046 NA
HETATM    9  C   UNL     1      43.032 -11.626   3.643  1.00  0.00     0.037 A 
HETATM   10  C   UNL     1      44.459 -11.706   4.132  1.00  0.00     0.070 C 
HETATM   11  H   UNL     1      43.009  -9.609   4.101  1.00  0.00     0.184 HD
ENDROOT
BRANCH   1  12
HETATM   12  C   UNL     1      43.002 -13.995   2.933  1.00  0.00     0.256 C 
HETATM   13  N   UNL     1      42.626 -15.008   3.792  1.00  0.00    -0.323 N 
HETATM   14  H   UNL     1      41.771 -14.898   4.314  1.00  0.00     0.169 HD
HETATM   15  O   UNL     1      43.757 -14.120   1.974  1.00  0.00    -0.267 OA
BRANCH  13  16
HETATM   16  C   UNL     1      43.086 -16.344   3.701  1.00  0.00     0.041 A 
HETATM   17  C   UNL     1      43.887 -16.986   4.662  1.00  0.00    -0.035 A 
HETATM   18  C   UNL     1      44.264 -16.385   5.987  1.00  0.00     0.050 C 
HETATM   19  C   UNL     1      44.333 -18.297   4.405  1.00  0.00     0.009 A 
HETATM   20  C   UNL     1      43.950 -18.979   3.251  1.00  0.00     0.001 A 
HETATM   21  C   UNL     1      43.100 -18.365   2.339  1.00  0.00     0.002 A 
HETATM   22  C   UNL     1      42.661 -17.061   2.569  1.00  0.00     0.030 A 
ENDBRANCH  13  16
ENDBRANCH   1  12
BRANCH   2  23
HETATM   23  C   UNL     1      40.574 -13.026   1.316  1.00  0.00    -0.026 A 
HETATM   24  C   UNL     1      40.883 -12.225   0.201  1.00  0.00     0.035 A 
HETATM   25  C   UNL     1      40.599 -12.661  -1.099  1.00  0.00     0.056 A 
HETATM   26 CL   UNL     1      40.982 -11.593  -2.402  1.00  0.00    -0.083 Cl
HETATM   27  C   UNL     1      40.013 -13.913  -1.301  1.00  0.00     0.055 A 
HETATM   28 CL   UNL     1      39.628 -14.514  -2.874  1.00  0.00    -0.083 Cl
HETATM   29  C   UNL     1      39.721 -14.725  -0.202  1.00  0.00     0.026 A 
HETATM   30  C   UNL     1      40.001 -14.288   1.097  1.00  0.00     0.011 A 
ENDBRANCH   2  23
BRANCH   7  31
HETATM   31  C   UNL     1      38.108  -8.463   2.829  1.00  0.00     0.085 C 
BRANCH  31  32
HETATM   32  C   UNL     1      38.198  -7.301   3.815  1.00  0.00     0.034 C 
BRANCH  32  33
HETATM   33  C   UNL     1      37.722  -7.666   5.217  1.00  0.00     0.164 C 
BRANCH  33  34
HETATM   34  O   UNL     1      36.401  -8.193   5.149  1.00  0.00    -0.401 OA
HETATM   35  H   UNL     1      35.975  -8.027   6.007  1.00  0.00     0.209 HD
ENDBRANCH  33  34
ENDBRANCH  32  33
ENDBRANCH  31  32
ENDBRANCH   7  31
TORSDOF 7
ENDMDL
MODEL 3
REMARK VINA RESULT:      -8.0      3.646      6.836
REMARK  7 active torsions:
REMARK  status: ('A' for Active; 'I' for Inactive)
REMARK    1  A    between atoms: C_3  and  N_4 
REMARK       I    between atoms: N_4  and  C_5 
REMARK    2  A    between atoms: C_5  and  C_6 
REMARK    3  A    between atoms: C_7  and  C_8 
REMARK    4  A    between atoms: C_20  and  C_21 
REMARK    5  A    between atoms: C_21  and  C_22 
REMARK    6  A    between atoms: C_22  and  C_23 
REMARK    7  A    between atoms: C_23  and  O_24 
ROOT
HETATM    1  C   UNL     1      41.142 -13.279   0.609  1.00  0.00     0.062 A 
HETATM    2  C   UNL     1      41.848 -11.972   0.959  1.00  0.00     0.202 A 
HETATM    3  N   UNL     1      41.464 -10.880   0.057  1.00  0.00    -0.083 N 
HETATM    4  C   UNL     1      40.616 -11.027  -1.003  1.00  0.00     0.726 A 
HETATM    5  N   UNL     1      40.067 -12.230  -1.241  1.00  0.00    -0.192 N 
HETATM    6  N   UNL     1      42.008  -9.644   0.084  1.00  0.00    -0.140 NA
HETATM    7  C   UNL     1      41.367  -9.068  -0.945  1.00  0.00     0.166 A 
HETATM    8  N   UNL     1      40.509  -9.890  -1.639  1.00  0.00    -0.046 NA
HETATM    9  C   UNL     1      40.304 -13.354  -0.458  1.00  0.00     0.037 A 
HETATM   10  C   UNL     1      39.593 -14.610  -0.903  1.00  0.00     0.070 C 
HETATM   11  H   UNL     1      39.429 -12.328  -2.027  1.00  0.00     0.184 HD
ENDROOT
BRANCH   1  12
HETATM   12  C   UNL     1      41.289 -14.454   1.526  1.00  0.00     0.256 C 
HETATM   13  N   UNL     1      42.564 -14.974   1.621  1.00  0.00    -0.323 N 
HETATM   14  H   UNL     1      43.335 -14.406   1.306  1.00  0.00     0.169 HD
HETATM   15  O   UNL     1      40.322 -14.817   2.188  1.00  0.00    -0.267 OA
BRANCH  13  16
HETATM   16  C   UNL     1      42.933 -16.030   2.488  1.00  0.00     0.041 A 
HETATM   17  C   UNL     1      43.163 -15.893   3.869  1.00  0.00    -0.035 A 
HETATM   18  C   UNL     1      42.925 -14.627   4.645  1.00  0.00     0.050 C 
HETATM   19  C   UNL     1      43.598 -17.016   4.598  1.00  0.00     0.009 A 
HETATM   20  C   UNL     1      43.746 -18.262   3.989  1.00  0.00     0.001 A 
HETATM   21  C   UNL     1      43.449 -18.407   2.640  1.00  0.00     0.002 A 
HETATM   22  C   UNL     1      43.032 -17.302   1.897  1.00  0.00     0.030 A 
ENDBRANCH  13  16
ENDBRANCH   1  12
BRANCH   2  23
HETATM   23  C   UNL     1      41.672 -11.537   2.412  1.00  0.00    -0.026 A 
HETATM   24  C   UNL     1      42.796 -11.452   3.255  1.00  0.00     0.035 A 
HETATM   25  C   UNL     1      42.662 -11.083   4.599  1.00  0.00     0.056 A 
HETATM   26 CL   UNL     1      44.095 -11.042   5.563  1.00  0.00    -0.083 Cl
HETATM   27  C   UNL     1      41.399 -10.779   5.114  1.00  0.00     0.055 A 
HETATM   28 CL   UNL     1      41.157 -10.324   6.762  1.00  0.00    -0.083 Cl
HETATM   29  C   UNL     1      40.279 -10.840   4.281  1.00  0.00     0.026 A 
HETATM   30  C   UNL     1      40.413 -11.213   2.940  1.00  0.00     0.011 A 
ENDBRANCH   2  23
BRANCH   7  31
HETATM   31  C   UNL     1      41.586  -7.655  -1.345  1.00  0.00     0.085 C 
BRANCH  31  32
HETATM   32  C   UNL     1      43.017  -7.177  -1.107  1.00  0.00     0.034 C 
BRANCH  32  33
HETATM   33  C   UNL     1      43.546  -6.287  -2.227  1.00  0.00     0.164 C 
BRANCH  33  34
HETATM   34  O   UNL     1      44.792  -5.720  -1.836  1.00  0.00    -0.401 OA
HETATM   35  H   UNL     1      45.476  -6.085  -2.423  1.00  0.00     0.209 HD
ENDBRANCH  33  34
ENDBRANCH  32  33
ENDBRANCH  31  32
ENDBRANCH   7  31
TORSDOF 7
ENDMDL
MODEL 4
REMARK VINA RESULT:      -7.9      3.338      6.423
REMARK  7 active torsions:
REMARK  status: ('A' for Active; 'I' for Inactive)
REMARK    1  A    between atoms: C_3  and  N_4 
REMARK       I    between atoms: N_4  and  C_5 
REMARK    2  A    between atoms: C_5  and  C_6 
REMARK    3  A    between atoms: C_7  and  C_8 
REMARK    4  A    between atoms: C_20  and  C_21 
REMARK    5  A    between atoms: C_21  and  C_22 
REMARK    6  A    between atoms: C_22  and  C_23 
REMARK    7  A    between atoms: C_23  and  O_24 
ROOT
HETATM    1  C   UNL     1      41.627 -13.644   1.759  1.00  0.00     0.062 A 
HETATM    2  C   UNL     1      41.939 -12.211   2.182  1.00  0.00     0.202 A 
HETATM    3  N   UNL     1      40.814 -11.304   1.928  1.00  0.00    -0.083 N 
HETATM    4  C   UNL     1      39.645 -11.685   1.334  1.00  0.00     0.726 A 
HETATM    5  N   UNL     1      39.481 -12.969   0.973  1.00  0.00    -0.192 N 
HETATM    6  N   UNL     1      40.856  -9.968   2.122  1.00  0.00    -0.140 NA
HETATM    7  C   UNL     1      39.630  -9.618   1.701  1.00  0.00     0.166 A 
HETATM    8  N   UNL     1      38.863 -10.646   1.205  1.00  0.00    -0.046 NA
HETATM    9  C   UNL     1      40.438 -13.955   1.178  1.00  0.00     0.037 A 
HETATM   10  C   UNL     1      40.057 -15.334   0.692  1.00  0.00     0.070 C 
HETATM   11  H   UNL     1      38.604 -13.245   0.540  1.00  0.00     0.184 HD
ENDROOT
BRANCH   1  12
HETATM   12  C   UNL     1      42.599 -14.732   2.098  1.00  0.00     0.256 C 
HETATM   13  N   UNL     1      42.153 -15.656   3.023  1.00  0.00    -0.323 N 
HETATM   14  H   UNL     1      41.163 -15.708   3.205  1.00  0.00     0.169 HD
HETATM   15  O   UNL     1      43.661 -14.794   1.489  1.00  0.00    -0.267 OA
BRANCH  13  16
HETATM   16  C   UNL     1      42.881 -16.803   3.419  1.00  0.00     0.041 A 
HETATM   17  C   UNL     1      43.595 -16.926   4.625  1.00  0.00    -0.035 A 
HETATM   18  C   UNL     1      43.582 -15.900   5.724  1.00  0.00     0.050 C 
HETATM   19  C   UNL     1      44.336 -18.100   4.856  1.00  0.00     0.009 A 
HETATM   20  C   UNL     1      44.327 -19.154   3.943  1.00  0.00     0.001 A 
HETATM   21  C   UNL     1      43.562 -19.057   2.788  1.00  0.00     0.002 A 
HETATM   22  C   UNL     1      42.833 -17.894   2.534  1.00  0.00     0.030 A 
ENDBRANCH  13  16
ENDBRANCH   1  12
BRANCH   2  23
HETATM   23  C   UNL     1      42.404 -12.076   3.631  1.00  0.00    -0.026 A 
HETATM   24  C   UNL     1      43.746 -11.751   3.904  1.00  0.00     0.035 A 
HETATM   25  C   UNL     1      44.207 -11.648   5.222  1.00  0.00     0.056 A 
HETATM   26 CL   UNL     1      45.878 -11.280   5.457  1.00  0.00    -0.083 Cl
HETATM   27  C   UNL     1      43.325 -11.854   6.286  1.00  0.00     0.055 A 
HETATM   28 CL   UNL     1      43.824 -11.749   7.936  1.00  0.00    -0.083 Cl
HETATM   29  C   UNL     1      41.986 -12.156   6.026  1.00  0.00     0.026 A 
HETATM   30  C   UNL     1      41.526 -12.264   4.710  1.00  0.00     0.011 A 
ENDBRANCH   2  23
BRANCH   7  31
HETATM   31  C   UNL     1      39.137  -8.218   1.724  1.00  0.00     0.085 C 
BRANCH  31  32
HETATM   32  C   UNL     1      39.183  -7.586   3.113  1.00  0.00     0.034 C 
BRANCH  32  33
HETATM   33  C   UNL     1      40.330  -6.596   3.283  1.00  0.00     0.164 C 
BRANCH  33  34
HETATM   34  O   UNL     1      41.531  -7.303   3.572  1.00  0.00    -0.401 OA
HETATM   35  H   UNL     1      41.728  -7.870   2.808  1.00  0.00     0.209 HD
ENDBRANCH  33  34
ENDBRANCH  32  33
ENDBRANCH  31  32
ENDBRANCH   7  31
TORSDOF 7
ENDMDL
MODEL 5
REMARK VINA RESULT:      -7.8      3.674      6.444
REMARK  7 active torsions:
REMARK  status: ('A' for Active; 'I' for Inactive)
REMARK    1  A    between atoms: C_3  and  N_4 
REMARK       I    between atoms: N_4  and  C_5 
REMARK    2  A    between atoms: C_5  and  C_6 
REMARK    3  A    between atoms: C_7  and  C_8 
REMARK    4  A    between atoms: C_20  and  C_21 
REMARK    5  A    between atoms: C_21  and  C_22 
REMARK    6  A    between atoms: C_22  and  C_23 
REMARK    7  A    between atoms: C_23  and  O_24 
ROOT
HETATM    1  C   UNL     1      41.109 -14.032   5.204  1.00  0.00     0.062 A 
HETATM    2  C   UNL     1      40.015 -13.318   4.415  1.00  0.00     0.202 A 
HETATM    3  N   UNL     1      39.965 -11.883   4.717  1.00  0.00    -0.083 N 
HETATM    4  C   UNL     1      40.766 -11.268   5.637  1.00  0.00     0.726 A 
HETATM    5  N   UNL     1      41.681 -11.995   6.299  1.00  0.00    -0.192 N 
HETATM    6  N   UNL     1      39.034 -11.035   4.230  1.00  0.00    -0.140 NA
HETATM    7  C   UNL     1      39.395  -9.894   4.837  1.00  0.00     0.166 A 
HETATM    8  N   UNL     1      40.450 -10.001   5.712  1.00  0.00    -0.046 NA
HETATM    9  C   UNL     1      41.876 -13.356   6.100  1.00  0.00     0.037 A 
HETATM   10  C   UNL     1      42.952 -13.985   6.953  1.00  0.00     0.070 C 
HETATM   11  H   UNL     1      42.279 -11.526   6.975  1.00  0.00     0.184 HD
ENDROOT
BRANCH   1  12
HETATM   12  C   UNL     1      41.411 -15.466   4.897  1.00  0.00     0.256 C 
HETATM   13  N   UNL     1      42.557 -15.684   4.158  1.00  0.00    -0.323 N 
HETATM   14  H   UNL     1      43.236 -14.941   4.101  1.00  0.00     0.169 HD
HETATM   15  O   UNL     1      40.701 -16.342   5.380  1.00  0.00    -0.267 OA
BRANCH  13  16
HETATM   16  C   UNL     1      43.065 -16.964   3.830  1.00  0.00     0.041 A 
HETATM   17  C   UNL     1      43.907 -17.731   4.655  1.00  0.00    -0.035 A 
HETATM   18  C   UNL     1      44.286 -17.353   6.060  1.00  0.00     0.050 C 
HETATM   19  C   UNL     1      44.397 -18.958   4.168  1.00  0.00     0.009 A 
HETATM   20  C   UNL     1      44.018 -19.444   2.918  1.00  0.00     0.001 A 
HETATM   21  C   UNL     1      43.128 -18.716   2.137  1.00  0.00     0.002 A 
HETATM   22  C   UNL     1      42.645 -17.490   2.596  1.00  0.00     0.030 A 
ENDBRANCH  13  16
ENDBRANCH   1  12
BRANCH   2  23
HETATM   23  C   UNL     1      40.095 -13.532   2.904  1.00  0.00    -0.026 A 
HETATM   24  C   UNL     1      40.552 -12.489   2.077  1.00  0.00     0.035 A 
HETATM   25  C   UNL     1      40.609 -12.647   0.687  1.00  0.00     0.056 A 
HETATM   26 CL   UNL     1      41.150 -11.299  -0.248  1.00  0.00    -0.083 Cl
HETATM   27  C   UNL     1      40.223 -13.858   0.107  1.00  0.00     0.055 A 
HETATM   28 CL   UNL     1      40.260 -14.122  -1.599  1.00  0.00    -0.083 Cl
HETATM   29  C   UNL     1      39.787 -14.906   0.921  1.00  0.00     0.026 A 
HETATM   30  C   UNL     1      39.725 -14.748   2.309  1.00  0.00     0.011 A 
ENDBRANCH   2  23
BRANCH   7  31
HETATM   31  C   UNL     1      38.690  -8.605   4.622  1.00  0.00     0.085 C 
BRANCH  31  32
HETATM   32  C   UNL     1      39.065  -7.925   3.307  1.00  0.00     0.034 C 
BRANCH  32  33
HETATM   33  C   UNL     1      38.090  -8.229   2.175  1.00  0.00     0.164 C 
BRANCH  33  34
HETATM   34  O   UNL     1      38.442  -9.464   1.560  1.00  0.00    -0.401 OA
HETATM   35  H   UNL     1      39.365  -9.656   1.797  1.00  0.00     0.209 HD
ENDBRANCH  33  34
ENDBRANCH  32  33
ENDBRANCH  31  32
ENDBRANCH   7  31
TORSDOF 7
ENDMDL
MODEL 6
REMARK VINA RESULT:      -7.7      3.223      6.156
REMARK  7 active torsions:
REMARK  status: ('A' for Active; 'I' for Inactive)
REMARK    1  A    between atoms: C_3  and  N_4 
REMARK       I    between atoms: N_4  and  C_5 
REMARK    2  A    between atoms: C_5  and  C_6 
REMARK    3  A    between atoms: C_7  and  C_8 
REMARK    4  A    between atoms: C_20  and  C_21 
REMARK    5  A    between atoms: C_21  and  C_22 
REMARK    6  A    between atoms: C_22  and  C_23 
REMARK    7  A    between atoms: C_23  and  O_24 
ROOT
HETATM    1  C   UNL     1      41.904 -12.940   4.638  1.00  0.00     0.062 A 
HETATM    2  C   UNL     1      40.611 -12.469   3.978  1.00  0.00     0.202 A 
HETATM    3  N   UNL     1      40.093 -11.242   4.594  1.00  0.00    -0.083 N 
HETATM    4  C   UNL     1      40.670 -10.624   5.667  1.00  0.00     0.726 A 
HETATM    5  N   UNL     1      41.795 -11.137   6.192  1.00  0.00    -0.192 N 
HETATM    6  N   UNL     1      38.918 -10.664   4.266  1.00  0.00    -0.140 NA
HETATM    7  C   UNL     1      38.894  -9.639   5.132  1.00  0.00     0.166 A 
HETATM    8  N   UNL     1      39.951  -9.588   6.011  1.00  0.00    -0.046 NA
HETATM    9  C   UNL     1      42.427 -12.272   5.701  1.00  0.00     0.037 A 
HETATM   10  C   UNL     1      43.678 -12.685   6.441  1.00  0.00     0.070 C 
HETATM   11  H   UNL     1      42.222 -10.664   6.985  1.00  0.00     0.184 HD
ENDROOT
BRANCH   1  12
HETATM   12  C   UNL     1      42.659 -14.081   4.030  1.00  0.00     0.256 C 
HETATM   13  N   UNL     1      42.280 -15.337   4.460  1.00  0.00    -0.323 N 
HETATM   14  H   UNL     1      41.389 -15.434   4.922  1.00  0.00     0.169 HD
HETATM   15  O   UNL     1      43.479 -13.851   3.147  1.00  0.00    -0.267 OA
BRANCH  13  16
HETATM   16  C   UNL     1      42.810 -16.548   3.953  1.00  0.00     0.041 A 
HETATM   17  C   UNL     1      42.390 -17.175   2.766  1.00  0.00    -0.035 A 
HETATM   18  C   UNL     1      41.406 -16.579   1.797  1.00  0.00     0.050 C 
HETATM   19  C   UNL     1      42.954 -18.417   2.420  1.00  0.00     0.009 A 
HETATM   20  C   UNL     1      43.952 -19.002   3.199  1.00  0.00     0.001 A 
HETATM   21  C   UNL     1      44.413 -18.344   4.332  1.00  0.00     0.002 A 
HETATM   22  C   UNL     1      43.855 -17.119   4.700  1.00  0.00     0.030 A 
ENDBRANCH  13  16
ENDBRANCH   1  12
BRANCH   2  23
HETATM   23  C   UNL     1      40.712 -12.292   2.464  1.00  0.00    -0.026 A 
HETATM   24  C   UNL     1      40.151 -13.261   1.611  1.00  0.00     0.035 A 
HETATM   25  C   UNL     1      40.253 -13.139   0.220  1.00  0.00     0.056 A 
HETATM   26 CL   UNL     1      39.564 -14.397  -0.744  1.00  0.00    -0.083 Cl
HETATM   27  C   UNL     1      40.906 -12.037  -0.337  1.00  0.00     0.055 A 
HETATM   28 CL   UNL     1      41.075 -11.824  -2.042  1.00  0.00    -0.083 Cl
HETATM   29  C   UNL     1      41.448 -11.059   0.501  1.00  0.00     0.026 A 
HETATM   30  C   UNL     1      41.351 -11.182   1.891  1.00  0.00     0.011 A 
ENDBRANCH   2  23
BRANCH   7  31
HETATM   31  C   UNL     1      37.793  -8.645   5.179  1.00  0.00     0.085 C 
BRANCH  31  32
HETATM   32  C   UNL     1      38.284  -7.209   5.352  1.00  0.00     0.034 C 
BRANCH  32  33
HETATM   33  C   UNL     1      37.886  -6.597   6.690  1.00  0.00     0.164 C 
BRANCH  33  34
HETATM   34  O   UNL     1      38.409  -7.388   7.751  1.00  0.00    -0.401 OA
HETATM   35  H   UNL     1      39.353  -7.170   7.842  1.00  0.00     0.209 HD
ENDBRANCH  33  34
ENDBRANCH  32  33
ENDBRANCH  31  32
ENDBRANCH   7  31
TORSDOF 7
ENDMDL
MODEL 7
REMARK VINA RESULT:      -7.7      3.613      7.245
REMARK  7 active torsions:
REMARK  status: ('A' for Active; 'I' for Inactive)
REMARK    1  A    between atoms: C_3  and  N_4 
REMARK       I    between atoms: N_4  and  C_5 
REMARK    2  A    between atoms: C_5  and  C_6 
REMARK    3  A    between atoms: C_7  and  C_8 
REMARK    4  A    between atoms: C_20  and  C_21 
REMARK    5  A    between atoms: C_21  and  C_22 
REMARK    6  A    between atoms: C_22  and  C_23 
REMARK    7  A    between atoms: C_23  and  O_24 
ROOT
HETATM    1  C   UNL     1      40.841 -14.500   1.405  1.00  0.00     0.062 A 
HETATM    2  C   UNL     1      41.333 -13.055   1.426  1.00  0.00     0.202 A 
HETATM    3  N   UNL     1      40.724 -12.250   0.362  1.00  0.00    -0.083 N 
HETATM    4  C   UNL     1      39.860 -12.746  -0.572  1.00  0.00     0.726 A 
HETATM    5  N   UNL     1      39.511 -14.042  -0.519  1.00  0.00    -0.192 N 
HETATM    6  N   UNL     1      41.053 -10.967   0.096  1.00  0.00    -0.140 NA
HETATM    7  C   UNL     1      40.272 -10.726  -0.969  1.00  0.00     0.166 A 
HETATM    8  N   UNL     1      39.531 -11.798  -1.410  1.00  0.00    -0.046 NA
HETATM    9  C   UNL     1      39.973 -14.926   0.448  1.00  0.00     0.037 A 
HETATM   10  C   UNL     1      39.463 -16.343   0.324  1.00  0.00     0.070 C 
HETATM   11  H   UNL     1      38.860 -14.400  -1.213  1.00  0.00     0.184 HD
ENDROOT
BRANCH   1  12
HETATM   12  C   UNL     1      41.230 -15.420   2.521  1.00  0.00     0.256 C 
HETATM   13  N   UNL     1      42.559 -15.795   2.541  1.00  0.00    -0.323 N 
HETATM   14  H   UNL     1      43.216 -15.250   2.006  1.00  0.00     0.169 HD
HETATM   15  O   UNL     1      40.399 -15.703   3.377  1.00  0.00    -0.267 OA
BRANCH  13  16
HETATM   16  C   UNL     1      43.148 -16.590   3.553  1.00  0.00     0.041 A 
HETATM   17  C   UNL     1      43.397 -17.971   3.448  1.00  0.00    -0.035 A 
HETATM   18  C   UNL     1      43.189 -18.775   2.194  1.00  0.00     0.050 C 
HETATM   19  C   UNL     1      43.922 -18.651   4.563  1.00  0.00     0.009 A 
HETATM   20  C   UNL     1      44.248 -17.973   5.738  1.00  0.00     0.001 A 
HETATM   21  C   UNL     1      44.067 -16.598   5.810  1.00  0.00     0.002 A 
HETATM   22  C   UNL     1      43.532 -15.909   4.721  1.00  0.00     0.030 A 
ENDBRANCH  13  16
ENDBRANCH   1  12
BRANCH   2  23
HETATM   23  C   UNL     1      41.160 -12.358   2.774  1.00  0.00    -0.026 A 
HETATM   24  C   UNL     1      42.297 -12.012   3.530  1.00  0.00     0.035 A 
HETATM   25  C   UNL     1      42.168 -11.397   4.781  1.00  0.00     0.056 A 
HETATM   26 CL   UNL     1      43.619 -11.043   5.649  1.00  0.00    -0.083 Cl
HETATM   27  C   UNL     1      40.899 -11.106   5.287  1.00  0.00     0.055 A 
HETATM   28 CL   UNL     1      40.664 -10.355   6.824  1.00  0.00    -0.083 Cl
HETATM   29  C   UNL     1      39.765 -11.426   4.535  1.00  0.00     0.026 A 
HETATM   30  C   UNL     1      39.892 -12.045   3.288  1.00  0.00     0.011 A 
ENDBRANCH   2  23
BRANCH   7  31
HETATM   31  C   UNL     1      40.229  -9.413  -1.659  1.00  0.00     0.085 C 
BRANCH  31  32
HETATM   32  C   UNL     1      41.532  -9.065  -2.375  1.00  0.00     0.034 C 
BRANCH  32  33
HETATM   33  C   UNL     1      42.336  -7.981  -1.666  1.00  0.00     0.164 C 
BRANCH  33  34
HETATM   34  O   UNL     1      42.823  -8.482  -0.426  1.00  0.00    -0.401 OA
HETATM   35  H   UNL     1      42.627  -9.434  -0.398  1.00  0.00     0.209 HD
ENDBRANCH  33  34
ENDBRANCH  32  33
ENDBRANCH  31  32
ENDBRANCH   7  31
TORSDOF 7
ENDMDL
MODEL 8
REMARK VINA RESULT:      -7.6     17.249     19.585
REMARK  7 active torsions:
REMARK  status: ('A' for Active; 'I' for Inactive)
REMARK    1  A    between atoms: C_3  and  N_4 
REMARK       I    between atoms: N_4  and  C_5 
REMARK    2  A    between atoms: C_5  and  C_6 
REMARK    3  A    between atoms: C_7  and  C_8 
REMARK    4  A    between atoms: C_20  and  C_21 
REMARK    5  A    between atoms: C_21  and  C_22 
REMARK    6  A    between atoms: C_22  and  C_23 
REMARK    7  A    between atoms: C_23  and  O_24 
ROOT
HETATM    1  C   UNL     1      48.070 -29.904   0.969  1.00  0.00     0.062 A 
HETATM    2  C   UNL     1      48.528 -29.543  -0.442  1.00  0.00     0.202 A 
HETATM    3  N   UNL     1      49.792 -30.199  -0.794  1.00  0.00    -0.083 N 
HETATM    4  C   UNL     1      50.504 -30.994   0.057  1.00  0.00     0.726 A 
HETATM    5  N   UNL     1      50.025 -31.227   1.291  1.00  0.00    -0.192 N 
HETATM    6  N   UNL     1      50.467 -29.980  -1.944  1.00  0.00    -0.140 NA
HETATM    7  C   UNL     1      51.545 -30.756  -1.750  1.00  0.00     0.166 A 
HETATM    8  N   UNL     1      51.603 -31.389  -0.530  1.00  0.00    -0.046 NA
HETATM    9  C   UNL     1      48.825 -30.708   1.763  1.00  0.00     0.037 A 
HETATM   10  C   UNL     1      48.473 -31.087   3.182  1.00  0.00     0.070 C 
HETATM   11  H   UNL     1      50.557 -31.829   1.914  1.00  0.00     0.184 HD
ENDROOT
BRANCH   1  12
HETATM   12  C   UNL     1      46.717 -29.458   1.432  1.00  0.00     0.256 C 
HETATM   13  N   UNL     1      45.710 -30.393   1.305  1.00  0.00    -0.323 N 
HETATM   14  H   UNL     1      45.970 -31.358   1.173  1.00  0.00     0.169 HD
HETATM   15  O   UNL     1      46.603 -28.360   1.967  1.00  0.00    -0.267 OA
BRANCH  13  16
HETATM   16  C   UNL     1      44.382 -30.203   1.756  1.00  0.00     0.041 A 
HETATM   17  C   UNL     1      43.381 -29.519   1.043  1.00  0.00    -0.035 A 
HETATM   18  C   UNL     1      43.544 -29.003  -0.360  1.00  0.00     0.050 C 
HETATM   19  C   UNL     1      42.121 -29.342   1.647  1.00  0.00     0.009 A 
HETATM   20  C   UNL     1      41.838 -29.877   2.903  1.00  0.00     0.001 A 
HETATM   21  C   UNL     1      42.808 -30.612   3.571  1.00  0.00     0.002 A 
HETATM   22  C   UNL     1      44.068 -30.786   2.996  1.00  0.00     0.030 A 
ENDBRANCH  13  16
ENDBRANCH   1  12
BRANCH   2  23
HETATM   23  C   UNL     1      47.482 -29.806  -1.524  1.00  0.00    -0.026 A 
HETATM   24  C   UNL     1      46.869 -28.722  -2.178  1.00  0.00     0.035 A 
HETATM   25  C   UNL     1      45.888 -28.932  -3.154  1.00  0.00     0.056 A 
HETATM   26 CL   UNL     1      45.168 -27.538  -3.876  1.00  0.00    -0.083 Cl
HETATM   27  C   UNL     1      45.516 -30.234  -3.499  1.00  0.00     0.055 A 
HETATM   28 CL   UNL     1      44.310 -30.570  -4.687  1.00  0.00    -0.083 Cl
HETATM   29  C   UNL     1      46.134 -31.318  -2.869  1.00  0.00     0.026 A 
HETATM   30  C   UNL     1      47.111 -31.109  -1.891  1.00  0.00     0.011 A 
ENDBRANCH   2  23
BRANCH   7  31
HETATM   31  C   UNL     1      52.628 -30.902  -2.755  1.00  0.00     0.085 C 
BRANCH  31  32
HETATM   32  C   UNL     1      52.797 -32.334  -3.256  1.00  0.00     0.034 C 
BRANCH  32  33
HETATM   33  C   UNL     1      54.125 -32.961  -2.845  1.00  0.00     0.164 C 
BRANCH  33  34
HETATM   34  O   UNL     1      54.496 -32.488  -1.555  1.00  0.00    -0.401 OA
HETATM   35  H   UNL     1      55.465 -32.529  -1.495  1.00  0.00     0.209 HD
ENDBRANCH  33  34
ENDBRANCH  32  33
ENDBRANCH  31  32
ENDBRANCH   7  31
TORSDOF 7
ENDMDL
MODEL 9
REMARK VINA RESULT:      -7.6     16.985     19.676
REMARK  7 active torsions:
REMARK  status: ('A' for Active; 'I' for Inactive)
REMARK    1  A    between atoms: C_3  and  N_4 
REMARK       I    between atoms: N_4  and  C_5 
REMARK    2  A    between atoms: C_5  and  C_6 
REMARK    3  A    between atoms: C_7  and  C_8 
REMARK    4  A    between atoms: C_20  and  C_21 
REMARK    5  A    between atoms: C_21  and  C_22 
REMARK    6  A    between atoms: C_22  and  C_23 
REMARK    7  A    between atoms: C_23  and  O_24 
ROOT
HETATM    1  C   UNL     1      46.691 -30.585   1.866  1.00  0.00     0.062 A 
HETATM    2  C   UNL     1      45.515 -30.953   0.965  1.00  0.00     0.202 A 
HETATM    3  N   UNL     1      44.245 -30.978   1.699  1.00  0.00    -0.083 N 
HETATM    4  C   UNL     1      44.134 -30.751   3.041  1.00  0.00     0.726 A 
HETATM    5  N   UNL     1      45.237 -30.461   3.750  1.00  0.00    -0.192 N 
HETATM    6  N   UNL     1      43.066 -31.363   1.165  1.00  0.00    -0.140 NA
HETATM    7  C   UNL     1      42.262 -31.257   2.235  1.00  0.00     0.166 A 
HETATM    8  N   UNL     1      42.886 -30.889   3.405  1.00  0.00    -0.046 NA
HETATM    9  C   UNL     1      46.507 -30.365   3.196  1.00  0.00     0.037 A 
HETATM   10  C   UNL     1      47.613 -30.035   4.171  1.00  0.00     0.070 C 
HETATM   11  H   UNL     1      45.142 -30.284   4.747  1.00  0.00     0.184 HD
ENDROOT
BRANCH   1  12
HETATM   12  C   UNL     1      48.036 -30.350   1.251  1.00  0.00     0.256 C 
HETATM   13  N   UNL     1      48.519 -31.384   0.474  1.00  0.00    -0.323 N 
HETATM   14  H   UNL     1      47.868 -32.084   0.154  1.00  0.00     0.169 HD
HETATM   15  O   UNL     1      48.572 -29.256   1.391  1.00  0.00    -0.267 OA
BRANCH  13  16
HETATM   16  C   UNL     1      49.729 -31.333  -0.260  1.00  0.00     0.041 A 
HETATM   17  C   UNL     1      49.927 -30.583  -1.433  1.00  0.00    -0.035 A 
HETATM   18  C   UNL     1      48.919 -29.625  -2.005  1.00  0.00     0.050 C 
HETATM   19  C   UNL     1      51.162 -30.685  -2.101  1.00  0.00     0.009 A 
HETATM   20  C   UNL     1      52.199 -31.466  -1.591  1.00  0.00     0.001 A 
HETATM   21  C   UNL     1      52.021 -32.148  -0.394  1.00  0.00     0.002 A 
HETATM   22  C   UNL     1      50.799 -32.072   0.274  1.00  0.00     0.030 A 
ENDBRANCH  13  16
ENDBRANCH   1  12
BRANCH   2  23
HETATM   23  C   UNL     1      45.384 -30.076  -0.279  1.00  0.00    -0.026 A 
HETATM   24  C   UNL     1      45.445 -30.666  -1.555  1.00  0.00     0.035 A 
HETATM   25  C   UNL     1      45.356 -29.884  -2.713  1.00  0.00     0.056 A 
HETATM   26 CL   UNL     1      45.477 -30.693  -4.235  1.00  0.00    -0.083 Cl
HETATM   27  C   UNL     1      45.190 -28.500  -2.608  1.00  0.00     0.055 A 
HETATM   28 CL   UNL     1      45.079 -27.473  -3.992  1.00  0.00    -0.083 Cl
HETATM   29  C   UNL     1      45.108 -27.908  -1.345  1.00  0.00     0.026 A 
HETATM   30  C   UNL     1      45.201 -28.688  -0.189  1.00  0.00     0.011 A 
ENDBRANCH   2  23
BRANCH   7  31
HETATM   31  C   UNL     1      40.808 -31.550   2.186  1.00  0.00     0.085 C 
BRANCH  31  32
HETATM   32  C   UNL     1      40.202 -31.823   3.561  1.00  0.00     0.034 C 
BRANCH  32  33
HETATM   33  C   UNL     1      39.130 -32.907   3.539  1.00  0.00     0.164 C 
BRANCH  33  34
HETATM   34  O   UNL     1      38.076 -32.552   4.429  1.00  0.00    -0.401 OA
HETATM   35  H   UNL     1      37.249 -32.548   3.917  1.00  0.00     0.209 HD
ENDBRANCH  33  34
ENDBRANCH  32  33
ENDBRANCH  31  32
ENDBRANCH   7  31
TORSDOF 7
ENDMDL
MODEL 10
REMARK VINA RESULT:      -7.5      3.906      7.953
REMARK  7 active torsions:
REMARK  status: ('A' for Active; 'I' for Inactive)
REMARK    1  A    between atoms: C_3  and  N_4 
REMARK       I    between atoms: N_4  and  C_5 
REMARK    2  A    between atoms: C_5  and  C_6 
REMARK    3  A    between atoms: C_7  and  C_8 
REMARK    4  A    between atoms: C_20  and  C_21 
REMARK    5  A    between atoms: C_21  and  C_22 
REMARK    6  A    between atoms: C_22  and  C_23 
REMARK    7  A    between atoms: C_23  and  O_24 
ROOT
HETATM    1  C   UNL     1      41.110 -13.949   1.681  1.00  0.00     0.062 A 
HETATM    2  C   UNL     1      41.641 -12.533   1.480  1.00  0.00     0.202 A 
HETATM    3  N   UNL     1      41.097 -11.907   0.269  1.00  0.00    -0.083 N 
HETATM    4  C   UNL     1      40.258 -12.537  -0.604  1.00  0.00     0.726 A 
HETATM    5  N   UNL     1      39.871 -13.798  -0.348  1.00  0.00    -0.192 N 
HETATM    6  N   UNL     1      41.472 -10.695  -0.194  1.00  0.00    -0.140 NA
HETATM    7  C   UNL     1      40.741 -10.623  -1.318  1.00  0.00     0.166 A 
HETATM    8  N   UNL     1      39.989 -11.738  -1.604  1.00  0.00    -0.046 NA
HETATM    9  C   UNL     1      40.270 -14.514   0.774  1.00  0.00     0.037 A 
HETATM   10  C   UNL     1      39.726 -15.920   0.868  1.00  0.00     0.070 C 
HETATM   11  H   UNL     1      39.238 -14.255  -1.000  1.00  0.00     0.184 HD
ENDROOT
BRANCH   1  12
HETATM   12  C   UNL     1      41.429 -14.674   2.952  1.00  0.00     0.256 C 
HETATM   13  N   UNL     1      42.719 -15.155   3.051  1.00  0.00    -0.323 N 
HETATM   14  H   UNL     1      43.416 -14.781   2.426  1.00  0.00     0.169 HD
HETATM   15  O   UNL     1      40.586 -14.717   3.842  1.00  0.00    -0.267 OA
BRANCH  13  16
HETATM   16  C   UNL     1      43.248 -15.796   4.197  1.00  0.00     0.041 A 
HETATM   17  C   UNL     1      43.616 -17.152   4.263  1.00  0.00    -0.035 A 
HETATM   18  C   UNL     1      43.620 -18.085   3.084  1.00  0.00     0.050 C 
HETATM   19  C   UNL     1      44.059 -17.674   5.493  1.00  0.00     0.009 A 
HETATM   20  C   UNL     1      44.190 -16.862   6.619  1.00  0.00     0.001 A 
HETATM   21  C   UNL     1      43.893 -15.508   6.529  1.00  0.00     0.002 A 
HETATM   22  C   UNL     1      43.437 -14.976   5.323  1.00  0.00     0.030 A 
ENDBRANCH  13  16
ENDBRANCH   1  12
BRANCH   2  23
HETATM   23  C   UNL     1      41.435 -11.613   2.682  1.00  0.00    -0.026 A 
HETATM   24  C   UNL     1      40.132 -11.218   3.041  1.00  0.00     0.035 A 
HETATM   25  C   UNL     1      39.915 -10.353   4.121  1.00  0.00     0.056 A 
HETATM   26 CL   UNL     1      38.284  -9.898   4.463  1.00  0.00    -0.083 Cl
HETATM   27  C   UNL     1      41.000  -9.883   4.866  1.00  0.00     0.055 A 
HETATM   28 CL   UNL     1      40.808  -8.810   6.205  1.00  0.00    -0.083 Cl
HETATM   29  C   UNL     1      42.295 -10.285   4.530  1.00  0.00     0.026 A 
HETATM   30  C   UNL     1      42.513 -11.145   3.449  1.00  0.00     0.011 A 
ENDBRANCH   2  23
BRANCH   7  31
HETATM   31  C   UNL     1      40.762  -9.445  -2.221  1.00  0.00     0.085 C 
BRANCH  31  32
HETATM   32  C   UNL     1      40.474  -9.798  -3.678  1.00  0.00     0.034 C 
BRANCH  32  33
HETATM   33  C   UNL     1      39.067  -9.412  -4.122  1.00  0.00     0.164 C 
BRANCH  33  34
HETATM   34  O   UNL     1      38.158 -10.452  -3.781  1.00  0.00    -0.401 OA
HETATM   35  H   UNL     1      38.593 -11.299  -3.978  1.00  0.00     0.209 HD
ENDBRANCH  33  34
ENDBRANCH  32  33
ENDBRANCH  31  32
ENDBRANCH   7  31
TORSDOF 7
ENDMDL
