MODEL 1
REMARK VINA RESULT:      -8.9      0.000      0.000
REMARK  3 active torsions:
REMARK  status: ('A' for Active; 'I' for Inactive)
REMARK    1  A    between atoms: N_4  and  C_5 
REMARK    2  A    between atoms: C_5  and  C_6 
REMARK       I    between atoms: C_6  and  N_7 
REMARK    3  A    between atoms: N_7  and  C_8 
ROOT
HETATM    1  C   UNL     1      43.289 -14.878   6.106  1.00  0.00     0.257 C 
ENDROOT
BRANCH   1   2
HETATM    2  N   UNL     1      43.483 -16.104   5.338  1.00  0.00    -0.225 N 
HETATM    3  N   UNL     1      43.382 -15.984   3.973  1.00  0.00    -0.173 NA
HETATM    4  C   UNL     1      43.445 -17.050   3.235  1.00  0.00     0.062 A 
HETATM    5  C   UNL     1      43.314 -16.872   1.741  1.00  0.00     0.073 C 
HETATM    6  C   UNL     1      43.627 -18.407   3.786  1.00  0.00     0.006 A 
HETATM    7  C   UNL     1      43.683 -18.528   5.169  1.00  0.00     0.046 A 
HETATM    8  C   UNL     1      43.735 -19.549   2.982  1.00  0.00     0.014 A 
HETATM    9  C   UNL     1      43.565 -17.322   6.007  1.00  0.00     0.275 A 
HETATM   10  C   UNL     1      43.850 -19.786   5.762  1.00  0.00     0.018 A 
HETATM   11  O   UNL     1      43.555 -17.428   7.233  1.00  0.00    -0.266 OA
HETATM   12  C   UNL     1      43.959 -20.923   4.961  1.00  0.00     0.001 A 
HETATM   13  C   UNL     1      43.901 -20.804   3.573  1.00  0.00     0.001 A 
ENDBRANCH   1   2
BRANCH   1  14
HETATM   14  C   UNL     1      42.223 -13.975   5.484  1.00  0.00     0.238 C 
HETATM   15  N   UNL     1      42.651 -13.296   4.361  1.00  0.00    -0.351 N 
HETATM   16  H   UNL     1      43.480 -13.661   3.894  1.00  0.00     0.163 HD
HETATM   17  O   UNL     1      41.088 -13.862   5.942  1.00  0.00    -0.272 OA
BRANCH  15  18
HETATM   18  C   UNL     1      41.775 -12.425   3.618  1.00  0.00     0.118 C 
HETATM   19  C   UNL     1      41.192 -13.083   2.396  1.00  0.00    -0.029 A 
HETATM   20  C   UNL     1      41.220 -12.210   1.301  1.00  0.00    -0.050 A 
HETATM   21  C   UNL     1      40.628 -14.345   2.278  1.00  0.00     0.010 A 
HETATM   22  C   UNL     1      40.705 -12.583   0.070  1.00  0.00     0.007 A 
HETATM   23  C   UNL     1      41.802 -10.886   1.686  1.00  0.00     0.041 C 
HETATM   24  C   UNL     1      40.158 -13.861  -0.059  1.00  0.00     0.001 A 
HETATM   25  C   UNL     1      40.117 -14.735   1.037  1.00  0.00     0.001 A 
HETATM   26  C   UNL     1      42.540 -11.244   2.981  1.00  0.00     0.034 C 
ENDBRANCH  15  18
ENDBRANCH   1  14
TORSDOF 3
ENDMDL
MODEL 2
REMARK VINA RESULT:      -8.8      2.155      3.251
REMARK  3 active torsions:
REMARK  status: ('A' for Active; 'I' for Inactive)
REMARK    1  A    between atoms: N_4  and  C_5 
REMARK    2  A    between atoms: C_5  and  C_6 
REMARK       I    between atoms: C_6  and  N_7 
REMARK    3  A    between atoms: N_7  and  C_8 
ROOT
HETATM    1  C   UNL     1      43.038 -14.295   2.594  1.00  0.00     0.257 C 
ENDROOT
BRANCH   1   2
HETATM    2  N   UNL     1      43.218 -15.624   3.170  1.00  0.00    -0.225 N 
HETATM    3  N   UNL     1      43.571 -15.664   4.498  1.00  0.00    -0.173 NA
HETATM    4  C   UNL     1      43.843 -16.807   5.049  1.00  0.00     0.062 A 
HETATM    5  C   UNL     1      44.243 -16.801   6.505  1.00  0.00     0.073 C 
HETATM    6  C   UNL     1      43.790 -18.091   4.321  1.00  0.00     0.006 A 
HETATM    7  C   UNL     1      43.475 -18.040   2.968  1.00  0.00     0.046 A 
HETATM    8  C   UNL     1      44.045 -19.325   4.932  1.00  0.00     0.014 A 
HETATM    9  C   UNL     1      43.212 -16.736   2.334  1.00  0.00     0.275 A 
HETATM   10  C   UNL     1      43.410 -19.219   2.215  1.00  0.00     0.018 A 
HETATM   11  O   UNL     1      42.991 -16.679   1.125  1.00  0.00    -0.266 OA
HETATM   12  C   UNL     1      43.662 -20.448   2.823  1.00  0.00     0.001 A 
HETATM   13  C   UNL     1      43.980 -20.501   4.179  1.00  0.00     0.001 A 
ENDBRANCH   1   2
BRANCH   1  14
HETATM   14  C   UNL     1      41.562 -13.903   2.508  1.00  0.00     0.238 C 
HETATM   15  N   UNL     1      41.167 -13.487   1.253  1.00  0.00    -0.351 N 
HETATM   16  H   UNL     1      41.768 -13.750   0.473  1.00  0.00     0.163 HD
HETATM   17  O   UNL     1      40.797 -13.953   3.468  1.00  0.00    -0.272 OA
BRANCH  15  18
HETATM   18  C   UNL     1      39.804 -13.111   0.970  1.00  0.00     0.118 C 
HETATM   19  C   UNL     1      39.364 -13.498  -0.417  1.00  0.00    -0.029 A 
HETATM   20  C   UNL     1      38.638 -12.462  -1.015  1.00  0.00    -0.050 A 
HETATM   21  C   UNL     1      39.549 -14.704  -1.078  1.00  0.00     0.010 A 
HETATM   22  C   UNL     1      38.099 -12.600  -2.285  1.00  0.00     0.007 A 
HETATM   23  C   UNL     1      38.505 -11.296  -0.088  1.00  0.00     0.041 C 
HETATM   24  C   UNL     1      38.303 -13.804  -2.963  1.00  0.00     0.001 A 
HETATM   25  C   UNL     1      39.020 -14.849  -2.364  1.00  0.00     0.001 A 
HETATM   26  C   UNL     1      39.628 -11.577   0.916  1.00  0.00     0.034 C 
ENDBRANCH  15  18
ENDBRANCH   1  14
TORSDOF 3
ENDMDL
MODEL 3
REMARK VINA RESULT:      -8.8      1.972      7.040
REMARK  3 active torsions:
REMARK  status: ('A' for Active; 'I' for Inactive)
REMARK    1  A    between atoms: N_4  and  C_5 
REMARK    2  A    between atoms: C_5  and  C_6 
REMARK       I    between atoms: C_6  and  N_7 
REMARK    3  A    between atoms: N_7  and  C_8 
ROOT
HETATM    1  C   UNL     1      40.629 -13.738   3.412  1.00  0.00     0.257 C 
ENDROOT
BRANCH   1   2
HETATM    2  N   UNL     1      40.589 -13.418   1.989  1.00  0.00    -0.225 N 
HETATM    3  N   UNL     1      40.914 -12.127   1.650  1.00  0.00    -0.173 NA
HETATM    4  C   UNL     1      40.804 -11.746   0.414  1.00  0.00     0.062 A 
HETATM    5  C   UNL     1      41.157 -10.314   0.092  1.00  0.00     0.073 C 
HETATM    6  C   UNL     1      40.347 -12.638  -0.670  1.00  0.00     0.006 A 
HETATM    7  C   UNL     1      39.977 -13.930  -0.315  1.00  0.00     0.046 A 
HETATM    8  C   UNL     1      40.270 -12.234  -2.009  1.00  0.00     0.014 A 
HETATM    9  C   UNL     1      40.058 -14.344   1.096  1.00  0.00     0.275 A 
HETATM   10  C   UNL     1      39.530 -14.829  -1.291  1.00  0.00     0.018 A 
HETATM   11  O   UNL     1      39.677 -15.467   1.425  1.00  0.00    -0.266 OA
HETATM   12  C   UNL     1      39.454 -14.427  -2.625  1.00  0.00     0.001 A 
HETATM   13  C   UNL     1      39.822 -13.131  -2.982  1.00  0.00     0.001 A 
ENDBRANCH   1   2
BRANCH   1  14
HETATM   14  C   UNL     1      41.997 -14.271   3.841  1.00  0.00     0.238 C 
HETATM   15  N   UNL     1      42.139 -15.635   3.686  1.00  0.00    -0.351 N 
HETATM   16  H   UNL     1      41.482 -16.095   3.058  1.00  0.00     0.163 HD
HETATM   17  O   UNL     1      42.889 -13.552   4.285  1.00  0.00    -0.272 OA
BRANCH  15  18
HETATM   18  C   UNL     1      43.371 -16.314   4.005  1.00  0.00     0.118 C 
HETATM   19  C   UNL     1      43.403 -17.734   3.507  1.00  0.00    -0.029 A 
HETATM   20  C   UNL     1      43.939 -18.588   4.479  1.00  0.00    -0.050 A 
HETATM   21  C   UNL     1      43.035 -18.224   2.262  1.00  0.00     0.010 A 
HETATM   22  C   UNL     1      44.101 -19.943   4.235  1.00  0.00     0.007 A 
HETATM   23  C   UNL     1      44.333 -17.826   5.705  1.00  0.00     0.041 C 
HETATM   24  C   UNL     1      43.710 -20.444   2.992  1.00  0.00     0.001 A 
HETATM   25  C   UNL     1      43.183 -19.591   2.012  1.00  0.00     0.001 A 
HETATM   26  C   UNL     1      43.533 -16.531   5.526  1.00  0.00     0.034 C 
ENDBRANCH  15  18
ENDBRANCH   1  14
TORSDOF 3
ENDMDL
MODEL 4
REMARK VINA RESULT:      -8.5      1.796      2.126
REMARK  3 active torsions:
REMARK  status: ('A' for Active; 'I' for Inactive)
REMARK    1  A    between atoms: N_4  and  C_5 
REMARK    2  A    between atoms: C_5  and  C_6 
REMARK       I    between atoms: C_6  and  N_7 
REMARK    3  A    between atoms: N_7  and  C_8 
ROOT
HETATM    1  C   UNL     1      43.427 -14.810   6.162  1.00  0.00     0.257 C 
ENDROOT
BRANCH   1   2
HETATM    2  N   UNL     1      43.540 -15.931   5.234  1.00  0.00    -0.225 N 
HETATM    3  N   UNL     1      43.285 -15.650   3.913  1.00  0.00    -0.173 NA
HETATM    4  C   UNL     1      43.270 -16.617   3.048  1.00  0.00     0.062 A 
HETATM    5  C   UNL     1      42.969 -16.263   1.612  1.00  0.00     0.073 C 
HETATM    6  C   UNL     1      43.522 -18.027   3.406  1.00  0.00     0.006 A 
HETATM    7  C   UNL     1      43.735 -18.312   4.750  1.00  0.00     0.046 A 
HETATM    8  C   UNL     1      43.545 -19.061   2.462  1.00  0.00     0.014 A 
HETATM    9  C   UNL     1      43.705 -17.218   5.736  1.00  0.00     0.275 A 
HETATM   10  C   UNL     1      43.976 -19.629   5.162  1.00  0.00     0.018 A 
HETATM   11  O   UNL     1      43.834 -17.472   6.933  1.00  0.00    -0.266 OA
HETATM   12  C   UNL     1      44.001 -20.659   4.221  1.00  0.00     0.001 A 
HETATM   13  C   UNL     1      43.785 -20.375   2.873  1.00  0.00     0.001 A 
ENDBRANCH   1   2
BRANCH   1  14
HETATM   14  C   UNL     1      41.980 -14.339   6.317  1.00  0.00     0.238 C 
HETATM   15  N   UNL     1      41.733 -13.101   5.761  1.00  0.00    -0.351 N 
HETATM   16  H   UNL     1      42.407 -12.765   5.074  1.00  0.00     0.163 HD
HETATM   17  O   UNL     1      41.116 -15.002   6.887  1.00  0.00    -0.272 OA
BRANCH  15  18
HETATM   18  C   UNL     1      40.419 -12.507   5.778  1.00  0.00     0.118 C 
HETATM   19  C   UNL     1      39.850 -12.303   4.399  1.00  0.00    -0.029 A 
HETATM   20  C   UNL     1      39.236 -11.048   4.297  1.00  0.00    -0.050 A 
HETATM   21  C   UNL     1      39.831 -13.187   3.330  1.00  0.00     0.010 A 
HETATM   22  C   UNL     1      38.610 -10.647   3.127  1.00  0.00     0.007 A 
HETATM   23  C   UNL     1      39.317 -10.304   5.592  1.00  0.00     0.041 C 
HETATM   24  C   UNL     1      38.609 -11.525   2.042  1.00  0.00     0.001 A 
HETATM   25  C   UNL     1      39.212 -12.787   2.143  1.00  0.00     0.001 A 
HETATM   26  C   UNL     1      40.449 -11.055   6.303  1.00  0.00     0.034 C 
ENDBRANCH  15  18
ENDBRANCH   1  14
TORSDOF 3
ENDMDL
MODEL 5
REMARK VINA RESULT:      -8.4      3.473      5.076
REMARK  3 active torsions:
REMARK  status: ('A' for Active; 'I' for Inactive)
REMARK    1  A    between atoms: N_4  and  C_5 
REMARK    2  A    between atoms: C_5  and  C_6 
REMARK       I    between atoms: C_6  and  N_7 
REMARK    3  A    between atoms: N_7  and  C_8 
ROOT
HETATM    1  C   UNL     1      41.941 -14.281   6.260  1.00  0.00     0.257 C 
ENDROOT
BRANCH   1   2
HETATM    2  N   UNL     1      42.206 -15.274   5.224  1.00  0.00    -0.225 N 
HETATM    3  N   UNL     1      41.387 -15.229   4.121  1.00  0.00    -0.173 NA
HETATM    4  C   UNL     1      41.502 -16.143   3.206  1.00  0.00     0.062 A 
HETATM    5  C   UNL     1      40.571 -16.062   2.020  1.00  0.00     0.073 C 
HETATM    6  C   UNL     1      42.481 -17.245   3.280  1.00  0.00     0.006 A 
HETATM    7  C   UNL     1      43.276 -17.311   4.419  1.00  0.00     0.046 A 
HETATM    8  C   UNL     1      42.628 -18.205   2.271  1.00  0.00     0.014 A 
HETATM    9  C   UNL     1      43.112 -16.299   5.477  1.00  0.00     0.275 A 
HETATM   10  C   UNL     1      44.224 -18.333   4.559  1.00  0.00     0.018 A 
HETATM   11  O   UNL     1      43.771 -16.387   6.513  1.00  0.00    -0.266 OA
HETATM   12  C   UNL     1      44.372 -19.287   3.553  1.00  0.00     0.001 A 
HETATM   13  C   UNL     1      43.574 -19.224   2.411  1.00  0.00     0.001 A 
ENDBRANCH   1   2
BRANCH   1  14
HETATM   14  C   UNL     1      42.475 -12.899   5.879  1.00  0.00     0.238 C 
HETATM   15  N   UNL     1      42.086 -11.893   6.740  1.00  0.00    -0.351 N 
HETATM   16  H   UNL     1      41.757 -12.180   7.661  1.00  0.00     0.163 HD
HETATM   17  O   UNL     1      43.185 -12.702   4.896  1.00  0.00    -0.272 OA
BRANCH  15  18
HETATM   18  C   UNL     1      42.521 -10.529   6.563  1.00  0.00     0.118 C 
HETATM   19  C   UNL     1      43.753 -10.198   7.361  1.00  0.00    -0.029 A 
HETATM   20  C   UNL     1      43.628  -8.943   7.969  1.00  0.00    -0.050 A 
HETATM   21  C   UNL     1      44.922 -10.933   7.494  1.00  0.00     0.010 A 
HETATM   22  C   UNL     1      44.654  -8.407   8.731  1.00  0.00     0.007 A 
HETATM   23  C   UNL     1      42.318  -8.308   7.623  1.00  0.00     0.041 C 
HETATM   24  C   UNL     1      45.823  -9.154   8.886  1.00  0.00     0.001 A 
HETATM   25  C   UNL     1      45.958 -10.406   8.271  1.00  0.00     0.001 A 
HETATM   26  C   UNL     1      41.509  -9.521   7.150  1.00  0.00     0.034 C 
ENDBRANCH  15  18
ENDBRANCH   1  14
TORSDOF 3
ENDMDL
MODEL 6
REMARK VINA RESULT:      -8.3      1.839      6.729
REMARK  3 active torsions:
REMARK  status: ('A' for Active; 'I' for Inactive)
REMARK    1  A    between atoms: N_4  and  C_5 
REMARK    2  A    between atoms: C_5  and  C_6 
REMARK       I    between atoms: C_6  and  N_7 
REMARK    3  A    between atoms: N_7  and  C_8 
ROOT
HETATM    1  C   UNL     1      41.097 -12.320   3.827  1.00  0.00     0.257 C 
ENDROOT
BRANCH   1   2
HETATM    2  N   UNL     1      40.783 -12.753   2.470  1.00  0.00    -0.225 N 
HETATM    3  N   UNL     1      40.395 -14.064   2.328  1.00  0.00    -0.173 NA
HETATM    4  C   UNL     1      40.196 -14.544   1.139  1.00  0.00     0.062 A 
HETATM    5  C   UNL     1      39.787 -15.993   1.031  1.00  0.00     0.073 C 
HETATM    6  C   UNL     1      40.358 -13.747  -0.094  1.00  0.00     0.006 A 
HETATM    7  C   UNL     1      40.794 -12.435   0.053  1.00  0.00     0.046 A 
HETATM    8  C   UNL     1      40.102 -14.258  -1.372  1.00  0.00     0.014 A 
HETATM    9  C   UNL     1      41.064 -11.908   1.401  1.00  0.00     0.275 A 
HETATM   10  C   UNL     1      40.974 -11.622  -1.074  1.00  0.00     0.018 A 
HETATM   11  O   UNL     1      41.505 -10.766   1.533  1.00  0.00    -0.266 OA
HETATM   12  C   UNL     1      40.717 -12.130  -2.347  1.00  0.00     0.001 A 
HETATM   13  C   UNL     1      40.283 -13.447  -2.495  1.00  0.00     0.001 A 
ENDBRANCH   1   2
BRANCH   1  14
HETATM   14  C   UNL     1      42.388 -12.956   4.346  1.00  0.00     0.238 C 
HETATM   15  N   UNL     1      42.314 -14.325   4.499  1.00  0.00    -0.351 N 
HETATM   16  H   UNL     1      41.566 -14.803   3.999  1.00  0.00     0.163 HD
HETATM   17  O   UNL     1      43.399 -12.307   4.605  1.00  0.00    -0.272 OA
BRANCH  15  18
HETATM   18  C   UNL     1      43.444 -15.104   4.945  1.00  0.00     0.118 C 
HETATM   19  C   UNL     1      43.526 -16.451   4.279  1.00  0.00    -0.029 A 
HETATM   20  C   UNL     1      43.845 -17.447   5.212  1.00  0.00    -0.050 A 
HETATM   21  C   UNL     1      43.384 -16.763   2.935  1.00  0.00     0.010 A 
HETATM   22  C   UNL     1      44.009 -18.767   4.826  1.00  0.00     0.007 A 
HETATM   23  C   UNL     1      44.024 -16.864   6.578  1.00  0.00     0.041 C 
HETATM   24  C   UNL     1      43.843 -19.089   3.477  1.00  0.00     0.001 A 
HETATM   25  C   UNL     1      43.535 -18.095   2.538  1.00  0.00     0.001 A 
HETATM   26  C   UNL     1      43.311 -15.515   6.428  1.00  0.00     0.034 C 
ENDBRANCH  15  18
ENDBRANCH   1  14
TORSDOF 3
ENDMDL
MODEL 7
REMARK VINA RESULT:      -8.2      1.374      1.980
REMARK  3 active torsions:
REMARK  status: ('A' for Active; 'I' for Inactive)
REMARK    1  A    between atoms: N_4  and  C_5 
REMARK    2  A    between atoms: C_5  and  C_6 
REMARK       I    between atoms: C_6  and  N_7 
REMARK    3  A    between atoms: N_7  and  C_8 
ROOT
HETATM    1  C   UNL     1      41.965 -13.089   5.040  1.00  0.00     0.257 C 
ENDROOT
BRANCH   1   2
HETATM    2  N   UNL     1      42.514 -14.389   4.668  1.00  0.00    -0.225 N 
HETATM    3  N   UNL     1      42.705 -14.602   3.323  1.00  0.00    -0.173 NA
HETATM    4  C   UNL     1      43.097 -15.769   2.913  1.00  0.00     0.062 A 
HETATM    5  C   UNL     1      43.278 -15.961   1.426  1.00  0.00     0.073 C 
HETATM    6  C   UNL     1      43.359 -16.902   3.824  1.00  0.00     0.006 A 
HETATM    7  C   UNL     1      43.121 -16.695   5.177  1.00  0.00     0.046 A 
HETATM    8  C   UNL     1      43.820 -18.147   3.379  1.00  0.00     0.014 A 
HETATM    9  C   UNL     1      42.632 -15.383   5.635  1.00  0.00     0.275 A 
HETATM   10  C   UNL     1      43.343 -17.726   6.098  1.00  0.00     0.018 A 
HETATM   11  O   UNL     1      42.364 -15.212   6.824  1.00  0.00    -0.266 OA
HETATM   12  C   UNL     1      43.805 -18.966   5.656  1.00  0.00     0.001 A 
HETATM   13  C   UNL     1      44.041 -19.176   4.298  1.00  0.00     0.001 A 
ENDBRANCH   1   2
BRANCH   1  14
HETATM   14  C   UNL     1      40.963 -12.573   4.006  1.00  0.00     0.238 C 
HETATM   15  N   UNL     1      41.550 -12.004   2.895  1.00  0.00    -0.351 N 
HETATM   16  H   UNL     1      42.528 -12.235   2.724  1.00  0.00     0.163 HD
HETATM   17  O   UNL     1      39.746 -12.656   4.152  1.00  0.00    -0.272 OA
BRANCH  15  18
HETATM   18  C   UNL     1      40.766 -11.493   1.797  1.00  0.00     0.118 C 
HETATM   19  C   UNL     1      40.524 -12.518   0.723  1.00  0.00    -0.029 A 
HETATM   20  C   UNL     1      40.693 -11.955  -0.548  1.00  0.00    -0.050 A 
HETATM   21  C   UNL     1      40.128 -13.841   0.861  1.00  0.00     0.010 A 
HETATM   22  C   UNL     1      40.489 -12.701  -1.698  1.00  0.00     0.007 A 
HETATM   23  C   UNL     1      41.044 -10.504  -0.449  1.00  0.00     0.041 C 
HETATM   24  C   UNL     1      40.114 -14.039  -1.563  1.00  0.00     0.001 A 
HETATM   25  C   UNL     1      39.932 -14.605  -0.293  1.00  0.00     0.001 A 
HETATM   26  C   UNL     1      41.525 -10.407   1.003  1.00  0.00     0.034 C 
ENDBRANCH  15  18
ENDBRANCH   1  14
TORSDOF 3
ENDMDL
MODEL 8
REMARK VINA RESULT:      -8.1      3.053      6.984
REMARK  3 active torsions:
REMARK  status: ('A' for Active; 'I' for Inactive)
REMARK    1  A    between atoms: N_4  and  C_5 
REMARK    2  A    between atoms: C_5  and  C_6 
REMARK       I    between atoms: C_6  and  N_7 
REMARK    3  A    between atoms: N_7  and  C_8 
ROOT
HETATM    1  C   UNL     1      42.457 -11.351   2.909  1.00  0.00     0.257 C 
ENDROOT
BRANCH   1   2
HETATM    2  N   UNL     1      42.771 -11.151   4.320  1.00  0.00    -0.225 N 
HETATM    3  N   UNL     1      41.740 -10.703   5.111  1.00  0.00    -0.173 NA
HETATM    4  C   UNL     1      41.973 -10.410   6.354  1.00  0.00     0.062 A 
HETATM    5  C   UNL     1      40.814  -9.906   7.180  1.00  0.00     0.073 C 
HETATM    6  C   UNL     1      43.304 -10.537   6.980  1.00  0.00     0.006 A 
HETATM    7  C   UNL     1      44.352 -10.947   6.164  1.00  0.00     0.046 A 
HETATM    8  C   UNL     1      43.541 -10.258   8.332  1.00  0.00     0.014 A 
HETATM    9  C   UNL     1      44.094 -11.235   4.743  1.00  0.00     0.275 A 
HETATM   10  C   UNL     1      45.643 -11.086   6.690  1.00  0.00     0.018 A 
HETATM   11  O   UNL     1      45.028 -11.542   4.003  1.00  0.00    -0.266 OA
HETATM   12  C   UNL     1      45.878 -10.810   8.037  1.00  0.00     0.001 A 
HETATM   13  C   UNL     1      44.829 -10.396   8.856  1.00  0.00     0.001 A 
ENDBRANCH   1   2
BRANCH   1  14
HETATM   14  C   UNL     1      41.907 -12.752   2.637  1.00  0.00     0.238 C 
HETATM   15  N   UNL     1      42.760 -13.770   3.011  1.00  0.00    -0.351 N 
HETATM   16  H   UNL     1      43.498 -13.529   3.672  1.00  0.00     0.163 HD
HETATM   17  O   UNL     1      40.806 -12.954   2.131  1.00  0.00    -0.272 OA
BRANCH  15  18
HETATM   18  C   UNL     1      42.400 -15.158   2.865  1.00  0.00     0.118 C 
HETATM   19  C   UNL     1      42.875 -16.011   4.011  1.00  0.00    -0.029 A 
HETATM   20  C   UNL     1      43.411 -17.217   3.542  1.00  0.00    -0.050 A 
HETATM   21  C   UNL     1      42.788 -15.759   5.372  1.00  0.00     0.010 A 
HETATM   22  C   UNL     1      43.884 -18.182   4.418  1.00  0.00     0.007 A 
HETATM   23  C   UNL     1      43.330 -17.296   2.051  1.00  0.00     0.041 C 
HETATM   24  C   UNL     1      43.820 -17.922   5.788  1.00  0.00     0.001 A 
HETATM   25  C   UNL     1      43.273 -16.721   6.262  1.00  0.00     0.001 A 
HETATM   26  C   UNL     1      43.133 -15.823   1.679  1.00  0.00     0.034 C 
ENDBRANCH  15  18
ENDBRANCH   1  14
TORSDOF 3
ENDMDL
MODEL 9
REMARK VINA RESULT:      -8.1      2.633      7.923
REMARK  3 active torsions:
REMARK  status: ('A' for Active; 'I' for Inactive)
REMARK    1  A    between atoms: N_4  and  C_5 
REMARK    2  A    between atoms: C_5  and  C_6 
REMARK       I    between atoms: C_6  and  N_7 
REMARK    3  A    between atoms: N_7  and  C_8 
ROOT
HETATM    1  C   UNL     1      40.063 -14.448   2.058  1.00  0.00     0.257 C 
ENDROOT
BRANCH   1   2
HETATM    2  N   UNL     1      39.842 -13.636   0.866  1.00  0.00    -0.225 N 
HETATM    3  N   UNL     1      39.790 -14.316  -0.327  1.00  0.00    -0.173 NA
HETATM    4  C   UNL     1      39.695 -13.649  -1.436  1.00  0.00     0.062 A 
HETATM    5  C   UNL     1      39.657 -14.438  -2.723  1.00  0.00     0.073 C 
HETATM    6  C   UNL     1      39.632 -12.175  -1.492  1.00  0.00     0.006 A 
HETATM    7  C   UNL     1      39.730 -11.490  -0.286  1.00  0.00     0.046 A 
HETATM    8  C   UNL     1      39.488 -11.462  -2.689  1.00  0.00     0.014 A 
HETATM    9  C   UNL     1      39.885 -12.249   0.967  1.00  0.00     0.275 A 
HETATM   10  C   UNL     1      39.683 -10.090  -0.264  1.00  0.00     0.018 A 
HETATM   11  O   UNL     1      40.031 -11.647   2.031  1.00  0.00    -0.266 OA
HETATM   12  C   UNL     1      39.538  -9.381  -1.456  1.00  0.00     0.001 A 
HETATM   13  C   UNL     1      39.442 -10.065  -2.666  1.00  0.00     0.001 A 
ENDBRANCH   1   2
BRANCH   1  14
HETATM   14  C   UNL     1      41.543 -14.777   2.260  1.00  0.00     0.238 C 
HETATM   15  N   UNL     1      41.770 -15.809   3.147  1.00  0.00    -0.351 N 
HETATM   16  H   UNL     1      40.983 -16.426   3.344  1.00  0.00     0.163 HD
HETATM   17  O   UNL     1      42.449 -14.176   1.686  1.00  0.00    -0.272 OA
BRANCH  15  18
HETATM   18  C   UNL     1      43.101 -16.284   3.439  1.00  0.00     0.118 C 
HETATM   19  C   UNL     1      43.255 -17.765   3.221  1.00  0.00    -0.029 A 
HETATM   20  C   UNL     1      43.983 -18.347   4.266  1.00  0.00    -0.050 A 
HETATM   21  C   UNL     1      42.827 -18.532   2.146  1.00  0.00     0.010 A 
HETATM   22  C   UNL     1      44.283 -19.700   4.267  1.00  0.00     0.007 A 
HETATM   23  C   UNL     1      44.401 -17.317   5.267  1.00  0.00     0.041 C 
HETATM   24  C   UNL     1      43.833 -20.480   3.199  1.00  0.00     0.001 A 
HETATM   25  C   UNL     1      43.113 -19.900   2.145  1.00  0.00     0.001 A 
HETATM   26  C   UNL     1      43.437 -16.170   4.942  1.00  0.00     0.034 C 
ENDBRANCH  15  18
ENDBRANCH   1  14
TORSDOF 3
ENDMDL
MODEL 10
REMARK VINA RESULT:      -7.9      2.989      4.776
REMARK  3 active torsions:
REMARK  status: ('A' for Active; 'I' for Inactive)
REMARK    1  A    between atoms: N_4  and  C_5 
REMARK    2  A    between atoms: C_5  and  C_6 
REMARK       I    between atoms: C_6  and  N_7 
REMARK    3  A    between atoms: N_7  and  C_8 
ROOT
HETATM    1  C   UNL     1      40.227 -13.380   4.103  1.00  0.00     0.257 C 
ENDROOT
BRANCH   1   2
HETATM    2  N   UNL     1      41.199 -14.468   4.141  1.00  0.00    -0.225 N 
HETATM    3  N   UNL     1      41.787 -14.796   2.942  1.00  0.00    -0.173 NA
HETATM    4  C   UNL     1      42.585 -15.817   2.883  1.00  0.00     0.062 A 
HETATM    5  C   UNL     1      43.195 -16.148   1.542  1.00  0.00     0.073 C 
HETATM    6  C   UNL     1      42.910 -16.659   4.051  1.00  0.00     0.006 A 
HETATM    7  C   UNL     1      42.279 -16.351   5.250  1.00  0.00     0.046 A 
HETATM    8  C   UNL     1      43.805 -17.735   3.991  1.00  0.00     0.014 A 
HETATM    9  C   UNL     1      41.336 -15.220   5.303  1.00  0.00     0.275 A 
HETATM   10  C   UNL     1      42.536 -17.111   6.399  1.00  0.00     0.018 A 
HETATM   11  O   UNL     1      40.730 -14.979   6.347  1.00  0.00    -0.266 OA
HETATM   12  C   UNL     1      43.429 -18.181   6.339  1.00  0.00     0.001 A 
HETATM   13  C   UNL     1      44.061 -18.493   5.136  1.00  0.00     0.001 A 
ENDBRANCH   1   2
BRANCH   1  14
HETATM   14  C   UNL     1      40.887 -12.015   4.302  1.00  0.00     0.238 C 
HETATM   15  N   UNL     1      41.206 -11.735   5.615  1.00  0.00    -0.351 N 
HETATM   16  H   UNL     1      41.254 -12.527   6.254  1.00  0.00     0.163 HD
HETATM   17  O   UNL     1      41.113 -11.237   3.378  1.00  0.00    -0.272 OA
BRANCH  15  18
HETATM   18  C   UNL     1      41.866 -10.509   5.993  1.00  0.00     0.118 C 
HETATM   19  C   UNL     1      43.281 -10.726   6.460  1.00  0.00    -0.029 A 
HETATM   20  C   UNL     1      43.550  -9.958   7.600  1.00  0.00    -0.050 A 
HETATM   21  C   UNL     1      44.273 -11.506   5.883  1.00  0.00     0.010 A 
HETATM   22  C   UNL     1      44.803  -9.967   8.193  1.00  0.00     0.007 A 
HETATM   23  C   UNL     1      42.358  -9.145   7.992  1.00  0.00     0.041 C 
HETATM   24  C   UNL     1      45.797 -10.768   7.629  1.00  0.00     0.001 A 
HETATM   25  C   UNL     1      45.536 -11.530   6.482  1.00  0.00     0.001 A 
HETATM   26  C   UNL     1      41.233  -9.879   7.253  1.00  0.00     0.034 C 
ENDBRANCH  15  18
ENDBRANCH   1  14
TORSDOF 3
ENDMDL
