MODEL 1
REMARK VINA RESULT:      -8.6      0.000      0.000
REMARK  4 active torsions:
REMARK  status: ('A' for Active; 'I' for Inactive)
REMARK    1  A    between atoms: C_4  and  O_5 
REMARK    2  A    between atoms: O_5  and  C_6 
REMARK    3  A    between atoms: C_7  and  N_8 
REMARK       I    between atoms: N_8  and  C_9 
REMARK    4  A    between atoms: C_9  and  C_10 
ROOT
HETATM    1  C   UNL     1      42.770 -16.283   3.178  1.00  0.00     0.102 A 
HETATM    2  C   UNL     1      41.467 -15.956   3.606  1.00  0.00     0.069 A 
HETATM    3  C   UNL     1      40.602 -15.303   2.723  1.00  0.00     0.032 A 
HETATM    4  C   UNL     1      41.042 -14.928   1.450  1.00  0.00     0.002 A 
HETATM    5  C   UNL     1      42.346 -15.206   1.051  1.00  0.00     0.003 A 
HETATM    6  C   UNL     1      43.213 -15.880   1.912  1.00  0.00     0.039 A 
ENDROOT
BRANCH   2   7
HETATM    7  N   UNL     1      41.086 -16.361   4.902  1.00  0.00    -0.320 N 
HETATM    8  C   UNL     1      40.988 -15.693   6.088  1.00  0.00     0.257 C 
HETATM    9  O   UNL     1      40.354 -16.190   7.020  1.00  0.00    -0.267 OA
HETATM   10  H   UNL     1      40.815 -17.337   4.983  1.00  0.00     0.169 HD
BRANCH   8  11
HETATM   11  C   UNL     1      41.719 -14.412   6.302  1.00  0.00     0.048 A 
HETATM   12  C   UNL     1      41.098 -13.238   6.092  1.00  0.00     0.108 A 
HETATM   13  N   UNL     1      41.780 -12.051   6.238  1.00  0.00    -0.333 N 
HETATM   14  C   UNL     1      43.112 -11.966   6.563  1.00  0.00     0.245 A 
HETATM   15  H   UNL     1      41.303 -11.168   6.097  1.00  0.00     0.168 HD
HETATM   16  O   UNL     1      43.697 -10.899   6.701  1.00  0.00    -0.268 OA
HETATM   17  C   UNL     1      43.818 -13.263   6.735  1.00  0.00     0.075 A 
HETATM   18  C   UNL     1      43.139 -14.414   6.601  1.00  0.00     0.024 A 
ENDBRANCH   8  11
ENDBRANCH   2   7
BRANCH   1  19
HETATM   19  O   UNL     1      43.560 -16.934   4.112  1.00  0.00    -0.309 OA
BRANCH  19  20
HETATM   20  C   UNL     1      43.727 -18.291   4.015  1.00  0.00     0.076 A 
HETATM   21  C   UNL     1      43.963 -19.000   5.193  1.00  0.00     0.037 A 
HETATM   22  C   UNL     1      44.084 -20.389   5.153  1.00  0.00     0.003 A 
HETATM   23  C   UNL     1      43.953 -21.063   3.937  1.00  0.00     0.000 A 
HETATM   24  C   UNL     1      43.691 -20.351   2.764  1.00  0.00     0.003 A 
HETATM   25  C   UNL     1      43.565 -18.963   2.804  1.00  0.00     0.037 A 
ENDBRANCH  19  20
ENDBRANCH   1  19
TORSDOF 4
ENDMDL
MODEL 2
REMARK VINA RESULT:      -8.3      2.491      4.746
REMARK  4 active torsions:
REMARK  status: ('A' for Active; 'I' for Inactive)
REMARK    1  A    between atoms: C_4  and  O_5 
REMARK    2  A    between atoms: O_5  and  C_6 
REMARK    3  A    between atoms: C_7  and  N_8 
REMARK       I    between atoms: N_8  and  C_9 
REMARK    4  A    between atoms: C_9  and  C_10 
ROOT
HETATM    1  C   UNL     1      42.350 -15.516   5.120  1.00  0.00     0.102 A 
HETATM    2  C   UNL     1      42.112 -14.126   5.131  1.00  0.00     0.069 A 
HETATM    3  C   UNL     1      41.016 -13.626   5.839  1.00  0.00     0.032 A 
HETATM    4  C   UNL     1      40.135 -14.497   6.484  1.00  0.00     0.002 A 
HETATM    5  C   UNL     1      40.344 -15.872   6.428  1.00  0.00     0.003 A 
HETATM    6  C   UNL     1      41.448 -16.385   5.745  1.00  0.00     0.039 A 
ENDROOT
BRANCH   2   7
HETATM    7  N   UNL     1      43.039 -13.302   4.459  1.00  0.00    -0.320 N 
HETATM    8  C   UNL     1      42.997 -12.647   3.262  1.00  0.00     0.257 C 
HETATM    9  O   UNL     1      43.811 -11.754   3.024  1.00  0.00    -0.267 OA
HETATM   10  H   UNL     1      43.910 -13.142   4.957  1.00  0.00     0.169 HD
BRANCH   8  11
HETATM   11  C   UNL     1      42.037 -13.064   2.200  1.00  0.00     0.048 A 
HETATM   12  C   UNL     1      42.261 -14.185   1.492  1.00  0.00     0.108 A 
HETATM   13  N   UNL     1      41.408 -14.551   0.477  1.00  0.00    -0.333 N 
HETATM   14  C   UNL     1      40.315 -13.814   0.088  1.00  0.00     0.245 A 
HETATM   15  H   UNL     1      41.569 -15.407  -0.042  1.00  0.00     0.168 HD
HETATM   16  O   UNL     1      39.560 -14.164  -0.811  1.00  0.00    -0.268 OA
HETATM   17  C   UNL     1      40.099 -12.542   0.827  1.00  0.00     0.075 A 
HETATM   18  C   UNL     1      40.932 -12.201   1.823  1.00  0.00     0.024 A 
ENDBRANCH   8  11
ENDBRANCH   2   7
BRANCH   1  19
HETATM   19  O   UNL     1      43.460 -15.926   4.400  1.00  0.00    -0.309 OA
BRANCH  19  20
HETATM   20  C   UNL     1      43.537 -17.227   3.974  1.00  0.00     0.076 A 
HETATM   21  C   UNL     1      43.000 -17.532   2.723  1.00  0.00     0.037 A 
HETATM   22  C   UNL     1      43.104 -18.829   2.223  1.00  0.00     0.003 A 
HETATM   23  C   UNL     1      43.758 -19.811   2.968  1.00  0.00     0.000 A 
HETATM   24  C   UNL     1      44.318 -19.496   4.209  1.00  0.00     0.003 A 
HETATM   25  C   UNL     1      44.219 -18.197   4.708  1.00  0.00     0.037 A 
ENDBRANCH  19  20
ENDBRANCH   1  19
TORSDOF 4
ENDMDL
MODEL 3
REMARK VINA RESULT:      -8.0      1.818      4.289
REMARK  4 active torsions:
REMARK  status: ('A' for Active; 'I' for Inactive)
REMARK    1  A    between atoms: C_4  and  O_5 
REMARK    2  A    between atoms: O_5  and  C_6 
REMARK    3  A    between atoms: C_7  and  N_8 
REMARK       I    between atoms: N_8  and  C_9 
REMARK    4  A    between atoms: C_9  and  C_10 
ROOT
HETATM    1  C   UNL     1      41.569 -16.453   3.440  1.00  0.00     0.102 A 
HETATM    2  C   UNL     1      41.865 -16.386   4.817  1.00  0.00     0.069 A 
HETATM    3  C   UNL     1      43.052 -16.954   5.289  1.00  0.00     0.032 A 
HETATM    4  C   UNL     1      43.910 -17.627   4.415  1.00  0.00     0.002 A 
HETATM    5  C   UNL     1      43.588 -17.736   3.065  1.00  0.00     0.003 A 
HETATM    6  C   UNL     1      42.418 -17.153   2.575  1.00  0.00     0.039 A 
ENDROOT
BRANCH   2   7
HETATM    7  N   UNL     1      40.956 -15.694   5.645  1.00  0.00    -0.320 N 
HETATM    8  C   UNL     1      40.863 -14.385   6.023  1.00  0.00     0.257 C 
HETATM    9  O   UNL     1      39.816 -13.964   6.516  1.00  0.00    -0.267 OA
HETATM   10  H   UNL     1      40.211 -16.264   6.033  1.00  0.00     0.169 HD
BRANCH   8  11
HETATM   11  C   UNL     1      42.045 -13.482   5.936  1.00  0.00     0.048 A 
HETATM   12  C   UNL     1      42.119 -12.560   4.960  1.00  0.00     0.108 A 
HETATM   13  N   UNL     1      43.229 -11.755   4.842  1.00  0.00    -0.333 N 
HETATM   14  C   UNL     1      44.333 -11.846   5.656  1.00  0.00     0.245 A 
HETATM   15  H   UNL     1      43.272 -11.048   4.117  1.00  0.00     0.168 HD
HETATM   16  O   UNL     1      45.306 -11.111   5.541  1.00  0.00    -0.268 OA
HETATM   17  C   UNL     1      44.282 -12.906   6.696  1.00  0.00     0.075 A 
HETATM   18  C   UNL     1      43.188 -13.676   6.809  1.00  0.00     0.024 A 
ENDBRANCH   8  11
ENDBRANCH   2   7
BRANCH   1  19
HETATM   19  O   UNL     1      40.376 -15.861   3.056  1.00  0.00    -0.309 OA
BRANCH  19  20
HETATM   20  C   UNL     1      40.356 -15.056   1.947  1.00  0.00     0.076 A 
HETATM   21  C   UNL     1      40.967 -13.806   2.044  1.00  0.00     0.037 A 
HETATM   22  C   UNL     1      41.021 -12.974   0.926  1.00  0.00     0.003 A 
HETATM   23  C   UNL     1      40.479 -13.402  -0.287  1.00  0.00     0.000 A 
HETATM   24  C   UNL     1      39.891 -14.666  -0.386  1.00  0.00     0.003 A 
HETATM   25  C   UNL     1      39.841 -15.501   0.729  1.00  0.00     0.037 A 
ENDBRANCH  19  20
ENDBRANCH   1  19
TORSDOF 4
ENDMDL
MODEL 4
REMARK VINA RESULT:      -7.9      2.107      3.433
REMARK  4 active torsions:
REMARK  status: ('A' for Active; 'I' for Inactive)
REMARK    1  A    between atoms: C_4  and  O_5 
REMARK    2  A    between atoms: O_5  and  C_6 
REMARK    3  A    between atoms: C_7  and  N_8 
REMARK       I    between atoms: N_8  and  C_9 
REMARK    4  A    between atoms: C_9  and  C_10 
ROOT
HETATM    1  C   UNL     1      42.249 -15.111   4.962  1.00  0.00     0.102 A 
HETATM    2  C   UNL     1      41.803 -13.778   4.843  1.00  0.00     0.069 A 
HETATM    3  C   UNL     1      40.685 -13.366   5.573  1.00  0.00     0.032 A 
HETATM    4  C   UNL     1      39.985 -14.275   6.370  1.00  0.00     0.002 A 
HETATM    5  C   UNL     1      40.399 -15.602   6.445  1.00  0.00     0.003 A 
HETATM    6  C   UNL     1      41.528 -16.024   5.740  1.00  0.00     0.039 A 
ENDROOT
BRANCH   2   7
HETATM    7  N   UNL     1      42.553 -12.912   4.021  1.00  0.00    -0.320 N 
HETATM    8  C   UNL     1      43.537 -12.004   4.289  1.00  0.00     0.257 C 
HETATM    9  O   UNL     1      44.242 -11.579   3.374  1.00  0.00    -0.267 OA
HETATM   10  H   UNL     1      42.342 -12.973   3.029  1.00  0.00     0.169 HD
BRANCH   8  11
HETATM   11  C   UNL     1      43.704 -11.448   5.661  1.00  0.00     0.048 A 
HETATM   12  C   UNL     1      42.896 -10.465   6.095  1.00  0.00     0.108 A 
HETATM   13  N   UNL     1      43.075  -9.911   7.341  1.00  0.00    -0.333 N 
HETATM   14  C   UNL     1      44.080 -10.274   8.205  1.00  0.00     0.245 A 
HETATM   15  H   UNL     1      42.451  -9.183   7.671  1.00  0.00     0.168 HD
HETATM   16  O   UNL     1      44.215  -9.777   9.316  1.00  0.00    -0.268 OA
HETATM   17  C   UNL     1      45.015 -11.317   7.706  1.00  0.00     0.075 A 
HETATM   18  C   UNL     1      44.822 -11.858   6.492  1.00  0.00     0.024 A 
ENDBRANCH   8  11
ENDBRANCH   2   7
BRANCH   1  19
HETATM   19  O   UNL     1      43.366 -15.436   4.209  1.00  0.00    -0.309 OA
BRANCH  19  20
HETATM   20  C   UNL     1      43.522 -16.723   3.766  1.00  0.00     0.076 A 
HETATM   21  C   UNL     1      44.245 -17.603   4.572  1.00  0.00     0.037 A 
HETATM   22  C   UNL     1      44.383 -18.937   4.190  1.00  0.00     0.003 A 
HETATM   23  C   UNL     1      43.784 -19.389   3.013  1.00  0.00     0.000 A 
HETATM   24  C   UNL     1      43.039 -18.511   2.222  1.00  0.00     0.003 A 
HETATM   25  C   UNL     1      42.896 -17.177   2.605  1.00  0.00     0.037 A 
ENDBRANCH  19  20
ENDBRANCH   1  19
TORSDOF 4
ENDMDL
MODEL 5
REMARK VINA RESULT:      -7.9      1.858      5.429
REMARK  4 active torsions:
REMARK  status: ('A' for Active; 'I' for Inactive)
REMARK    1  A    between atoms: C_4  and  O_5 
REMARK    2  A    between atoms: O_5  and  C_6 
REMARK    3  A    between atoms: C_7  and  N_8 
REMARK       I    between atoms: N_8  and  C_9 
REMARK    4  A    between atoms: C_9  and  C_10 
ROOT
HETATM    1  C   UNL     1      42.327 -12.349   5.095  1.00  0.00     0.102 A 
HETATM    2  C   UNL     1      42.383 -13.241   6.187  1.00  0.00     0.069 A 
HETATM    3  C   UNL     1      43.520 -13.254   6.999  1.00  0.00     0.032 A 
HETATM    4  C   UNL     1      44.612 -12.434   6.702  1.00  0.00     0.002 A 
HETATM    5  C   UNL     1      44.573 -11.594   5.592  1.00  0.00     0.003 A 
HETATM    6  C   UNL     1      43.435 -11.551   4.786  1.00  0.00     0.039 A 
ENDROOT
BRANCH   2   7
HETATM    7  N   UNL     1      41.248 -14.042   6.432  1.00  0.00    -0.320 N 
HETATM    8  C   UNL     1      41.071 -15.393   6.513  1.00  0.00     0.257 C 
HETATM    9  O   UNL     1      40.046 -15.845   7.025  1.00  0.00    -0.267 OA
HETATM   10  H   UNL     1      40.388 -13.527   6.596  1.00  0.00     0.169 HD
BRANCH   8  11
HETATM   11  C   UNL     1      42.057 -16.328   5.902  1.00  0.00     0.048 A 
HETATM   12  C   UNL     1      42.980 -16.932   6.671  1.00  0.00     0.108 A 
HETATM   13  N   UNL     1      43.927 -17.757   6.109  1.00  0.00    -0.333 N 
HETATM   14  C   UNL     1      44.030 -17.999   4.760  1.00  0.00     0.245 A 
HETATM   15  H   UNL     1      44.609 -18.225   6.695  1.00  0.00     0.168 HD
HETATM   16  O   UNL     1      44.873 -18.747   4.281  1.00  0.00    -0.268 OA
HETATM   17  C   UNL     1      43.051 -17.285   3.900  1.00  0.00     0.075 A 
HETATM   18  C   UNL     1      42.126 -16.491   4.461  1.00  0.00     0.024 A 
ENDBRANCH   8  11
ENDBRANCH   2   7
BRANCH   1  19
HETATM   19  O   UNL     1      41.163 -12.396   4.345  1.00  0.00    -0.309 OA
BRANCH  19  20
HETATM   20  C   UNL     1      41.093 -13.244   3.271  1.00  0.00     0.076 A 
HETATM   21  C   UNL     1      42.248 -13.421   2.509  1.00  0.00     0.037 A 
HETATM   22  C   UNL     1      42.242 -14.316   1.440  1.00  0.00     0.003 A 
HETATM   23  C   UNL     1      41.086 -15.042   1.148  1.00  0.00     0.000 A 
HETATM   24  C   UNL     1      39.939 -14.881   1.929  1.00  0.00     0.003 A 
HETATM   25  C   UNL     1      39.945 -13.990   3.002  1.00  0.00     0.037 A 
ENDBRANCH  19  20
ENDBRANCH   1  19
TORSDOF 4
ENDMDL
MODEL 6
REMARK VINA RESULT:      -7.8      2.130      3.369
REMARK  4 active torsions:
REMARK  status: ('A' for Active; 'I' for Inactive)
REMARK    1  A    between atoms: C_4  and  O_5 
REMARK    2  A    between atoms: O_5  and  C_6 
REMARK    3  A    between atoms: C_7  and  N_8 
REMARK       I    between atoms: N_8  and  C_9 
REMARK    4  A    between atoms: C_9  and  C_10 
ROOT
HETATM    1  C   UNL     1      43.216 -16.431   5.011  1.00  0.00     0.102 A 
HETATM    2  C   UNL     1      41.849 -16.163   5.231  1.00  0.00     0.069 A 
HETATM    3  C   UNL     1      41.433 -15.735   6.495  1.00  0.00     0.032 A 
HETATM    4  C   UNL     1      42.351 -15.627   7.543  1.00  0.00     0.002 A 
HETATM    5  C   UNL     1      43.690 -15.944   7.335  1.00  0.00     0.003 A 
HETATM    6  C   UNL     1      44.126 -16.348   6.072  1.00  0.00     0.039 A 
ENDROOT
BRANCH   2   7
HETATM    7  N   UNL     1      40.975 -16.292   4.131  1.00  0.00    -0.320 N 
HETATM    8  C   UNL     1      40.672 -15.464   3.089  1.00  0.00     0.257 C 
HETATM    9  O   UNL     1      40.099 -15.915   2.097  1.00  0.00    -0.267 OA
HETATM   10  H   UNL     1      40.477 -17.176   4.082  1.00  0.00     0.169 HD
BRANCH   8  11
HETATM   11  C   UNL     1      40.938 -14.000   3.178  1.00  0.00     0.048 A 
HETATM   12  C   UNL     1      42.060 -13.485   2.647  1.00  0.00     0.108 A 
HETATM   13  N   UNL     1      42.339 -12.143   2.768  1.00  0.00    -0.333 N 
HETATM   14  C   UNL     1      41.544 -11.253   3.448  1.00  0.00     0.245 A 
HETATM   15  H   UNL     1      43.177 -11.756   2.348  1.00  0.00     0.168 HD
HETATM   16  O   UNL     1      41.804 -10.059   3.534  1.00  0.00    -0.268 OA
HETATM   17  C   UNL     1      40.334 -11.829   4.091  1.00  0.00     0.075 A 
HETATM   18  C   UNL     1      40.067 -13.138   3.956  1.00  0.00     0.024 A 
ENDBRANCH   8  11
ENDBRANCH   2   7
BRANCH   1  19
HETATM   19  O   UNL     1      43.545 -16.844   3.730  1.00  0.00    -0.309 OA
BRANCH  19  20
HETATM   20  C   UNL     1      43.642 -18.185   3.464  1.00  0.00     0.076 A 
HETATM   21  C   UNL     1      44.114 -19.015   4.481  1.00  0.00     0.037 A 
HETATM   22  C   UNL     1      44.178 -20.393   4.276  1.00  0.00     0.003 A 
HETATM   23  C   UNL     1      43.753 -20.936   3.063  1.00  0.00     0.000 A 
HETATM   24  C   UNL     1      43.256 -20.104   2.057  1.00  0.00     0.003 A 
HETATM   25  C   UNL     1      43.187 -18.727   2.261  1.00  0.00     0.037 A 
ENDBRANCH  19  20
ENDBRANCH   1  19
TORSDOF 4
ENDMDL
MODEL 7
REMARK VINA RESULT:      -7.8      2.291      2.828
REMARK  4 active torsions:
REMARK  status: ('A' for Active; 'I' for Inactive)
REMARK    1  A    between atoms: C_4  and  O_5 
REMARK    2  A    between atoms: O_5  and  C_6 
REMARK    3  A    between atoms: C_7  and  N_8 
REMARK       I    between atoms: N_8  and  C_9 
REMARK    4  A    between atoms: C_9  and  C_10 
ROOT
HETATM    1  C   UNL     1      40.670 -15.513   3.199  1.00  0.00     0.102 A 
HETATM    2  C   UNL     1      40.196 -14.195   3.365  1.00  0.00     0.069 A 
HETATM    3  C   UNL     1      40.155 -13.340   2.260  1.00  0.00     0.032 A 
HETATM    4  C   UNL     1      40.626 -13.768   1.017  1.00  0.00     0.002 A 
HETATM    5  C   UNL     1      41.141 -15.053   0.869  1.00  0.00     0.003 A 
HETATM    6  C   UNL     1      41.167 -15.926   1.957  1.00  0.00     0.039 A 
ENDROOT
BRANCH   2   7
HETATM    7  N   UNL     1      39.736 -13.825   4.647  1.00  0.00    -0.320 N 
HETATM    8  C   UNL     1      40.181 -12.916   5.563  1.00  0.00     0.257 C 
HETATM    9  O   UNL     1      39.444 -12.566   6.485  1.00  0.00    -0.267 OA
HETATM   10  H   UNL     1      38.901 -14.312   4.958  1.00  0.00     0.169 HD
BRANCH   8  11
HETATM   11  C   UNL     1      41.583 -12.413   5.516  1.00  0.00     0.048 A 
HETATM   12  C   UNL     1      41.903 -11.379   4.718  1.00  0.00     0.108 A 
HETATM   13  N   UNL     1      43.204 -10.941   4.631  1.00  0.00    -0.333 N 
HETATM   14  C   UNL     1      44.257 -11.522   5.296  1.00  0.00     0.245 A 
HETATM   15  H   UNL     1      43.437 -10.148   4.043  1.00  0.00     0.168 HD
HETATM   16  O   UNL     1      45.406 -11.108   5.214  1.00  0.00    -0.268 OA
HETATM   17  C   UNL     1      43.918 -12.705   6.130  1.00  0.00     0.075 A 
HETATM   18  C   UNL     1      42.643 -13.116   6.217  1.00  0.00     0.024 A 
ENDBRANCH   8  11
ENDBRANCH   2   7
BRANCH   1  19
HETATM   19  O   UNL     1      40.672 -16.295   4.343  1.00  0.00    -0.309 OA
BRANCH  19  20
HETATM   20  C   UNL     1      41.828 -16.412   5.070  1.00  0.00     0.076 A 
HETATM   21  C   UNL     1      41.721 -16.423   6.460  1.00  0.00     0.037 A 
HETATM   22  C   UNL     1      42.863 -16.595   7.241  1.00  0.00     0.003 A 
HETATM   23  C   UNL     1      44.104 -16.773   6.628  1.00  0.00     0.000 A 
HETATM   24  C   UNL     1      44.204 -16.788   5.235  1.00  0.00     0.003 A 
HETATM   25  C   UNL     1      43.062 -16.620   4.452  1.00  0.00     0.037 A 
ENDBRANCH  19  20
ENDBRANCH   1  19
TORSDOF 4
ENDMDL
MODEL 8
REMARK VINA RESULT:      -7.5      2.067      6.960
REMARK  4 active torsions:
REMARK  status: ('A' for Active; 'I' for Inactive)
REMARK    1  A    between atoms: C_4  and  O_5 
REMARK    2  A    between atoms: O_5  and  C_6 
REMARK    3  A    between atoms: C_7  and  N_8 
REMARK       I    between atoms: N_8  and  C_9 
REMARK    4  A    between atoms: C_9  and  C_10 
ROOT
HETATM    1  C   UNL     1      42.197 -14.547   5.439  1.00  0.00     0.102 A 
HETATM    2  C   UNL     1      41.913 -15.384   4.339  1.00  0.00     0.069 A 
HETATM    3  C   UNL     1      40.825 -16.258   4.410  1.00  0.00     0.032 A 
HETATM    4  C   UNL     1      40.060 -16.342   5.576  1.00  0.00     0.002 A 
HETATM    5  C   UNL     1      40.375 -15.551   6.678  1.00  0.00     0.003 A 
HETATM    6  C   UNL     1      41.444 -14.656   6.613  1.00  0.00     0.039 A 
ENDROOT
BRANCH   2   7
HETATM    7  N   UNL     1      42.725 -15.251   3.193  1.00  0.00    -0.320 N 
HETATM    8  C   UNL     1      43.255 -16.162   2.324  1.00  0.00     0.257 C 
HETATM    9  O   UNL     1      43.687 -15.786   1.234  1.00  0.00    -0.267 OA
HETATM   10  H   UNL     1      42.958 -14.295   2.943  1.00  0.00     0.169 HD
BRANCH   8  11
HETATM   11  C   UNL     1      43.405 -17.591   2.719  1.00  0.00     0.048 A 
HETATM   12  C   UNL     1      44.182 -17.924   3.765  1.00  0.00     0.108 A 
HETATM   13  N   UNL     1      44.366 -19.244   4.105  1.00  0.00    -0.333 N 
HETATM   14  C   UNL     1      43.824 -20.299   3.411  1.00  0.00     0.245 A 
HETATM   15  H   UNL     1      44.937 -19.490   4.907  1.00  0.00     0.168 HD
HETATM   16  O   UNL     1      43.991 -21.467   3.738  1.00  0.00    -0.268 OA
HETATM   17  C   UNL     1      43.016 -19.938   2.217  1.00  0.00     0.075 A 
HETATM   18  C   UNL     1      42.834 -18.646   1.902  1.00  0.00     0.024 A 
ENDBRANCH   8  11
ENDBRANCH   2   7
BRANCH   1  19
HETATM   19  O   UNL     1      43.289 -13.708   5.284  1.00  0.00    -0.309 OA
BRANCH  19  20
HETATM   20  C   UNL     1      43.340 -12.539   5.998  1.00  0.00     0.076 A 
HETATM   21  C   UNL     1      42.450 -11.525   5.645  1.00  0.00     0.037 A 
HETATM   22  C   UNL     1      42.426 -10.339   6.378  1.00  0.00     0.003 A 
HETATM   23  C   UNL     1      43.280 -10.179   7.470  1.00  0.00     0.000 A 
HETATM   24  C   UNL     1      44.151 -11.208   7.837  1.00  0.00     0.003 A 
HETATM   25  C   UNL     1      44.173 -12.397   7.108  1.00  0.00     0.037 A 
ENDBRANCH  19  20
ENDBRANCH   1  19
TORSDOF 4
ENDMDL
MODEL 9
REMARK VINA RESULT:      -7.4      2.243      3.464
REMARK  4 active torsions:
REMARK  status: ('A' for Active; 'I' for Inactive)
REMARK    1  A    between atoms: C_4  and  O_5 
REMARK    2  A    between atoms: O_5  and  C_6 
REMARK    3  A    between atoms: C_7  and  N_8 
REMARK       I    between atoms: N_8  and  C_9 
REMARK    4  A    between atoms: C_9  and  C_10 
ROOT
HETATM    1  C   UNL     1      42.191 -15.321   2.618  1.00  0.00     0.102 A 
HETATM    2  C   UNL     1      41.999 -13.995   2.177  1.00  0.00     0.069 A 
HETATM    3  C   UNL     1      40.861 -13.683   1.428  1.00  0.00     0.032 A 
HETATM    4  C   UNL     1      39.952 -14.684   1.073  1.00  0.00     0.002 A 
HETATM    5  C   UNL     1      40.173 -16.001   1.466  1.00  0.00     0.003 A 
HETATM    6  C   UNL     1      41.292 -16.323   2.236  1.00  0.00     0.039 A 
ENDROOT
BRANCH   2   7
HETATM    7  N   UNL     1      42.954 -13.034   2.569  1.00  0.00    -0.320 N 
HETATM    8  C   UNL     1      43.076 -12.252   3.682  1.00  0.00     0.257 C 
HETATM    9  O   UNL     1      44.151 -11.703   3.928  1.00  0.00    -0.267 OA
HETATM   10  H   UNL     1      43.716 -12.895   1.912  1.00  0.00     0.169 HD
BRANCH   8  11
HETATM   11  C   UNL     1      41.897 -11.975   4.550  1.00  0.00     0.048 A 
HETATM   12  C   UNL     1      41.699 -12.695   5.668  1.00  0.00     0.108 A 
HETATM   13  N   UNL     1      40.587 -12.481   6.449  1.00  0.00    -0.333 N 
HETATM   14  C   UNL     1      39.600 -11.573   6.148  1.00  0.00     0.245 A 
HETATM   15  H   UNL     1      40.452 -13.013   7.302  1.00  0.00     0.168 HD
HETATM   16  O   UNL     1      38.624 -11.389   6.863  1.00  0.00    -0.268 OA
HETATM   17  C   UNL     1      39.783 -10.819   4.880  1.00  0.00     0.075 A 
HETATM   18  C   UNL     1      40.879 -11.029   4.132  1.00  0.00     0.024 A 
ENDBRANCH   8  11
ENDBRANCH   2   7
BRANCH   1  19
HETATM   19  O   UNL     1      43.341 -15.543   3.360  1.00  0.00    -0.309 OA
BRANCH  19  20
HETATM   20  C   UNL     1      43.316 -16.469   4.370  1.00  0.00     0.076 A 
HETATM   21  C   UNL     1      43.910 -17.707   4.128  1.00  0.00     0.037 A 
HETATM   22  C   UNL     1      43.959 -18.661   5.144  1.00  0.00     0.003 A 
HETATM   23  C   UNL     1      43.429 -18.366   6.401  1.00  0.00     0.000 A 
HETATM   24  C   UNL     1      42.858 -17.115   6.647  1.00  0.00     0.003 A 
HETATM   25  C   UNL     1      42.813 -16.158   5.633  1.00  0.00     0.037 A 
ENDBRANCH  19  20
ENDBRANCH   1  19
TORSDOF 4
ENDMDL
MODEL 10
REMARK VINA RESULT:      -7.4     13.872     15.945
REMARK  4 active torsions:
REMARK  status: ('A' for Active; 'I' for Inactive)
REMARK    1  A    between atoms: C_4  and  O_5 
REMARK    2  A    between atoms: O_5  and  C_6 
REMARK    3  A    between atoms: C_7  and  N_8 
REMARK       I    between atoms: N_8  and  C_9 
REMARK    4  A    between atoms: C_9  and  C_10 
ROOT
HETATM    1  C   UNL     1      44.584 -29.971  -1.178  1.00  0.00     0.102 A 
HETATM    2  C   UNL     1      45.172 -28.696  -1.042  1.00  0.00     0.069 A 
HETATM    3  C   UNL     1      45.246 -27.856  -2.156  1.00  0.00     0.032 A 
HETATM    4  C   UNL     1      44.794 -28.294  -3.404  1.00  0.00     0.002 A 
HETATM    5  C   UNL     1      44.263 -29.573  -3.545  1.00  0.00     0.003 A 
HETATM    6  C   UNL     1      44.159 -30.414  -2.436  1.00  0.00     0.039 A 
ENDROOT
BRANCH   2   7
HETATM    7  N   UNL     1      45.609 -28.315   0.244  1.00  0.00    -0.320 N 
HETATM    8  C   UNL     1      46.822 -28.383   0.866  1.00  0.00     0.257 C 
HETATM    9  O   UNL     1      47.026 -27.721   1.884  1.00  0.00    -0.267 OA
HETATM   10  H   UNL     1      44.896 -27.891   0.830  1.00  0.00     0.169 HD
BRANCH   8  11
HETATM   11  C   UNL     1      47.872 -29.324   0.383  1.00  0.00     0.048 A 
HETATM   12  C   UNL     1      48.218 -30.389   1.127  1.00  0.00     0.108 A 
HETATM   13  N   UNL     1      49.221 -31.235   0.713  1.00  0.00    -0.333 N 
HETATM   14  C   UNL     1      49.954 -31.052  -0.434  1.00  0.00     0.245 A 
HETATM   15  H   UNL     1      49.465 -32.048   1.268  1.00  0.00     0.168 HD
HETATM   16  O   UNL     1      50.835 -31.824  -0.792  1.00  0.00    -0.268 OA
HETATM   17  C   UNL     1      49.618 -29.842  -1.229  1.00  0.00     0.075 A 
HETATM   18  C   UNL     1      48.629 -29.030  -0.820  1.00  0.00     0.024 A 
ENDBRANCH   8  11
ENDBRANCH   2   7
BRANCH   1  19
HETATM   19  O   UNL     1      44.544 -30.737  -0.024  1.00  0.00    -0.309 OA
BRANCH  19  20
HETATM   20  C   UNL     1      43.330 -31.121   0.482  1.00  0.00     0.076 A 
HETATM   21  C   UNL     1      42.911 -32.428   0.237  1.00  0.00     0.037 A 
HETATM   22  C   UNL     1      41.708 -32.882   0.778  1.00  0.00     0.003 A 
HETATM   23  C   UNL     1      40.939 -32.032   1.574  1.00  0.00     0.000 A 
HETATM   24  C   UNL     1      41.375 -30.731   1.838  1.00  0.00     0.003 A 
HETATM   25  C   UNL     1      42.580 -30.277   1.302  1.00  0.00     0.037 A 
ENDBRANCH  19  20
ENDBRANCH   1  19
TORSDOF 4
ENDMDL
