MODEL 1
REMARK VINA RESULT:      -7.3      0.000      0.000
REMARK  7 active torsions:
REMARK  status: ('A' for Active; 'I' for Inactive)
REMARK    1  A    between atoms: C_8  and  C_9 
REMARK    2  A    between atoms: C_9  and  C_10 
REMARK    3  A    between atoms: C_10  and  C_11 
REMARK       I    between atoms: C_11  and  N_12 
REMARK    4  A    between atoms: N_12  and  C_13 
REMARK    5  A    between atoms: C_13  and  C_14 
REMARK    6  A    between atoms: C_14  and  N_15 
REMARK    7  A    between atoms: C_14  and  C_19 
ROOT
HETATM    1  C   UNL     1      42.487 -16.594   6.640  1.00  0.00     0.217 C 
HETATM    2  N   UNL     1      41.529 -16.379   5.676  1.00  0.00    -0.359 N 
HETATM    3  O   UNL     1      42.504 -15.931   7.676  1.00  0.00    -0.274 OA
HETATM    4  H   UNL     1      41.734 -16.730   4.749  1.00  0.00     0.162 HD
ENDROOT
BRANCH   2   5
HETATM    5  C   UNL     1      40.597 -15.252   5.746  1.00  0.00     0.160 C 
BRANCH   5   6
HETATM    6  C   UNL     1      40.865 -14.039   4.784  1.00  0.00     0.239 C 
BRANCH   6   7
HETATM    7  N   UNL     1      40.080 -12.775   5.183  1.00  0.00    -0.069 N 
HETATM    8  H   UNL     1      39.385 -13.131   5.852  1.00  0.00     0.279 HD
HETATM    9  C   UNL     1      40.827 -11.729   5.951  1.00  0.00     0.270 C 
HETATM   10  C   UNL     1      39.245 -12.186   4.080  1.00  0.00     0.270 C 
ENDBRANCH   6   7
BRANCH   6  11
HETATM   11  C   UNL     1      40.813 -14.312   3.274  1.00  0.00    -0.004 A 
HETATM   12  C   UNL     1      41.656 -13.618   2.375  1.00  0.00     0.042 A 
HETATM   13 CL   UNL     1      42.802 -12.440   2.923  1.00  0.00    -0.084 Cl
HETATM   14  C   UNL     1      41.605 -13.847   0.996  1.00  0.00     0.024 A 
HETATM   15  C   UNL     1      40.729 -14.793   0.476  1.00  0.00     0.002 A 
HETATM   16  C   UNL     1      39.915 -15.517   1.337  1.00  0.00     0.001 A 
HETATM   17  C   UNL     1      39.960 -15.285   2.716  1.00  0.00     0.011 A 
ENDBRANCH   6  11
ENDBRANCH   5   6
ENDBRANCH   2   5
BRANCH   1  18
HETATM   18  C   UNL     1      43.451 -17.753   6.440  1.00  0.00     0.107 C 
BRANCH  18  19
HETATM   19  C   UNL     1      44.374 -17.678   5.229  1.00  0.00     0.052 C 
BRANCH  19  20
HETATM   20  C   UNL     1      43.991 -18.640   4.157  1.00  0.00    -0.008 A 
HETATM   21  C   UNL     1      44.024 -20.022   4.198  1.00  0.00     0.032 A 
HETATM   22  C   UNL     1      44.427 -20.978   5.257  1.00  0.00     0.070 C 
HETATM   23  N   UNL     1      43.579 -20.444   2.975  1.00  0.00    -0.282 N 
HETATM   24  H   UNL     1      43.467 -21.396   2.639  1.00  0.00     0.189 HD
HETATM   25  N   UNL     1      43.259 -19.441   2.147  1.00  0.00    -0.179 NA
HETATM   26  C   UNL     1      43.510 -18.336   2.852  1.00  0.00     0.059 A 
HETATM   27  C   UNL     1      43.277 -17.002   2.245  1.00  0.00     0.073 C 
ENDBRANCH  19  20
ENDBRANCH  18  19
ENDBRANCH   1  18
TORSDOF 7
ENDMDL
MODEL 2
REMARK VINA RESULT:      -7.3      3.011      4.110
REMARK  7 active torsions:
REMARK  status: ('A' for Active; 'I' for Inactive)
REMARK    1  A    between atoms: C_8  and  C_9 
REMARK    2  A    between atoms: C_9  and  C_10 
REMARK    3  A    between atoms: C_10  and  C_11 
REMARK       I    between atoms: C_11  and  N_12 
REMARK    4  A    between atoms: N_12  and  C_13 
REMARK    5  A    between atoms: C_13  and  C_14 
REMARK    6  A    between atoms: C_14  and  N_15 
REMARK    7  A    between atoms: C_14  and  C_19 
ROOT
HETATM    1  C   UNL     1      42.913 -14.554   1.778  1.00  0.00     0.217 C 
HETATM    2  N   UNL     1      41.829 -14.120   1.050  1.00  0.00    -0.359 N 
HETATM    3  O   UNL     1      43.433 -13.836   2.631  1.00  0.00    -0.274 OA
HETATM    4  H   UNL     1      41.638 -14.612   0.186  1.00  0.00     0.162 HD
ENDROOT
BRANCH   2   5
HETATM    5  C   UNL     1      41.347 -12.739   1.124  1.00  0.00     0.160 C 
BRANCH   5   6
HETATM    6  C   UNL     1      39.908 -12.451   0.564  1.00  0.00     0.239 C 
BRANCH   6   7
HETATM    7  N   UNL     1      38.813 -12.563   1.641  1.00  0.00    -0.069 N 
HETATM    8  H   UNL     1      38.315 -13.425   1.381  1.00  0.00     0.279 HD
HETATM    9  C   UNL     1      39.269 -12.812   3.046  1.00  0.00     0.270 C 
HETATM   10  C   UNL     1      37.751 -11.502   1.564  1.00  0.00     0.270 C 
ENDBRANCH   6   7
BRANCH   6  11
HETATM   11  C   UNL     1      39.513 -13.138  -0.751  1.00  0.00    -0.004 A 
HETATM   12  C   UNL     1      39.216 -12.385  -1.911  1.00  0.00     0.042 A 
HETATM   13 CL   UNL     1      39.297 -10.654  -1.921  1.00  0.00    -0.084 Cl
HETATM   14  C   UNL     1      38.839 -13.000  -3.109  1.00  0.00     0.024 A 
HETATM   15  C   UNL     1      38.771 -14.385  -3.192  1.00  0.00     0.002 A 
HETATM   16  C   UNL     1      39.093 -15.154  -2.081  1.00  0.00     0.001 A 
HETATM   17  C   UNL     1      39.464 -14.540  -0.880  1.00  0.00     0.011 A 
ENDBRANCH   6  11
ENDBRANCH   5   6
ENDBRANCH   2   5
BRANCH   1  18
HETATM   18  C   UNL     1      43.377 -15.989   1.578  1.00  0.00     0.107 C 
BRANCH  18  19
HETATM   19  C   UNL     1      42.506 -17.083   2.185  1.00  0.00     0.052 C 
BRANCH  19  20
HETATM   20  C   UNL     1      43.250 -17.929   3.161  1.00  0.00    -0.008 A 
HETATM   21  C   UNL     1      43.670 -19.238   3.013  1.00  0.00     0.032 A 
HETATM   22  C   UNL     1      43.539 -20.204   1.897  1.00  0.00     0.070 C 
HETATM   23  N   UNL     1      44.303 -19.564   4.181  1.00  0.00    -0.282 N 
HETATM   24  H   UNL     1      44.742 -20.443   4.436  1.00  0.00     0.189 HD
HETATM   25  N   UNL     1      44.325 -18.566   5.074  1.00  0.00    -0.179 NA
HETATM   26  C   UNL     1      43.683 -17.565   4.468  1.00  0.00     0.059 A 
HETATM   27  C   UNL     1      43.501 -16.270   5.170  1.00  0.00     0.073 C 
ENDBRANCH  19  20
ENDBRANCH  18  19
ENDBRANCH   1  18
TORSDOF 7
ENDMDL
MODEL 3
REMARK VINA RESULT:      -7.3      2.376      3.997
REMARK  7 active torsions:
REMARK  status: ('A' for Active; 'I' for Inactive)
REMARK    1  A    between atoms: C_8  and  C_9 
REMARK    2  A    between atoms: C_9  and  C_10 
REMARK    3  A    between atoms: C_10  and  C_11 
REMARK       I    between atoms: C_11  and  N_12 
REMARK    4  A    between atoms: N_12  and  C_13 
REMARK    5  A    between atoms: C_13  and  C_14 
REMARK    6  A    between atoms: C_14  and  N_15 
REMARK    7  A    between atoms: C_14  and  C_19 
ROOT
HETATM    1  C   UNL     1      41.795 -15.126   2.772  1.00  0.00     0.217 C 
HETATM    2  N   UNL     1      40.589 -14.611   3.188  1.00  0.00    -0.359 N 
HETATM    3  O   UNL     1      42.786 -14.406   2.656  1.00  0.00    -0.274 OA
HETATM    4  H   UNL     1      39.767 -15.164   2.983  1.00  0.00     0.162 HD
ENDROOT
BRANCH   2   5
HETATM    5  C   UNL     1      40.373 -13.172   3.348  1.00  0.00     0.160 C 
BRANCH   5   6
HETATM    6  C   UNL     1      40.485 -12.586   4.802  1.00  0.00     0.239 C 
BRANCH   6   7
HETATM    7  N   UNL     1      39.721 -11.260   4.973  1.00  0.00    -0.069 N 
HETATM    8  H   UNL     1      40.473 -10.571   5.108  1.00  0.00     0.279 HD
HETATM    9  C   UNL     1      38.968 -10.754   3.781  1.00  0.00     0.270 C 
HETATM   10  C   UNL     1      38.917 -11.162   6.239  1.00  0.00     0.270 C 
ENDBRANCH   6   7
BRANCH   6  11
HETATM   11  C   UNL     1      41.881 -12.547   5.440  1.00  0.00    -0.004 A 
HETATM   12  C   UNL     1      42.332 -13.595   6.277  1.00  0.00     0.042 A 
HETATM   13 CL   UNL     1      41.351 -14.982   6.613  1.00  0.00    -0.084 Cl
HETATM   14  C   UNL     1      43.596 -13.562   6.877  1.00  0.00     0.024 A 
HETATM   15  C   UNL     1      44.454 -12.495   6.640  1.00  0.00     0.002 A 
HETATM   16  C   UNL     1      44.054 -11.470   5.794  1.00  0.00     0.001 A 
HETATM   17  C   UNL     1      42.789 -11.498   5.198  1.00  0.00     0.011 A 
ENDBRANCH   6  11
ENDBRANCH   5   6
ENDBRANCH   2   5
BRANCH   1  18
HETATM   18  C   UNL     1      41.897 -16.630   2.571  1.00  0.00     0.107 C 
BRANCH  18  19
HETATM   19  C   UNL     1      43.285 -17.195   2.294  1.00  0.00     0.052 C 
BRANCH  19  20
HETATM   20  C   UNL     1      43.659 -18.282   3.242  1.00  0.00    -0.008 A 
HETATM   21  C   UNL     1      44.042 -18.168   4.566  1.00  0.00     0.032 A 
HETATM   22  C   UNL     1      44.205 -16.995   5.457  1.00  0.00     0.070 C 
HETATM   23  N   UNL     1      44.281 -19.443   5.000  1.00  0.00    -0.282 N 
HETATM   24  H   UNL     1      44.580 -19.750   5.920  1.00  0.00     0.189 HD
HETATM   25  N   UNL     1      44.082 -20.374   4.058  1.00  0.00    -0.179 NA
HETATM   26  C   UNL     1      43.707 -19.681   2.980  1.00  0.00     0.059 A 
HETATM   27  C   UNL     1      43.401 -20.391   1.714  1.00  0.00     0.073 C 
ENDBRANCH  19  20
ENDBRANCH  18  19
ENDBRANCH   1  18
TORSDOF 7
ENDMDL
MODEL 4
REMARK VINA RESULT:      -7.3      3.083      4.275
REMARK  7 active torsions:
REMARK  status: ('A' for Active; 'I' for Inactive)
REMARK    1  A    between atoms: C_8  and  C_9 
REMARK    2  A    between atoms: C_9  and  C_10 
REMARK    3  A    between atoms: C_10  and  C_11 
REMARK       I    between atoms: C_11  and  N_12 
REMARK    4  A    between atoms: N_12  and  C_13 
REMARK    5  A    between atoms: C_13  and  C_14 
REMARK    6  A    between atoms: C_14  and  N_15 
REMARK    7  A    between atoms: C_14  and  C_19 
ROOT
HETATM    1  C   UNL     1      42.748 -14.577   1.716  1.00  0.00     0.217 C 
HETATM    2  N   UNL     1      41.816 -14.127   0.809  1.00  0.00    -0.359 N 
HETATM    3  O   UNL     1      43.092 -13.880   2.669  1.00  0.00    -0.274 OA
HETATM    4  H   UNL     1      41.794 -14.596  -0.088  1.00  0.00     0.162 HD
ENDROOT
BRANCH   2   5
HETATM    5  C   UNL     1      41.317 -12.750   0.827  1.00  0.00     0.160 C 
BRANCH   5   6
HETATM    6  C   UNL     1      39.810 -12.528   0.442  1.00  0.00     0.239 C 
BRANCH   6   7
HETATM    7  N   UNL     1      38.857 -12.683   1.641  1.00  0.00    -0.069 N 
HETATM    8  H   UNL     1      38.256 -13.471   1.364  1.00  0.00     0.279 HD
HETATM    9  C   UNL     1      39.465 -13.123   2.937  1.00  0.00     0.270 C 
HETATM   10  C   UNL     1      37.891 -11.545   1.822  1.00  0.00     0.270 C 
ENDBRANCH   6   7
BRANCH   6  11
HETATM   11  C   UNL     1      39.292 -13.240  -0.817  1.00  0.00    -0.004 A 
HETATM   12  C   UNL     1      38.603 -12.530  -1.828  1.00  0.00     0.042 A 
HETATM   13 CL   UNL     1      38.321 -10.825  -1.716  1.00  0.00    -0.084 Cl
HETATM   14  C   UNL     1      38.113 -13.171  -2.970  1.00  0.00     0.024 A 
HETATM   15  C   UNL     1      38.317 -14.534  -3.149  1.00  0.00     0.002 A 
HETATM   16  C   UNL     1      39.021 -15.251  -2.191  1.00  0.00     0.001 A 
HETATM   17  C   UNL     1      39.507 -14.613  -1.045  1.00  0.00     0.011 A 
ENDBRANCH   6  11
ENDBRANCH   5   6
ENDBRANCH   2   5
BRANCH   1  18
HETATM   18  C   UNL     1      43.253 -16.003   1.570  1.00  0.00     0.107 C 
BRANCH  18  19
HETATM   19  C   UNL     1      42.423 -17.097   2.232  1.00  0.00     0.052 C 
BRANCH  19  20
HETATM   20  C   UNL     1      43.208 -17.893   3.218  1.00  0.00    -0.008 A 
HETATM   21  C   UNL     1      43.661 -17.502   4.465  1.00  0.00     0.032 A 
HETATM   22  C   UNL     1      43.532 -16.231   5.217  1.00  0.00     0.070 C 
HETATM   23  N   UNL     1      44.328 -18.580   4.977  1.00  0.00    -0.282 N 
HETATM   24  H   UNL     1      44.796 -18.664   5.874  1.00  0.00     0.189 HD
HETATM   25  N   UNL     1      44.342 -19.640   4.157  1.00  0.00    -0.179 NA
HETATM   26  C   UNL     1      43.667 -19.233   3.079  1.00  0.00     0.059 A 
HETATM   27  C   UNL     1      43.480 -20.157   1.933  1.00  0.00     0.073 C 
ENDBRANCH  19  20
ENDBRANCH  18  19
ENDBRANCH   1  18
TORSDOF 7
ENDMDL
MODEL 5
REMARK VINA RESULT:      -6.9      2.409      3.823
REMARK  7 active torsions:
REMARK  status: ('A' for Active; 'I' for Inactive)
REMARK    1  A    between atoms: C_8  and  C_9 
REMARK    2  A    between atoms: C_9  and  C_10 
REMARK    3  A    between atoms: C_10  and  C_11 
REMARK       I    between atoms: C_11  and  N_12 
REMARK    4  A    between atoms: N_12  and  C_13 
REMARK    5  A    between atoms: C_13  and  C_14 
REMARK    6  A    between atoms: C_14  and  N_15 
REMARK    7  A    between atoms: C_14  and  C_19 
ROOT
HETATM    1  C   UNL     1      41.243 -15.771   1.913  1.00  0.00     0.217 C 
HETATM    2  N   UNL     1      42.122 -14.725   1.757  1.00  0.00    -0.359 N 
HETATM    3  O   UNL     1      40.034 -15.614   1.744  1.00  0.00    -0.274 OA
HETATM    4  H   UNL     1      43.033 -14.832   2.186  1.00  0.00     0.162 HD
ENDROOT
BRANCH   2   5
HETATM    5  C   UNL     1      41.664 -13.349   1.556  1.00  0.00     0.160 C 
BRANCH   5   6
HETATM    6  C   UNL     1      41.228 -12.544   2.833  1.00  0.00     0.239 C 
BRANCH   6   7
HETATM    7  N   UNL     1      41.375 -11.021   2.659  1.00  0.00    -0.069 N 
HETATM    8  H   UNL     1      42.262 -10.815   3.138  1.00  0.00     0.279 HD
HETATM    9  C   UNL     1      41.584 -10.515   1.265  1.00  0.00     0.270 C 
HETATM   10  C   UNL     1      40.364 -10.206   3.416  1.00  0.00     0.270 C 
ENDBRANCH   6   7
BRANCH   6  11
HETATM   11  C   UNL     1      41.754 -13.035   4.189  1.00  0.00    -0.004 A 
HETATM   12  C   UNL     1      43.045 -12.681   4.646  1.00  0.00     0.042 A 
HETATM   13 CL   UNL     1      44.095 -11.664   3.716  1.00  0.00    -0.084 Cl
HETATM   14  C   UNL     1      43.540 -13.136   5.872  1.00  0.00     0.024 A 
HETATM   15  C   UNL     1      42.753 -13.938   6.690  1.00  0.00     0.002 A 
HETATM   16  C   UNL     1      41.467 -14.272   6.286  1.00  0.00     0.001 A 
HETATM   17  C   UNL     1      40.973 -13.823   5.057  1.00  0.00     0.011 A 
ENDBRANCH   6  11
ENDBRANCH   5   6
ENDBRANCH   2   5
BRANCH   1  18
HETATM   18  C   UNL     1      41.819 -17.152   2.185  1.00  0.00     0.107 C 
BRANCH  18  19
HETATM   19  C   UNL     1      43.325 -17.236   2.409  1.00  0.00     0.052 C 
BRANCH  19  20
HETATM   20  C   UNL     1      43.705 -18.354   3.318  1.00  0.00    -0.008 A 
HETATM   21  C   UNL     1      44.085 -18.284   4.646  1.00  0.00     0.032 A 
HETATM   22  C   UNL     1      44.239 -17.143   5.578  1.00  0.00     0.070 C 
HETATM   23  N   UNL     1      44.333 -19.573   5.034  1.00  0.00    -0.282 N 
HETATM   24  H   UNL     1      44.633 -19.911   5.943  1.00  0.00     0.189 HD
HETATM   25  N   UNL     1      44.141 -20.471   4.059  1.00  0.00    -0.179 NA
HETATM   26  C   UNL     1      43.763 -19.742   3.006  1.00  0.00     0.059 A 
HETATM   27  C   UNL     1      43.464 -20.409   1.714  1.00  0.00     0.073 C 
ENDBRANCH  19  20
ENDBRANCH  18  19
ENDBRANCH   1  18
TORSDOF 7
ENDMDL
MODEL 6
REMARK VINA RESULT:      -6.9      3.371      4.654
REMARK  7 active torsions:
REMARK  status: ('A' for Active; 'I' for Inactive)
REMARK    1  A    between atoms: C_8  and  C_9 
REMARK    2  A    between atoms: C_9  and  C_10 
REMARK    3  A    between atoms: C_10  and  C_11 
REMARK       I    between atoms: C_11  and  N_12 
REMARK    4  A    between atoms: N_12  and  C_13 
REMARK    5  A    between atoms: C_13  and  C_14 
REMARK    6  A    between atoms: C_14  and  N_15 
REMARK    7  A    between atoms: C_14  and  C_19 
ROOT
HETATM    1  C   UNL     1      40.842 -15.229   2.131  1.00  0.00     0.217 C 
HETATM    2  N   UNL     1      41.409 -14.404   1.188  1.00  0.00    -0.359 N 
HETATM    3  O   UNL     1      39.910 -14.842   2.835  1.00  0.00    -0.274 OA
HETATM    4  H   UNL     1      42.333 -14.659   0.861  1.00  0.00     0.162 HD
ENDROOT
BRANCH   2   5
HETATM    5  C   UNL     1      41.060 -12.986   1.086  1.00  0.00     0.160 C 
BRANCH   5   6
HETATM    6  C   UNL     1      40.959 -12.373  -0.357  1.00  0.00     0.239 C 
BRANCH   6   7
HETATM    7  N   UNL     1      40.993 -10.833  -0.356  1.00  0.00    -0.069 N 
HETATM    8  H   UNL     1      39.997 -10.576  -0.344  1.00  0.00     0.279 HD
HETATM    9  C   UNL     1      41.560 -10.169   0.860  1.00  0.00     0.270 C 
HETATM   10  C   UNL     1      41.503 -10.220  -1.631  1.00  0.00     0.270 C 
ENDBRANCH   6   7
BRANCH   6  11
HETATM   11  C   UNL     1      39.877 -12.937  -1.288  1.00  0.00    -0.004 A 
HETATM   12  C   UNL     1      38.523 -12.551  -1.155  1.00  0.00     0.042 A 
HETATM   13 CL   UNL     1      38.012 -11.413   0.047  1.00  0.00    -0.084 Cl
HETATM   14  C   UNL     1      37.526 -13.071  -1.988  1.00  0.00     0.024 A 
HETATM   15  C   UNL     1      37.855 -13.973  -2.992  1.00  0.00     0.002 A 
HETATM   16  C   UNL     1      39.181 -14.343  -3.172  1.00  0.00     0.001 A 
HETATM   17  C   UNL     1      40.178 -13.829  -2.336  1.00  0.00     0.011 A 
ENDBRANCH   6  11
ENDBRANCH   5   6
ENDBRANCH   2   5
BRANCH   1  18
HETATM   18  C   UNL     1      41.323 -16.670   2.198  1.00  0.00     0.107 C 
BRANCH  18  19
HETATM   19  C   UNL     1      42.825 -16.900   2.077  1.00  0.00     0.052 C 
BRANCH  19  20
HETATM   20  C   UNL     1      43.384 -17.648   3.239  1.00  0.00    -0.008 A 
HETATM   21  C   UNL     1      43.646 -17.178   4.513  1.00  0.00     0.032 A 
HETATM   22  C   UNL     1      43.473 -15.844   5.136  1.00  0.00     0.070 C 
HETATM   23  N   UNL     1      44.150 -18.241   5.210  1.00  0.00    -0.282 N 
HETATM   24  H   UNL     1      44.455 -18.273   6.178  1.00  0.00     0.189 HD
HETATM   25  N   UNL     1      44.234 -19.364   4.485  1.00  0.00    -0.179 NA
HETATM   26  C   UNL     1      43.776 -19.017   3.280  1.00  0.00     0.059 A 
HETATM   27  C   UNL     1      43.725 -20.022   2.190  1.00  0.00     0.073 C 
ENDBRANCH  19  20
ENDBRANCH  18  19
ENDBRANCH   1  18
TORSDOF 7
ENDMDL
MODEL 7
REMARK VINA RESULT:      -6.8      2.425      4.131
REMARK  7 active torsions:
REMARK  status: ('A' for Active; 'I' for Inactive)
REMARK    1  A    between atoms: C_8  and  C_9 
REMARK    2  A    between atoms: C_9  and  C_10 
REMARK    3  A    between atoms: C_10  and  C_11 
REMARK       I    between atoms: C_11  and  N_12 
REMARK    4  A    between atoms: N_12  and  C_13 
REMARK    5  A    between atoms: C_13  and  C_14 
REMARK    6  A    between atoms: C_14  and  N_15 
REMARK    7  A    between atoms: C_14  and  C_19 
ROOT
HETATM    1  C   UNL     1      40.929 -15.975   2.927  1.00  0.00     0.217 C 
HETATM    2  N   UNL     1      41.486 -15.212   3.927  1.00  0.00    -0.359 N 
HETATM    3  O   UNL     1      39.763 -15.803   2.573  1.00  0.00    -0.274 OA
HETATM    4  H   UNL     1      42.318 -15.583   4.369  1.00  0.00     0.162 HD
ENDROOT
BRANCH   2   5
HETATM    5  C   UNL     1      40.688 -14.286   4.734  1.00  0.00     0.160 C 
BRANCH   5   6
HETATM    6  C   UNL     1      41.120 -12.776   4.732  1.00  0.00     0.239 C 
BRANCH   6   7
HETATM    7  N   UNL     1      41.224 -12.185   3.314  1.00  0.00    -0.069 N 
HETATM    8  H   UNL     1      41.288 -11.173   3.484  1.00  0.00     0.279 HD
HETATM    9  C   UNL     1      42.463 -12.506   2.535  1.00  0.00     0.270 C 
HETATM   10  C   UNL     1      39.977 -12.329   2.485  1.00  0.00     0.270 C 
ENDBRANCH   6   7
BRANCH   6  11
HETATM   11  C   UNL     1      42.308 -12.382   5.621  1.00  0.00    -0.004 A 
HETATM   12  C   UNL     1      42.411 -11.083   6.173  1.00  0.00     0.042 A 
HETATM   13 CL   UNL     1      41.201  -9.875   5.894  1.00  0.00    -0.084 Cl
HETATM   14  C   UNL     1      43.496 -10.709   6.971  1.00  0.00     0.024 A 
HETATM   15  C   UNL     1      44.499 -11.626   7.262  1.00  0.00     0.002 A 
HETATM   16  C   UNL     1      44.408 -12.919   6.766  1.00  0.00     0.001 A 
HETATM   17  C   UNL     1      43.326 -13.294   5.962  1.00  0.00     0.011 A 
ENDBRANCH   6  11
ENDBRANCH   5   6
ENDBRANCH   2   5
BRANCH   1  18
HETATM   18  C   UNL     1      41.830 -16.955   2.194  1.00  0.00     0.107 C 
BRANCH  18  19
HETATM   19  C   UNL     1      43.298 -16.979   2.603  1.00  0.00     0.052 C 
BRANCH  19  20
HETATM   20  C   UNL     1      43.635 -18.154   3.456  1.00  0.00    -0.008 A 
HETATM   21  C   UNL     1      43.710 -19.485   3.087  1.00  0.00     0.032 A 
HETATM   22  C   UNL     1      43.495 -20.171   1.791  1.00  0.00     0.070 C 
HETATM   23  N   UNL     1      44.050 -20.170   4.220  1.00  0.00    -0.282 N 
HETATM   24  H   UNL     1      44.196 -21.168   4.334  1.00  0.00     0.189 HD
HETATM   25  N   UNL     1      44.202 -19.385   5.295  1.00  0.00    -0.179 NA
HETATM   26  C   UNL     1      43.947 -18.154   4.845  1.00  0.00     0.059 A 
HETATM   27  C   UNL     1      44.013 -16.999   5.774  1.00  0.00     0.073 C 
ENDBRANCH  19  20
ENDBRANCH  18  19
ENDBRANCH   1  18
TORSDOF 7
ENDMDL
MODEL 8
REMARK VINA RESULT:      -6.8      2.760      4.195
REMARK  7 active torsions:
REMARK  status: ('A' for Active; 'I' for Inactive)
REMARK    1  A    between atoms: C_8  and  C_9 
REMARK    2  A    between atoms: C_9  and  C_10 
REMARK    3  A    between atoms: C_10  and  C_11 
REMARK       I    between atoms: C_11  and  N_12 
REMARK    4  A    between atoms: N_12  and  C_13 
REMARK    5  A    between atoms: C_13  and  C_14 
REMARK    6  A    between atoms: C_14  and  N_15 
REMARK    7  A    between atoms: C_14  and  C_19 
ROOT
HETATM    1  C   UNL     1      41.029 -15.447   1.674  1.00  0.00     0.217 C 
HETATM    2  N   UNL     1      41.925 -14.479   1.288  1.00  0.00    -0.359 N 
HETATM    3  O   UNL     1      39.817 -15.240   1.637  1.00  0.00    -0.274 OA
HETATM    4  H   UNL     1      42.878 -14.589   1.612  1.00  0.00     0.162 HD
ENDROOT
BRANCH   2   5
HETATM    5  C   UNL     1      41.505 -13.110   0.981  1.00  0.00     0.160 C 
BRANCH   5   6
HETATM    6  C   UNL     1      41.121 -12.188   2.194  1.00  0.00     0.239 C 
BRANCH   6   7
HETATM    7  N   UNL     1      40.714 -10.768   1.760  1.00  0.00    -0.069 N 
HETATM    8  H   UNL     1      39.783 -10.907   1.344  1.00  0.00     0.279 HD
HETATM    9  C   UNL     1      40.483  -9.767   2.851  1.00  0.00     0.270 C 
HETATM   10  C   UNL     1      41.528 -10.203   0.631  1.00  0.00     0.270 C 
ENDBRANCH   6   7
BRANCH   6  11
HETATM   11  C   UNL     1      42.066 -12.185   3.404  1.00  0.00    -0.004 A 
HETATM   12  C   UNL     1      41.706 -12.820   4.616  1.00  0.00     0.042 A 
HETATM   13 CL   UNL     1      40.196 -13.648   4.799  1.00  0.00    -0.084 Cl
HETATM   14  C   UNL     1      42.553 -12.810   5.729  1.00  0.00     0.024 A 
HETATM   15  C   UNL     1      43.793 -12.187   5.659  1.00  0.00     0.002 A 
HETATM   16  C   UNL     1      44.190 -11.587   4.472  1.00  0.00     0.001 A 
HETATM   17  C   UNL     1      43.343 -11.591   3.359  1.00  0.00     0.011 A 
ENDBRANCH   6  11
ENDBRANCH   5   6
ENDBRANCH   2   5
BRANCH   1  18
HETATM   18  C   UNL     1      41.575 -16.819   2.037  1.00  0.00     0.107 C 
BRANCH  18  19
HETATM   19  C   UNL     1      43.091 -16.959   2.109  1.00  0.00     0.052 C 
BRANCH  19  20
HETATM   20  C   UNL     1      43.528 -17.919   3.161  1.00  0.00    -0.008 A 
HETATM   21  C   UNL     1      43.737 -19.281   3.042  1.00  0.00     0.032 A 
HETATM   22  C   UNL     1      43.610 -20.211   1.895  1.00  0.00     0.070 C 
HETATM   23  N   UNL     1      44.126 -19.711   4.281  1.00  0.00    -0.282 N 
HETATM   24  H   UNL     1      44.367 -20.653   4.575  1.00  0.00     0.189 HD
HETATM   25  N   UNL     1      44.185 -18.732   5.193  1.00  0.00    -0.179 NA
HETATM   26  C   UNL     1      43.818 -17.635   4.526  1.00  0.00     0.059 A 
HETATM   27  C   UNL     1      43.757 -16.329   5.227  1.00  0.00     0.073 C 
ENDBRANCH  19  20
ENDBRANCH  18  19
ENDBRANCH   1  18
TORSDOF 7
ENDMDL
MODEL 9
REMARK VINA RESULT:      -6.8      4.224      7.528
REMARK  7 active torsions:
REMARK  status: ('A' for Active; 'I' for Inactive)
REMARK    1  A    between atoms: C_8  and  C_9 
REMARK    2  A    between atoms: C_9  and  C_10 
REMARK    3  A    between atoms: C_10  and  C_11 
REMARK       I    between atoms: C_11  and  N_12 
REMARK    4  A    between atoms: N_12  and  C_13 
REMARK    5  A    between atoms: C_13  and  C_14 
REMARK    6  A    between atoms: C_14  and  N_15 
REMARK    7  A    between atoms: C_14  and  C_19 
ROOT
HETATM    1  C   UNL     1      39.894 -13.948   0.812  1.00  0.00     0.217 C 
HETATM    2  N   UNL     1      39.444 -14.395   2.033  1.00  0.00    -0.359 N 
HETATM    3  O   UNL     1      40.610 -14.654   0.104  1.00  0.00    -0.274 OA
HETATM    4  H   UNL     1      39.122 -13.688   2.683  1.00  0.00     0.162 HD
ENDROOT
BRANCH   2   5
HETATM    5  C   UNL     1      39.923 -15.645   2.627  1.00  0.00     0.160 C 
BRANCH   5   6
HETATM    6  C   UNL     1      40.991 -15.530   3.774  1.00  0.00     0.239 C 
BRANCH   6   7
HETATM    7  N   UNL     1      41.521 -14.096   3.957  1.00  0.00    -0.069 N 
HETATM    8  H   UNL     1      40.987 -13.558   3.262  1.00  0.00     0.279 HD
HETATM    9  C   UNL     1      41.213 -13.422   5.259  1.00  0.00     0.270 C 
HETATM   10  C   UNL     1      42.951 -13.901   3.537  1.00  0.00     0.270 C 
ENDBRANCH   6   7
BRANCH   6  11
HETATM   11  C   UNL     1      42.112 -16.580   3.800  1.00  0.00    -0.004 A 
HETATM   12  C   UNL     1      42.646 -17.050   5.023  1.00  0.00     0.042 A 
HETATM   13 CL   UNL     1      42.059 -16.487   6.552  1.00  0.00    -0.084 Cl
HETATM   14  C   UNL     1      43.678 -17.993   5.058  1.00  0.00     0.024 A 
HETATM   15  C   UNL     1      44.191 -18.513   3.875  1.00  0.00     0.002 A 
HETATM   16  C   UNL     1      43.662 -18.098   2.660  1.00  0.00     0.001 A 
HETATM   17  C   UNL     1      42.634 -17.150   2.623  1.00  0.00     0.011 A 
ENDBRANCH   6  11
ENDBRANCH   5   6
ENDBRANCH   2   5
BRANCH   1  18
HETATM   18  C   UNL     1      39.386 -12.604   0.314  1.00  0.00     0.107 C 
BRANCH  18  19
HETATM   19  C   UNL     1      39.640 -12.273  -1.152  1.00  0.00     0.052 C 
BRANCH  19  20
HETATM   20  C   UNL     1      38.416 -12.415  -1.990  1.00  0.00    -0.008 A 
HETATM   21  C   UNL     1      38.010 -13.511  -2.730  1.00  0.00     0.032 A 
HETATM   22  C   UNL     1      38.610 -14.850  -2.938  1.00  0.00     0.070 C 
HETATM   23  N   UNL     1      36.830 -13.148  -3.320  1.00  0.00    -0.282 N 
HETATM   24  H   UNL     1      36.239 -13.697  -3.936  1.00  0.00     0.189 HD
HETATM   25  N   UNL     1      36.442 -11.902  -3.018  1.00  0.00    -0.179 NA
HETATM   26  C   UNL     1      37.402 -11.442  -2.213  1.00  0.00     0.059 A 
HETATM   27  C   UNL     1      37.315 -10.063  -1.672  1.00  0.00     0.073 C 
ENDBRANCH  19  20
ENDBRANCH  18  19
ENDBRANCH   1  18
TORSDOF 7
ENDMDL
MODEL 10
REMARK VINA RESULT:      -6.8      3.960      5.306
REMARK  7 active torsions:
REMARK  status: ('A' for Active; 'I' for Inactive)
REMARK    1  A    between atoms: C_8  and  C_9 
REMARK    2  A    between atoms: C_9  and  C_10 
REMARK    3  A    between atoms: C_10  and  C_11 
REMARK       I    between atoms: C_11  and  N_12 
REMARK    4  A    between atoms: N_12  and  C_13 
REMARK    5  A    between atoms: C_13  and  C_14 
REMARK    6  A    between atoms: C_14  and  N_15 
REMARK    7  A    between atoms: C_14  and  C_19 
ROOT
HETATM    1  C   UNL     1      41.089 -15.217   2.000  1.00  0.00     0.217 C 
HETATM    2  N   UNL     1      40.376 -14.965   0.852  1.00  0.00    -0.359 N 
HETATM    3  O   UNL     1      41.309 -14.325   2.819  1.00  0.00    -0.274 OA
HETATM    4  H   UNL     1      40.481 -15.634   0.099  1.00  0.00     0.162 HD
ENDROOT
BRANCH   2   5
HETATM    5  C   UNL     1      39.992 -13.608   0.458  1.00  0.00     0.160 C 
BRANCH   5   6
HETATM    6  C   UNL     1      40.003 -13.276  -1.078  1.00  0.00     0.239 C 
BRANCH   6   7
HETATM    7  N   UNL     1      41.222 -12.435  -1.500  1.00  0.00    -0.069 N 
HETATM    8  H   UNL     1      42.019 -13.046  -1.275  1.00  0.00     0.279 HD
HETATM    9  C   UNL     1      41.376 -12.152  -2.963  1.00  0.00     0.270 C 
HETATM   10  C   UNL     1      41.460 -11.215  -0.654  1.00  0.00     0.270 C 
ENDBRANCH   6   7
BRANCH   6  11
HETATM   11  C   UNL     1      38.694 -12.768  -1.699  1.00  0.00    -0.004 A 
HETATM   12  C   UNL     1      37.939 -13.576  -2.581  1.00  0.00     0.042 A 
HETATM   13 CL   UNL     1      38.435 -15.183  -2.997  1.00  0.00    -0.084 Cl
HETATM   14  C   UNL     1      36.754 -13.117  -3.165  1.00  0.00     0.024 A 
HETATM   15  C   UNL     1      36.274 -11.847  -2.866  1.00  0.00     0.002 A 
HETATM   16  C   UNL     1      36.973 -11.044  -1.975  1.00  0.00     0.001 A 
HETATM   17  C   UNL     1      38.162 -11.499  -1.395  1.00  0.00     0.011 A 
ENDBRANCH   6  11
ENDBRANCH   5   6
ENDBRANCH   2   5
BRANCH   1  18
HETATM   18  C   UNL     1      41.498 -16.653   2.285  1.00  0.00     0.107 C 
BRANCH  18  19
HETATM   19  C   UNL     1      42.973 -16.996   2.110  1.00  0.00     0.052 C 
BRANCH  19  20
HETATM   20  C   UNL     1      43.477 -17.911   3.173  1.00  0.00    -0.008 A 
HETATM   21  C   UNL     1      43.821 -17.599   4.476  1.00  0.00     0.032 A 
HETATM   22  C   UNL     1      43.811 -16.323   5.230  1.00  0.00     0.070 C 
HETATM   23  N   UNL     1      44.225 -18.773   5.049  1.00  0.00    -0.282 N 
HETATM   24  H   UNL     1      44.549 -18.933   5.998  1.00  0.00     0.189 HD
HETATM   25  N   UNL     1      44.168 -19.822   4.217  1.00  0.00    -0.179 NA
HETATM   26  C   UNL     1      43.719 -19.310   3.069  1.00  0.00     0.059 A 
HETATM   27  C   UNL     1      43.531 -20.191   1.890  1.00  0.00     0.073 C 
ENDBRANCH  19  20
ENDBRANCH  18  19
ENDBRANCH   1  18
TORSDOF 7
ENDMDL
