MODEL 1
REMARK VINA RESULT:      -8.6      0.000      0.000
REMARK  10 active torsions:
REMARK  status: ('A' for Active; 'I' for Inactive)
REMARK    1  A    between atoms: N_2  and  C_4 
REMARK    2  A    between atoms: C_4  and  C_5 
REMARK    3  A    between atoms: C_5  and  C_6 
REMARK    4  A    between atoms: C_6  and  N_7 
REMARK       I    between atoms: N_7  and  C_8 
REMARK    5  A    between atoms: C_8  and  C_9 
REMARK    6  A    between atoms: C_9  and  N_10 
REMARK       I    between atoms: N_10  and  C_11 
REMARK    7  A    between atoms: C_11  and  C_12 
REMARK    8  A    between atoms: C_19  and  C_20 
REMARK    9  A    between atoms: C_21  and  C_22 
REMARK   10  A    between atoms: N_30  and  C_31 
ROOT
HETATM    1  C   UNL     1      39.624 -12.763   5.120  1.00  0.00     0.104 C 
HETATM    2  C   UNL     1      40.532 -13.310   5.951  1.00  0.00     0.050 C 
ENDROOT
BRANCH   1   3
HETATM    3  C   UNL     1      38.896 -11.566   5.641  1.00  0.00     0.268 C 
HETATM    4  N   UNL     1      38.851 -10.503   4.766  1.00  0.00    -0.356 N 
HETATM    5  H   UNL     1      39.469 -10.545   3.959  1.00  0.00     0.162 HD
HETATM    6  O   UNL     1      38.392 -11.557   6.757  1.00  0.00    -0.266 OA
BRANCH   4   7
HETATM    7  C   UNL     1      38.324  -9.214   5.166  1.00  0.00     0.124 C 
BRANCH   7   8
HETATM    8  C   UNL     1      39.399  -8.326   5.793  1.00  0.00     0.047 C 
BRANCH   8   9
HETATM    9  C   UNL     1      39.158  -8.097   7.283  1.00  0.00     0.235 C 
BRANCH   9  10
HETATM   10  N   UNL     1      39.893  -9.147   8.107  1.00  0.00    -0.079 N 
HETATM   11  C   UNL     1      39.984  -8.805   9.571  1.00  0.00     0.269 C 
HETATM   12  H   UNL     1      39.364 -10.027   8.034  1.00  0.00     0.278 HD
HETATM   13  C   UNL     1      41.261  -9.436   7.542  1.00  0.00     0.269 C 
ENDBRANCH   9  10
ENDBRANCH   8   9
ENDBRANCH   7   8
ENDBRANCH   4   7
ENDBRANCH   1   3
BRANCH   1  14
HETATM   14  N   UNL     1      39.428 -13.106   3.797  1.00  0.00    -0.318 N 
HETATM   15  C   UNL     1      40.162 -12.536   2.767  1.00  0.00     0.256 C 
HETATM   16  O   UNL     1      41.116 -11.781   2.935  1.00  0.00    -0.267 OA
HETATM   17  H   UNL     1      39.085 -14.048   3.620  1.00  0.00     0.169 HD
BRANCH  15  18
HETATM   18  C   UNL     1      39.822 -12.996   1.397  1.00  0.00     0.032 A 
HETATM   19  C   UNL     1      39.204 -12.141   0.476  1.00  0.00     0.017 A 
HETATM   20  C   UNL     1      38.921 -12.601  -0.812  1.00  0.00     0.001 A 
HETATM   21  C   UNL     1      39.251 -13.907  -1.180  1.00  0.00     0.000 A 
HETATM   22  C   UNL     1      39.876 -14.755  -0.266  1.00  0.00     0.001 A 
HETATM   23  C   UNL     1      40.169 -14.299   1.019  1.00  0.00     0.017 A 
ENDBRANCH  15  18
ENDBRANCH   1  14
BRANCH   2  24
HETATM   24  C   UNL     1      41.593 -14.183   5.575  1.00  0.00     0.015 A 
HETATM   25  C   UNL     1      42.998 -14.005   5.728  1.00  0.00     0.099 A 
HETATM   26  N   UNL     1      43.650 -15.075   5.251  1.00  0.00    -0.166 NA
HETATM   27  N   UNL     1      42.698 -15.910   4.760  1.00  0.00    -0.244 N 
HETATM   28  C   UNL     1      41.434 -15.416   4.991  1.00  0.00     0.132 A 
BRANCH  25  29
HETATM   29  C   UNL     1      43.751 -12.884   6.305  1.00  0.00    -0.005 A 
HETATM   30  C   UNL     1      43.567 -12.474   7.634  1.00  0.00     0.015 A 
HETATM   31  C   UNL     1      44.290 -11.398   8.161  1.00  0.00     0.020 A 
HETATM   32  C   UNL     1      45.218 -10.733   7.364  1.00  0.00     0.011 A 
HETATM   33 BR   UNL     1      46.199  -9.286   8.081  1.00  0.00    -0.051 Br
HETATM   34  C   UNL     1      45.430 -11.132   6.048  1.00  0.00     0.020 A 
HETATM   35  C   UNL     1      44.699 -12.203   5.524  1.00  0.00     0.015 A 
ENDBRANCH  25  29
BRANCH  27  36
HETATM   36  C   UNL     1      43.062 -17.129   4.124  1.00  0.00     0.058 A 
HETATM   37  C   UNL     1      43.838 -18.066   4.826  1.00  0.00     0.031 A 
HETATM   38  C   UNL     1      44.202 -19.272   4.225  1.00  0.00     0.002 A 
HETATM   39  C   UNL     1      43.802 -19.549   2.920  1.00  0.00     0.000 A 
HETATM   40  C   UNL     1      43.038 -18.621   2.213  1.00  0.00     0.002 A 
HETATM   41  C   UNL     1      42.665 -17.412   2.810  1.00  0.00     0.031 A 
ENDBRANCH  27  36
ENDBRANCH   2  24
TORSDOF 10
ENDMDL
MODEL 2
REMARK VINA RESULT:      -8.4      2.647      5.774
REMARK  10 active torsions:
REMARK  status: ('A' for Active; 'I' for Inactive)
REMARK    1  A    between atoms: N_2  and  C_4 
REMARK    2  A    between atoms: C_4  and  C_5 
REMARK    3  A    between atoms: C_5  and  C_6 
REMARK    4  A    between atoms: C_6  and  N_7 
REMARK       I    between atoms: N_7  and  C_8 
REMARK    5  A    between atoms: C_8  and  C_9 
REMARK    6  A    between atoms: C_9  and  N_10 
REMARK       I    between atoms: N_10  and  C_11 
REMARK    7  A    between atoms: C_11  and  C_12 
REMARK    8  A    between atoms: C_19  and  C_20 
REMARK    9  A    between atoms: C_21  and  C_22 
REMARK   10  A    between atoms: N_30  and  C_31 
ROOT
HETATM    1  C   UNL     1      40.340 -11.624   6.160  1.00  0.00     0.104 C 
HETATM    2  C   UNL     1      39.909 -12.303   5.080  1.00  0.00     0.050 C 
ENDROOT
BRANCH   1   3
HETATM    3  C   UNL     1      39.277 -11.096   7.070  1.00  0.00     0.268 C 
HETATM    4  N   UNL     1      39.755 -10.486   8.209  1.00  0.00    -0.356 N 
HETATM    5  H   UNL     1      40.739 -10.626   8.427  1.00  0.00     0.162 HD
HETATM    6  O   UNL     1      38.088 -11.212   6.803  1.00  0.00    -0.266 OA
BRANCH   4   7
HETATM    7  C   UNL     1      38.866 -10.060   9.271  1.00  0.00     0.124 C 
BRANCH   7   8
HETATM    8  C   UNL     1      39.580  -9.181  10.297  1.00  0.00     0.047 C 
BRANCH   8   9
HETATM    9  C   UNL     1      41.099  -9.301  10.198  1.00  0.00     0.235 C 
BRANCH   9  10
HETATM   10  N   UNL     1      41.636 -10.177  11.323  1.00  0.00    -0.079 N 
HETATM   11  C   UNL     1      40.876 -10.028  12.614  1.00  0.00     0.269 C 
HETATM   12  H   UNL     1      41.541 -11.159  11.027  1.00  0.00     0.278 HD
HETATM   13  C   UNL     1      43.111  -9.952  11.544  1.00  0.00     0.269 C 
ENDBRANCH   9  10
ENDBRANCH   8   9
ENDBRANCH   7   8
ENDBRANCH   4   7
ENDBRANCH   1   3
BRANCH   1  14
HETATM   14  N   UNL     1      41.651 -11.514   6.578  1.00  0.00    -0.318 N 
HETATM   15  C   UNL     1      42.377 -10.339   6.442  1.00  0.00     0.256 C 
HETATM   16  O   UNL     1      41.900  -9.274   6.060  1.00  0.00    -0.267 OA
HETATM   17  H   UNL     1      41.932 -12.114   7.350  1.00  0.00     0.169 HD
BRANCH  15  18
HETATM   18  C   UNL     1      43.780 -10.384   6.923  1.00  0.00     0.032 A 
HETATM   19  C   UNL     1      44.729 -11.216   6.317  1.00  0.00     0.017 A 
HETATM   20  C   UNL     1      46.047 -11.215   6.780  1.00  0.00     0.001 A 
HETATM   21  C   UNL     1      46.416 -10.389   7.844  1.00  0.00     0.000 A 
HETATM   22  C   UNL     1      45.473  -9.553   8.441  1.00  0.00     0.001 A 
HETATM   23  C   UNL     1      44.158  -9.543   7.976  1.00  0.00     0.017 A 
ENDBRANCH  15  18
ENDBRANCH   1  14
BRANCH   2  24
HETATM   24  C   UNL     1      40.684 -13.202   4.293  1.00  0.00     0.015 A 
HETATM   25  C   UNL     1      41.066 -13.097   2.925  1.00  0.00     0.099 A 
HETATM   26  N   UNL     1      41.808 -14.157   2.574  1.00  0.00    -0.166 NA
HETATM   27  N   UNL     1      41.871 -14.954   3.671  1.00  0.00    -0.244 N 
HETATM   28  C   UNL     1      41.240 -14.372   4.747  1.00  0.00     0.132 A 
BRANCH  25  29
HETATM   29  C   UNL     1      40.771 -12.048   1.940  1.00  0.00    -0.005 A 
HETATM   30  C   UNL     1      41.623 -10.948   1.752  1.00  0.00     0.015 A 
HETATM   31  C   UNL     1      41.319  -9.957   0.813  1.00  0.00     0.020 A 
HETATM   32  C   UNL     1      40.165 -10.066   0.041  1.00  0.00     0.011 A 
HETATM   33 BR   UNL     1      39.763  -8.730  -1.233  1.00  0.00    -0.051 Br
HETATM   34  C   UNL     1      39.315 -11.156   0.197  1.00  0.00     0.020 A 
HETATM   35  C   UNL     1      39.619 -12.141   1.143  1.00  0.00     0.015 A 
ENDBRANCH  25  29
BRANCH  27  36
HETATM   36  C   UNL     1      42.548 -16.204   3.620  1.00  0.00     0.058 A 
HETATM   37  C   UNL     1      43.285 -16.634   4.736  1.00  0.00     0.031 A 
HETATM   38  C   UNL     1      43.952 -17.859   4.711  1.00  0.00     0.002 A 
HETATM   39  C   UNL     1      43.897 -18.661   3.573  1.00  0.00     0.000 A 
HETATM   40  C   UNL     1      43.175 -18.237   2.458  1.00  0.00     0.002 A 
HETATM   41  C   UNL     1      42.500 -17.012   2.476  1.00  0.00     0.031 A 
ENDBRANCH  27  36
ENDBRANCH   2  24
TORSDOF 10
ENDMDL
MODEL 3
REMARK VINA RESULT:      -8.2      2.570      5.707
REMARK  10 active torsions:
REMARK  status: ('A' for Active; 'I' for Inactive)
REMARK    1  A    between atoms: N_2  and  C_4 
REMARK    2  A    between atoms: C_4  and  C_5 
REMARK    3  A    between atoms: C_5  and  C_6 
REMARK    4  A    between atoms: C_6  and  N_7 
REMARK       I    between atoms: N_7  and  C_8 
REMARK    5  A    between atoms: C_8  and  C_9 
REMARK    6  A    between atoms: C_9  and  N_10 
REMARK       I    between atoms: N_10  and  C_11 
REMARK    7  A    between atoms: C_11  and  C_12 
REMARK    8  A    between atoms: C_19  and  C_20 
REMARK    9  A    between atoms: C_21  and  C_22 
REMARK   10  A    between atoms: N_30  and  C_31 
ROOT
HETATM    1  C   UNL     1      40.364 -12.096   5.098  1.00  0.00     0.104 C 
HETATM    2  C   UNL     1      40.038 -12.988   4.143  1.00  0.00     0.050 C 
ENDROOT
BRANCH   1   3
HETATM    3  C   UNL     1      39.233 -11.298   5.663  1.00  0.00     0.268 C 
HETATM    4  N   UNL     1      38.894 -10.188   4.920  1.00  0.00    -0.356 N 
HETATM    5  H   UNL     1      39.548  -9.903   4.195  1.00  0.00     0.162 HD
HETATM    6  O   UNL     1      38.674 -11.623   6.703  1.00  0.00    -0.266 OA
BRANCH   4   7
HETATM    7  C   UNL     1      37.929  -9.220   5.401  1.00  0.00     0.124 C 
BRANCH   7   8
HETATM    8  C   UNL     1      38.571  -7.859   5.668  1.00  0.00     0.047 C 
BRANCH   8   9
HETATM    9  C   UNL     1      38.969  -7.688   7.132  1.00  0.00     0.235 C 
BRANCH   9  10
HETATM   10  N   UNL     1      40.362  -8.257   7.373  1.00  0.00    -0.079 N 
HETATM   11  C   UNL     1      40.437  -9.175   8.565  1.00  0.00     0.269 C 
HETATM   12  H   UNL     1      40.619  -8.814   6.546  1.00  0.00     0.278 HD
HETATM   13  C   UNL     1      41.396  -7.165   7.476  1.00  0.00     0.269 C 
ENDBRANCH   9  10
ENDBRANCH   8   9
ENDBRANCH   7   8
ENDBRANCH   4   7
ENDBRANCH   1   3
BRANCH   1  14
HETATM   14  N   UNL     1      41.599 -11.972   5.701  1.00  0.00    -0.318 N 
HETATM   15  C   UNL     1      42.337 -10.798   5.645  1.00  0.00     0.256 C 
HETATM   16  O   UNL     1      41.922  -9.745   5.171  1.00  0.00    -0.267 OA
HETATM   17  H   UNL     1      41.762 -12.552   6.522  1.00  0.00     0.169 HD
BRANCH  15  18
HETATM   18  C   UNL     1      43.655 -10.827   6.329  1.00  0.00     0.032 A 
HETATM   19  C   UNL     1      44.767 -11.435   5.736  1.00  0.00     0.017 A 
HETATM   20  C   UNL     1      45.997 -11.423   6.399  1.00  0.00     0.001 A 
HETATM   21  C   UNL     1      46.116 -10.807   7.646  1.00  0.00     0.000 A 
HETATM   22  C   UNL     1      45.010 -10.192   8.232  1.00  0.00     0.001 A 
HETATM   23  C   UNL     1      43.781 -10.194   7.571  1.00  0.00     0.017 A 
ENDBRANCH  15  18
ENDBRANCH   1  14
BRANCH   2  24
HETATM   24  C   UNL     1      40.827 -14.100   3.730  1.00  0.00     0.015 A 
HETATM   25  C   UNL     1      41.170 -14.516   2.412  1.00  0.00     0.099 A 
HETATM   26  N   UNL     1      41.945 -15.609   2.464  1.00  0.00    -0.166 NA
HETATM   27  N   UNL     1      42.068 -15.922   3.780  1.00  0.00    -0.244 N 
HETATM   28  C   UNL     1      41.442 -14.991   4.576  1.00  0.00     0.132 A 
BRANCH  25  29
HETATM   29  C   UNL     1      40.810 -13.933   1.113  1.00  0.00    -0.005 A 
HETATM   30  C   UNL     1      41.207 -12.638   0.747  1.00  0.00     0.015 A 
HETATM   31  C   UNL     1      40.846 -12.100  -0.493  1.00  0.00     0.020 A 
HETATM   32  C   UNL     1      40.096 -12.861  -1.385  1.00  0.00     0.011 A 
HETATM   33 BR   UNL     1      39.618 -12.134  -3.063  1.00  0.00    -0.051 Br
HETATM   34  C   UNL     1      39.705 -14.154  -1.051  1.00  0.00     0.020 A 
HETATM   35  C   UNL     1      40.062 -14.685   0.193  1.00  0.00     0.015 A 
ENDBRANCH  25  29
BRANCH  27  36
HETATM   36  C   UNL     1      42.793 -17.077   4.184  1.00  0.00     0.058 A 
HETATM   37  C   UNL     1      42.903 -17.378   5.552  1.00  0.00     0.031 A 
HETATM   38  C   UNL     1      43.604 -18.509   5.971  1.00  0.00     0.002 A 
HETATM   39  C   UNL     1      44.206 -19.345   5.033  1.00  0.00     0.000 A 
HETATM   40  C   UNL     1      44.108 -19.050   3.674  1.00  0.00     0.002 A 
HETATM   41  C   UNL     1      43.404 -17.920   3.245  1.00  0.00     0.031 A 
ENDBRANCH  27  36
ENDBRANCH   2  24
TORSDOF 10
ENDMDL
MODEL 4
REMARK VINA RESULT:      -8.1      2.794      6.323
REMARK  10 active torsions:
REMARK  status: ('A' for Active; 'I' for Inactive)
REMARK    1  A    between atoms: N_2  and  C_4 
REMARK    2  A    between atoms: C_4  and  C_5 
REMARK    3  A    between atoms: C_5  and  C_6 
REMARK    4  A    between atoms: C_6  and  N_7 
REMARK       I    between atoms: N_7  and  C_8 
REMARK    5  A    between atoms: C_8  and  C_9 
REMARK    6  A    between atoms: C_9  and  N_10 
REMARK       I    between atoms: N_10  and  C_11 
REMARK    7  A    between atoms: C_11  and  C_12 
REMARK    8  A    between atoms: C_19  and  C_20 
REMARK    9  A    between atoms: C_21  and  C_22 
REMARK   10  A    between atoms: N_30  and  C_31 
ROOT
HETATM    1  C   UNL     1      43.117 -12.144   4.324  1.00  0.00     0.104 C 
HETATM    2  C   UNL     1      43.196 -13.369   3.770  1.00  0.00     0.050 C 
ENDROOT
BRANCH   1   3
HETATM    3  C   UNL     1      44.358 -11.644   4.990  1.00  0.00     0.268 C 
HETATM    4  N   UNL     1      44.354 -11.764   6.363  1.00  0.00    -0.356 N 
HETATM    5  H   UNL     1      43.462 -11.979   6.802  1.00  0.00     0.162 HD
HETATM    6  O   UNL     1      45.286 -11.171   4.347  1.00  0.00    -0.266 OA
BRANCH   4   7
HETATM    7  C   UNL     1      45.406 -11.189   7.177  1.00  0.00     0.124 C 
BRANCH   7   8
HETATM    8  C   UNL     1      44.918  -9.978   7.970  1.00  0.00     0.047 C 
BRANCH   8   9
HETATM    9  C   UNL     1      43.445 -10.100   8.357  1.00  0.00     0.235 C 
BRANCH   9  10
HETATM   10  N   UNL     1      43.310 -10.361   9.852  1.00  0.00    -0.079 N 
HETATM   11  C   UNL     1      42.211  -9.563  10.504  1.00  0.00     0.269 C 
HETATM   12  H   UNL     1      43.077 -11.356   9.976  1.00  0.00     0.278 HD
HETATM   13  C   UNL     1      44.619 -10.150  10.571  1.00  0.00     0.269 C 
ENDBRANCH   9  10
ENDBRANCH   8   9
ENDBRANCH   7   8
ENDBRANCH   4   7
ENDBRANCH   1   3
BRANCH   1  14
HETATM   14  N   UNL     1      42.063 -11.262   4.191  1.00  0.00    -0.318 N 
HETATM   15  C   UNL     1      41.055 -11.164   5.139  1.00  0.00     0.256 C 
HETATM   16  O   UNL     1      41.064 -11.748   6.219  1.00  0.00    -0.267 OA
HETATM   17  H   UNL     1      42.247 -10.414   3.659  1.00  0.00     0.169 HD
BRANCH  15  18
HETATM   18  C   UNL     1      39.982 -10.181   4.846  1.00  0.00     0.032 A 
HETATM   19  C   UNL     1      39.352 -10.145   3.596  1.00  0.00     0.017 A 
HETATM   20  C   UNL     1      38.330  -9.222   3.363  1.00  0.00     0.001 A 
HETATM   21  C   UNL     1      37.938  -8.339   4.371  1.00  0.00     0.000 A 
HETATM   22  C   UNL     1      38.559  -8.381   5.619  1.00  0.00     0.001 A 
HETATM   23  C   UNL     1      39.574  -9.307   5.861  1.00  0.00     0.017 A 
ENDBRANCH  15  18
ENDBRANCH   1  14
BRANCH   2  24
HETATM   24  C   UNL     1      42.318 -13.899   2.782  1.00  0.00     0.015 A 
HETATM   25  C   UNL     1      42.060 -15.260   2.448  1.00  0.00     0.099 A 
HETATM   26  N   UNL     1      41.152 -15.325   1.463  1.00  0.00    -0.166 NA
HETATM   27  N   UNL     1      40.858 -14.041   1.134  1.00  0.00    -0.244 N 
HETATM   28  C   UNL     1      41.514 -13.153   1.956  1.00  0.00     0.132 A 
BRANCH  25  29
HETATM   29  C   UNL     1      42.620 -16.494   3.014  1.00  0.00    -0.005 A 
HETATM   30  C   UNL     1      43.069 -17.545   2.199  1.00  0.00     0.015 A 
HETATM   31  C   UNL     1      43.592 -18.715   2.761  1.00  0.00     0.020 A 
HETATM   32  C   UNL     1      43.686 -18.836   4.145  1.00  0.00     0.011 A 
HETATM   33 BR   UNL     1      44.403 -20.413   4.899  1.00  0.00    -0.051 Br
HETATM   34  C   UNL     1      43.264 -17.800   4.972  1.00  0.00     0.020 A 
HETATM   35  C   UNL     1      42.734 -16.635   4.406  1.00  0.00     0.015 A 
ENDBRANCH  25  29
BRANCH  27  36
HETATM   36  C   UNL     1      39.957 -13.755   0.072  1.00  0.00     0.058 A 
HETATM   37  C   UNL     1      39.772 -14.702  -0.949  1.00  0.00     0.031 A 
HETATM   38  C   UNL     1      38.888 -14.445  -1.998  1.00  0.00     0.002 A 
HETATM   39  C   UNL     1      38.187 -13.242  -2.040  1.00  0.00     0.000 A 
HETATM   40  C   UNL     1      38.370 -12.293  -1.035  1.00  0.00     0.002 A 
HETATM   41  C   UNL     1      39.252 -12.544   0.021  1.00  0.00     0.031 A 
ENDBRANCH  27  36
ENDBRANCH   2  24
TORSDOF 10
ENDMDL
MODEL 5
REMARK VINA RESULT:      -8.1      1.455      2.207
REMARK  10 active torsions:
REMARK  status: ('A' for Active; 'I' for Inactive)
REMARK    1  A    between atoms: N_2  and  C_4 
REMARK    2  A    between atoms: C_4  and  C_5 
REMARK    3  A    between atoms: C_5  and  C_6 
REMARK    4  A    between atoms: C_6  and  N_7 
REMARK       I    between atoms: N_7  and  C_8 
REMARK    5  A    between atoms: C_8  and  C_9 
REMARK    6  A    between atoms: C_9  and  N_10 
REMARK       I    between atoms: N_10  and  C_11 
REMARK    7  A    between atoms: C_11  and  C_12 
REMARK    8  A    between atoms: C_19  and  C_20 
REMARK    9  A    between atoms: C_21  and  C_22 
REMARK   10  A    between atoms: N_30  and  C_31 
ROOT
HETATM    1  C   UNL     1      39.953 -11.908   5.404  1.00  0.00     0.104 C 
HETATM    2  C   UNL     1      40.384 -12.997   6.069  1.00  0.00     0.050 C 
ENDROOT
BRANCH   1   3
HETATM    3  C   UNL     1      39.117 -10.949   6.188  1.00  0.00     0.268 C 
HETATM    4  N   UNL     1      39.772  -9.793   6.557  1.00  0.00    -0.356 N 
HETATM    5  H   UNL     1      40.784  -9.785   6.449  1.00  0.00     0.162 HD
HETATM    6  O   UNL     1      37.951 -11.194   6.469  1.00  0.00    -0.266 OA
BRANCH   4   7
HETATM    7  C   UNL     1      39.163  -8.830   7.451  1.00  0.00     0.124 C 
BRANCH   7   8
HETATM    8  C   UNL     1      39.862  -8.789   8.809  1.00  0.00     0.047 C 
BRANCH   8   9
HETATM    9  C   UNL     1      39.188  -9.702   9.831  1.00  0.00     0.235 C 
BRANCH   9  10
HETATM   10  N   UNL     1      40.198 -10.173  10.870  1.00  0.00    -0.079 N 
HETATM   11  C   UNL     1      39.659 -10.169  12.276  1.00  0.00     0.269 C 
HETATM   12  H   UNL     1      40.449 -11.145  10.644  1.00  0.00     0.278 HD
HETATM   13  C   UNL     1      41.482  -9.384  10.790  1.00  0.00     0.269 C 
ENDBRANCH   9  10
ENDBRANCH   8   9
ENDBRANCH   7   8
ENDBRANCH   4   7
ENDBRANCH   1   3
BRANCH   1  14
HETATM   14  N   UNL     1      40.342 -11.528   4.135  1.00  0.00    -0.318 N 
HETATM   15  C   UNL     1      39.782 -12.081   2.992  1.00  0.00     0.256 C 
HETATM   16  O   UNL     1      38.827 -12.852   2.995  1.00  0.00    -0.267 OA
HETATM   17  H   UNL     1      40.692 -10.578   4.034  1.00  0.00     0.169 HD
BRANCH  15  18
HETATM   18  C   UNL     1      40.318 -11.581   1.700  1.00  0.00     0.032 A 
HETATM   19  C   UNL     1      40.372 -12.403   0.569  1.00  0.00     0.017 A 
HETATM   20  C   UNL     1      40.861 -11.891  -0.635  1.00  0.00     0.001 A 
HETATM   21  C   UNL     1      41.294 -10.566  -0.711  1.00  0.00     0.000 A 
HETATM   22  C   UNL     1      41.231  -9.744   0.414  1.00  0.00     0.001 A 
HETATM   23  C   UNL     1      40.736 -10.247   1.618  1.00  0.00     0.017 A 
ENDBRANCH  15  18
ENDBRANCH   1  14
BRANCH   2  24
HETATM   24  C   UNL     1      41.469 -13.838   5.686  1.00  0.00     0.015 A 
HETATM   25  C   UNL     1      42.867 -13.635   5.863  1.00  0.00     0.099 A 
HETATM   26  N   UNL     1      43.547 -14.679   5.368  1.00  0.00    -0.166 NA
HETATM   27  N   UNL     1      42.620 -15.520   4.843  1.00  0.00    -0.244 N 
HETATM   28  C   UNL     1      41.343 -15.058   5.068  1.00  0.00     0.132 A 
BRANCH  25  29
HETATM   29  C   UNL     1      43.589 -12.514   6.480  1.00  0.00    -0.005 A 
HETATM   30  C   UNL     1      44.983 -12.390   6.387  1.00  0.00     0.015 A 
HETATM   31  C   UNL     1      45.650 -11.317   6.989  1.00  0.00     0.020 A 
HETATM   32  C   UNL     1      44.923 -10.348   7.675  1.00  0.00     0.011 A 
HETATM   33 BR   UNL     1      45.827  -8.896   8.478  1.00  0.00    -0.051 Br
HETATM   34  C   UNL     1      43.538 -10.441   7.765  1.00  0.00     0.020 A 
HETATM   35  C   UNL     1      42.876 -11.519   7.169  1.00  0.00     0.015 A 
ENDBRANCH  25  29
BRANCH  27  36
HETATM   36  C   UNL     1      43.018 -16.714   4.182  1.00  0.00     0.058 A 
HETATM   37  C   UNL     1      42.454 -17.031   2.934  1.00  0.00     0.031 A 
HETATM   38  C   UNL     1      42.834 -18.195   2.264  1.00  0.00     0.002 A 
HETATM   39  C   UNL     1      43.771 -19.054   2.834  1.00  0.00     0.000 A 
HETATM   40  C   UNL     1      44.329 -18.751   4.075  1.00  0.00     0.002 A 
HETATM   41  C   UNL     1      43.957 -17.584   4.752  1.00  0.00     0.031 A 
ENDBRANCH  27  36
ENDBRANCH   2  24
TORSDOF 10
ENDMDL
MODEL 6
REMARK VINA RESULT:      -7.5      2.789      7.999
REMARK  10 active torsions:
REMARK  status: ('A' for Active; 'I' for Inactive)
REMARK    1  A    between atoms: N_2  and  C_4 
REMARK    2  A    between atoms: C_4  and  C_5 
REMARK    3  A    between atoms: C_5  and  C_6 
REMARK    4  A    between atoms: C_6  and  N_7 
REMARK       I    between atoms: N_7  and  C_8 
REMARK    5  A    between atoms: C_8  and  C_9 
REMARK    6  A    between atoms: C_9  and  N_10 
REMARK       I    between atoms: N_10  and  C_11 
REMARK    7  A    between atoms: C_11  and  C_12 
REMARK    8  A    between atoms: C_19  and  C_20 
REMARK    9  A    between atoms: C_21  and  C_22 
REMARK   10  A    between atoms: N_30  and  C_31 
ROOT
HETATM    1  C   UNL     1      41.742 -14.153   3.533  1.00  0.00     0.104 C 
HETATM    2  C   UNL     1      40.901 -13.654   2.607  1.00  0.00     0.050 C 
ENDROOT
BRANCH   1   3
HETATM    3  C   UNL     1      41.748 -15.640   3.680  1.00  0.00     0.268 C 
HETATM    4  N   UNL     1      42.546 -16.299   2.770  1.00  0.00    -0.356 N 
HETATM    5  H   UNL     1      42.883 -15.756   1.978  1.00  0.00     0.162 HD
HETATM    6  O   UNL     1      41.088 -16.202   4.545  1.00  0.00    -0.266 OA
BRANCH   4   7
HETATM    7  C   UNL     1      42.546 -17.744   2.669  1.00  0.00     0.124 C 
BRANCH   7   8
HETATM    8  C   UNL     1      43.920 -18.338   2.977  1.00  0.00     0.047 C 
BRANCH   8   9
HETATM    9  C   UNL     1      44.382 -18.012   4.396  1.00  0.00     0.235 C 
BRANCH   9  10
HETATM   10  N   UNL     1      43.496 -18.714   5.417  1.00  0.00    -0.079 N 
HETATM   11  C   UNL     1      43.382 -17.972   6.723  1.00  0.00     0.269 C 
HETATM   12  H   UNL     1      42.548 -18.775   5.020  1.00  0.00     0.278 HD
HETATM   13  C   UNL     1      43.940 -20.136   5.650  1.00  0.00     0.269 C 
ENDBRANCH   9  10
ENDBRANCH   8   9
ENDBRANCH   7   8
ENDBRANCH   4   7
ENDBRANCH   1   3
BRANCH   1  14
HETATM   14  N   UNL     1      42.696 -13.437   4.229  1.00  0.00    -0.318 N 
HETATM   15  C   UNL     1      42.538 -13.097   5.565  1.00  0.00     0.256 C 
HETATM   16  O   UNL     1      41.617 -13.492   6.274  1.00  0.00    -0.267 OA
HETATM   17  H   UNL     1      43.658 -13.542   3.915  1.00  0.00     0.169 HD
BRANCH  15  18
HETATM   18  C   UNL     1      43.644 -12.311   6.169  1.00  0.00     0.032 A 
HETATM   19  C   UNL     1      43.621 -11.944   7.519  1.00  0.00     0.017 A 
HETATM   20  C   UNL     1      44.690 -11.225   8.059  1.00  0.00     0.001 A 
HETATM   21  C   UNL     1      45.777 -10.874   7.256  1.00  0.00     0.000 A 
HETATM   22  C   UNL     1      45.804 -11.249   5.912  1.00  0.00     0.001 A 
HETATM   23  C   UNL     1      44.743 -11.974   5.370  1.00  0.00     0.017 A 
ENDBRANCH  15  18
ENDBRANCH   1  14
BRANCH   2  24
HETATM   24  C   UNL     1      40.975 -12.358   2.020  1.00  0.00     0.015 A 
HETATM   25  C   UNL     1      40.808 -11.084   2.633  1.00  0.00     0.099 A 
HETATM   26  N   UNL     1      40.972 -10.113   1.724  1.00  0.00    -0.166 NA
HETATM   27  N   UNL     1      41.196 -10.738   0.540  1.00  0.00    -0.244 N 
HETATM   28  C   UNL     1      41.256 -12.104   0.700  1.00  0.00     0.132 A 
BRANCH  25  29
HETATM   29  C   UNL     1      40.510 -10.740   4.030  1.00  0.00    -0.005 A 
HETATM   30  C   UNL     1      41.328  -9.873   4.770  1.00  0.00     0.015 A 
HETATM   31  C   UNL     1      41.028  -9.565   6.102  1.00  0.00     0.020 A 
HETATM   32  C   UNL     1      39.895 -10.111   6.700  1.00  0.00     0.011 A 
HETATM   33 BR   UNL     1      39.489  -9.686   8.495  1.00  0.00    -0.051 Br
HETATM   34  C   UNL     1      39.060 -10.960   5.980  1.00  0.00     0.020 A 
HETATM   35  C   UNL     1      39.368 -11.271   4.651  1.00  0.00     0.015 A 
ENDBRANCH  25  29
BRANCH  27  36
HETATM   36  C   UNL     1      41.359  -9.986  -0.656  1.00  0.00     0.058 A 
HETATM   37  C   UNL     1      40.760 -10.440  -1.843  1.00  0.00     0.031 A 
HETATM   38  C   UNL     1      40.900  -9.716  -3.027  1.00  0.00     0.002 A 
HETATM   39  C   UNL     1      41.644  -8.538  -3.040  1.00  0.00     0.000 A 
HETATM   40  C   UNL     1      42.249  -8.083  -1.868  1.00  0.00     0.002 A 
HETATM   41  C   UNL     1      42.109  -8.802  -0.676  1.00  0.00     0.031 A 
ENDBRANCH  27  36
ENDBRANCH   2  24
TORSDOF 10
ENDMDL
MODEL 7
REMARK VINA RESULT:      -7.3      2.770      9.019
REMARK  10 active torsions:
REMARK  status: ('A' for Active; 'I' for Inactive)
REMARK    1  A    between atoms: N_2  and  C_4 
REMARK    2  A    between atoms: C_4  and  C_5 
REMARK    3  A    between atoms: C_5  and  C_6 
REMARK    4  A    between atoms: C_6  and  N_7 
REMARK       I    between atoms: N_7  and  C_8 
REMARK    5  A    between atoms: C_8  and  C_9 
REMARK    6  A    between atoms: C_9  and  N_10 
REMARK       I    between atoms: N_10  and  C_11 
REMARK    7  A    between atoms: C_11  and  C_12 
REMARK    8  A    between atoms: C_19  and  C_20 
REMARK    9  A    between atoms: C_21  and  C_22 
REMARK   10  A    between atoms: N_30  and  C_31 
ROOT
HETATM    1  C   UNL     1      40.963 -13.727   5.161  1.00  0.00     0.104 C 
HETATM    2  C   UNL     1      39.835 -13.300   4.560  1.00  0.00     0.050 C 
ENDROOT
BRANCH   1   3
HETATM    3  C   UNL     1      41.386 -15.125   4.843  1.00  0.00     0.268 C 
HETATM    4  N   UNL     1      41.384 -15.428   3.498  1.00  0.00    -0.356 N 
HETATM    5  H   UNL     1      40.915 -14.770   2.880  1.00  0.00     0.162 HD
HETATM    6  O   UNL     1      41.700 -15.917   5.722  1.00  0.00    -0.266 OA
BRANCH   4   7
HETATM    7  C   UNL     1      41.615 -16.778   3.025  1.00  0.00     0.124 C 
BRANCH   7   8
HETATM    8  C   UNL     1      43.103 -17.076   2.851  1.00  0.00     0.047 C 
BRANCH   8   9
HETATM    9  C   UNL     1      43.353 -18.514   2.401  1.00  0.00     0.235 C 
BRANCH   9  10
HETATM   10  N   UNL     1      44.211 -19.248   3.424  1.00  0.00    -0.079 N 
HETATM   11  C   UNL     1      43.831 -20.695   3.597  1.00  0.00     0.269 C 
HETATM   12  H   UNL     1      45.184 -19.229   3.088  1.00  0.00     0.278 HD
HETATM   13  C   UNL     1      44.217 -18.537   4.754  1.00  0.00     0.269 C 
ENDBRANCH   9  10
ENDBRANCH   8   9
ENDBRANCH   7   8
ENDBRANCH   4   7
ENDBRANCH   1   3
BRANCH   1  14
HETATM   14  N   UNL     1      41.830 -12.949   5.901  1.00  0.00    -0.318 N 
HETATM   15  C   UNL     1      42.950 -12.352   5.343  1.00  0.00     0.256 C 
HETATM   16  O   UNL     1      43.208 -12.355   4.143  1.00  0.00    -0.267 OA
HETATM   17  H   UNL     1      41.431 -12.467   6.704  1.00  0.00     0.169 HD
BRANCH  15  18
HETATM   18  C   UNL     1      43.794 -11.560   6.273  1.00  0.00     0.032 A 
HETATM   19  C   UNL     1      45.185 -11.713   6.301  1.00  0.00     0.017 A 
HETATM   20  C   UNL     1      45.949 -10.934   7.173  1.00  0.00     0.001 A 
HETATM   21  C   UNL     1      45.330 -10.007   8.012  1.00  0.00     0.000 A 
HETATM   22  C   UNL     1      43.945  -9.847   7.977  1.00  0.00     0.001 A 
HETATM   23  C   UNL     1      43.177 -10.616   7.103  1.00  0.00     0.017 A 
ENDBRANCH  15  18
ENDBRANCH   1  14
BRANCH   2  24
HETATM   24  C   UNL     1      39.438 -11.942   4.394  1.00  0.00     0.015 A 
HETATM   25  C   UNL     1      39.279 -11.195   3.192  1.00  0.00     0.099 A 
HETATM   26  N   UNL     1      38.876  -9.948   3.478  1.00  0.00    -0.166 NA
HETATM   27  N   UNL     1      38.816  -9.872   4.832  1.00  0.00    -0.244 N 
HETATM   28  C   UNL     1      39.102 -11.087   5.414  1.00  0.00     0.132 A 
BRANCH  25  29
HETATM   29  C   UNL     1      39.482 -11.599   1.794  1.00  0.00    -0.005 A 
HETATM   30  C   UNL     1      38.430 -11.605   0.865  1.00  0.00     0.015 A 
HETATM   31  C   UNL     1      38.645 -12.001  -0.460  1.00  0.00     0.020 A 
HETATM   32  C   UNL     1      39.921 -12.379  -0.870  1.00  0.00     0.011 A 
HETATM   33 BR   UNL     1      40.209 -12.904  -2.662  1.00  0.00    -0.051 Br
HETATM   34  C   UNL     1      40.983 -12.363   0.029  1.00  0.00     0.020 A 
HETATM   35  C   UNL     1      40.761 -11.974   1.354  1.00  0.00     0.015 A 
ENDBRANCH  25  29
BRANCH  27  36
HETATM   36  C   UNL     1      38.469  -8.651   5.474  1.00  0.00     0.058 A 
HETATM   37  C   UNL     1      39.164  -8.259   6.630  1.00  0.00     0.031 A 
HETATM   38  C   UNL     1      38.845  -7.062   7.272  1.00  0.00     0.002 A 
HETATM   39  C   UNL     1      37.828  -6.251   6.773  1.00  0.00     0.000 A 
HETATM   40  C   UNL     1      37.128  -6.637   5.631  1.00  0.00     0.002 A 
HETATM   41  C   UNL     1      37.444  -7.834   4.978  1.00  0.00     0.031 A 
ENDBRANCH  27  36
ENDBRANCH   2  24
TORSDOF 10
ENDMDL
MODEL 8
REMARK VINA RESULT:      -7.3      2.785      7.461
REMARK  10 active torsions:
REMARK  status: ('A' for Active; 'I' for Inactive)
REMARK    1  A    between atoms: N_2  and  C_4 
REMARK    2  A    between atoms: C_4  and  C_5 
REMARK    3  A    between atoms: C_5  and  C_6 
REMARK    4  A    between atoms: C_6  and  N_7 
REMARK       I    between atoms: N_7  and  C_8 
REMARK    5  A    between atoms: C_8  and  C_9 
REMARK    6  A    between atoms: C_9  and  N_10 
REMARK       I    between atoms: N_10  and  C_11 
REMARK    7  A    between atoms: C_11  and  C_12 
REMARK    8  A    between atoms: C_19  and  C_20 
REMARK    9  A    between atoms: C_21  and  C_22 
REMARK   10  A    between atoms: N_30  and  C_31 
ROOT
HETATM    1  C   UNL     1      40.304 -11.432   2.493  1.00  0.00     0.104 C 
HETATM    2  C   UNL     1      41.399 -12.213   2.567  1.00  0.00     0.050 C 
ENDROOT
BRANCH   1   3
HETATM    3  C   UNL     1      39.277 -11.837   1.485  1.00  0.00     0.268 C 
HETATM    4  N   UNL     1      38.714 -10.787   0.793  1.00  0.00    -0.356 N 
HETATM    5  H   UNL     1      38.886  -9.853   1.158  1.00  0.00     0.162 HD
HETATM    6  O   UNL     1      38.978 -13.011   1.310  1.00  0.00    -0.266 OA
BRANCH   4   7
HETATM    7  C   UNL     1      37.595 -10.985  -0.105  1.00  0.00     0.124 C 
BRANCH   7   8
HETATM    8  C   UNL     1      38.054 -11.316  -1.525  1.00  0.00     0.047 C 
BRANCH   8   9
HETATM    9  C   UNL     1      37.712 -12.751  -1.920  1.00  0.00     0.235 C 
BRANCH   9  10
HETATM   10  N   UNL     1      38.931 -13.650  -1.760  1.00  0.00    -0.079 N 
HETATM   11  C   UNL     1      40.236 -12.938  -1.998  1.00  0.00     0.269 C 
HETATM   12  H   UNL     1      38.944 -13.989  -0.788  1.00  0.00     0.278 HD
HETATM   13  C   UNL     1      38.830 -14.880  -2.627  1.00  0.00     0.269 C 
ENDBRANCH   9  10
ENDBRANCH   8   9
ENDBRANCH   7   8
ENDBRANCH   4   7
ENDBRANCH   1   3
BRANCH   1  14
HETATM   14  N   UNL     1      39.981 -10.407   3.360  1.00  0.00    -0.318 N 
HETATM   15  C   UNL     1      39.263 -10.623   4.527  1.00  0.00     0.256 C 
HETATM   16  O   UNL     1      38.958 -11.732   4.955  1.00  0.00    -0.267 OA
HETATM   17  H   UNL     1      40.617  -9.613   3.378  1.00  0.00     0.169 HD
BRANCH  15  18
HETATM   18  C   UNL     1      38.979  -9.417   5.346  1.00  0.00     0.032 A 
HETATM   19  C   UNL     1      39.576  -9.233   6.598  1.00  0.00     0.017 A 
HETATM   20  C   UNL     1      39.304  -8.074   7.330  1.00  0.00     0.001 A 
HETATM   21  C   UNL     1      38.442  -7.105   6.816  1.00  0.00     0.000 A 
HETATM   22  C   UNL     1      37.855  -7.284   5.563  1.00  0.00     0.001 A 
HETATM   23  C   UNL     1      38.129  -8.434   4.823  1.00  0.00     0.017 A 
ENDBRANCH  15  18
ENDBRANCH   1  14
BRANCH   2  24
HETATM   24  C   UNL     1      42.313 -12.273   3.659  1.00  0.00     0.015 A 
HETATM   25  C   UNL     1      43.055 -13.387   4.147  1.00  0.00     0.099 A 
HETATM   26  N   UNL     1      43.811 -13.012   5.189  1.00  0.00    -0.166 NA
HETATM   27  N   UNL     1      43.536 -11.699   5.401  1.00  0.00    -0.244 N 
HETATM   28  C   UNL     1      42.667 -11.211   4.452  1.00  0.00     0.132 A 
BRANCH  25  29
HETATM   29  C   UNL     1      43.089 -14.778   3.677  1.00  0.00    -0.005 A 
HETATM   30  C   UNL     1      43.228 -15.098   2.318  1.00  0.00     0.015 A 
HETATM   31  C   UNL     1      43.251 -16.431   1.893  1.00  0.00     0.020 A 
HETATM   32  C   UNL     1      43.152 -17.457   2.829  1.00  0.00     0.011 A 
HETATM   33 BR   UNL     1      43.193 -19.256   2.251  1.00  0.00    -0.051 Br
HETATM   34  C   UNL     1      43.031 -17.164   4.183  1.00  0.00     0.020 A 
HETATM   35  C   UNL     1      43.001 -15.830   4.603  1.00  0.00     0.015 A 
ENDBRANCH  25  29
BRANCH  27  36
HETATM   36  C   UNL     1      44.140 -11.000   6.483  1.00  0.00     0.058 A 
HETATM   37  C   UNL     1      43.340 -10.206   7.322  1.00  0.00     0.031 A 
HETATM   38  C   UNL     1      43.909  -9.515   8.392  1.00  0.00     0.002 A 
HETATM   39  C   UNL     1      45.278  -9.605   8.632  1.00  0.00     0.000 A 
HETATM   40  C   UNL     1      46.081 -10.385   7.800  1.00  0.00     0.002 A 
HETATM   41  C   UNL     1      45.518 -11.083   6.726  1.00  0.00     0.031 A 
ENDBRANCH  27  36
ENDBRANCH   2  24
TORSDOF 10
ENDMDL
MODEL 9
REMARK VINA RESULT:      -7.2      2.872      8.831
REMARK  10 active torsions:
REMARK  status: ('A' for Active; 'I' for Inactive)
REMARK    1  A    between atoms: N_2  and  C_4 
REMARK    2  A    between atoms: C_4  and  C_5 
REMARK    3  A    between atoms: C_5  and  C_6 
REMARK    4  A    between atoms: C_6  and  N_7 
REMARK       I    between atoms: N_7  and  C_8 
REMARK    5  A    between atoms: C_8  and  C_9 
REMARK    6  A    between atoms: C_9  and  N_10 
REMARK       I    between atoms: N_10  and  C_11 
REMARK    7  A    between atoms: C_11  and  C_12 
REMARK    8  A    between atoms: C_19  and  C_20 
REMARK    9  A    between atoms: C_21  and  C_22 
REMARK   10  A    between atoms: N_30  and  C_31 
ROOT
HETATM    1  C   UNL     1      40.970 -12.886   5.989  1.00  0.00     0.104 C 
HETATM    2  C   UNL     1      39.835 -12.356   5.493  1.00  0.00     0.050 C 
ENDROOT
BRANCH   1   3
HETATM    3  C   UNL     1      41.238 -14.313   5.631  1.00  0.00     0.268 C 
HETATM    4  N   UNL     1      40.598 -14.743   4.489  1.00  0.00    -0.356 N 
HETATM    5  H   UNL     1      39.865 -14.142   4.120  1.00  0.00     0.162 HD
HETATM    6  O   UNL     1      41.967 -15.020   6.315  1.00  0.00    -0.266 OA
BRANCH   4   7
HETATM    7  C   UNL     1      40.621 -16.134   4.086  1.00  0.00     0.124 C 
BRANCH   7   8
HETATM    8  C   UNL     1      40.852 -16.289   2.583  1.00  0.00     0.047 C 
BRANCH   8   9
HETATM    9  C   UNL     1      41.103 -14.947   1.897  1.00  0.00     0.235 C 
BRANCH   9  10
HETATM   10  N   UNL     1      42.560 -14.838   1.464  1.00  0.00    -0.079 N 
HETATM   11  C   UNL     1      43.294 -16.153   1.493  1.00  0.00     0.269 C 
HETATM   12  H   UNL     1      42.572 -14.506   0.489  1.00  0.00     0.278 HD
HETATM   13  C   UNL     1      43.299 -13.797   2.266  1.00  0.00     0.269 C 
ENDBRANCH   9  10
ENDBRANCH   8   9
ENDBRANCH   7   8
ENDBRANCH   4   7
ENDBRANCH   1   3
BRANCH   1  14
HETATM   14  N   UNL     1      41.965 -12.194   6.650  1.00  0.00    -0.318 N 
HETATM   15  C   UNL     1      43.022 -11.597   5.979  1.00  0.00     0.256 C 
HETATM   16  O   UNL     1      43.110 -11.521   4.757  1.00  0.00    -0.267 OA
HETATM   17  H   UNL     1      41.704 -11.758   7.531  1.00  0.00     0.169 HD
BRANCH  15  18
HETATM   18  C   UNL     1      44.021 -10.904   6.832  1.00  0.00     0.032 A 
HETATM   19  C   UNL     1      45.371 -11.272   6.814  1.00  0.00     0.017 A 
HETATM   20  C   UNL     1      46.287 -10.582   7.611  1.00  0.00     0.001 A 
HETATM   21  C   UNL     1      45.859  -9.530   8.423  1.00  0.00     0.000 A 
HETATM   22  C   UNL     1      44.515  -9.157   8.433  1.00  0.00     0.001 A 
HETATM   23  C   UNL     1      43.597  -9.836   7.632  1.00  0.00     0.017 A 
ENDBRANCH  15  18
ENDBRANCH   1  14
BRANCH   2  24
HETATM   24  C   UNL     1      39.545 -10.968   5.366  1.00  0.00     0.015 A 
HETATM   25  C   UNL     1      39.576 -10.147   4.202  1.00  0.00     0.099 A 
HETATM   26  N   UNL     1      39.220  -8.893   4.516  1.00  0.00    -0.166 NA
HETATM   27  N   UNL     1      39.006  -8.886   5.857  1.00  0.00    -0.244 N 
HETATM   28  C   UNL     1      39.145 -10.147   6.392  1.00  0.00     0.132 A 
BRANCH  25  29
HETATM   29  C   UNL     1      39.916 -10.489   2.814  1.00  0.00    -0.005 A 
HETATM   30  C   UNL     1      39.042 -11.220   1.996  1.00  0.00     0.015 A 
HETATM   31  C   UNL     1      39.390 -11.540   0.679  1.00  0.00     0.020 A 
HETATM   32  C   UNL     1      40.612 -11.116   0.165  1.00  0.00     0.011 A 
HETATM   33 BR   UNL     1      41.075 -11.543  -1.617  1.00  0.00    -0.051 Br
HETATM   34  C   UNL     1      41.488 -10.376   0.952  1.00  0.00     0.020 A 
HETATM   35  C   UNL     1      41.139 -10.065   2.270  1.00  0.00     0.015 A 
ENDBRANCH  25  29
BRANCH  27  36
HETATM   36  C   UNL     1      38.663  -7.680   6.528  1.00  0.00     0.058 A 
HETATM   37  C   UNL     1      37.923  -6.699   5.847  1.00  0.00     0.031 A 
HETATM   38  C   UNL     1      37.569  -5.511   6.487  1.00  0.00     0.002 A 
HETATM   39  C   UNL     1      37.956  -5.287   7.806  1.00  0.00     0.000 A 
HETATM   40  C   UNL     1      38.697  -6.252   8.487  1.00  0.00     0.002 A 
HETATM   41  C   UNL     1      39.053  -7.448   7.854  1.00  0.00     0.031 A 
ENDBRANCH  27  36
ENDBRANCH   2  24
TORSDOF 10
ENDMDL
MODEL 10
REMARK VINA RESULT:      -7.0     17.714     19.668
REMARK  10 active torsions:
REMARK  status: ('A' for Active; 'I' for Inactive)
REMARK    1  A    between atoms: N_2  and  C_4 
REMARK    2  A    between atoms: C_4  and  C_5 
REMARK    3  A    between atoms: C_5  and  C_6 
REMARK    4  A    between atoms: C_6  and  N_7 
REMARK       I    between atoms: N_7  and  C_8 
REMARK    5  A    between atoms: C_8  and  C_9 
REMARK    6  A    between atoms: C_9  and  N_10 
REMARK       I    between atoms: N_10  and  C_11 
REMARK    7  A    between atoms: C_11  and  C_12 
REMARK    8  A    between atoms: C_19  and  C_20 
REMARK    9  A    between atoms: C_21  and  C_22 
REMARK   10  A    between atoms: N_30  and  C_31 
ROOT
HETATM    1  C   UNL     1      46.568 -30.753   3.384  1.00  0.00     0.104 C 
HETATM    2  C   UNL     1      45.323 -30.290   3.161  1.00  0.00     0.050 C 
ENDROOT
BRANCH   1   3
HETATM    3  C   UNL     1      46.851 -31.233   4.771  1.00  0.00     0.268 C 
HETATM    4  N   UNL     1      45.731 -31.607   5.482  1.00  0.00    -0.356 N 
HETATM    5  H   UNL     1      44.830 -31.338   5.094  1.00  0.00     0.162 HD
HETATM    6  O   UNL     1      47.991 -31.278   5.215  1.00  0.00    -0.266 OA
BRANCH   4   7
HETATM    7  C   UNL     1      45.806 -31.947   6.888  1.00  0.00     0.124 C 
BRANCH   7   8
HETATM    8  C   UNL     1      44.679 -32.889   7.309  1.00  0.00     0.047 C 
BRANCH   8   9
HETATM    9  C   UNL     1      43.465 -32.131   7.843  1.00  0.00     0.235 C 
BRANCH   9  10
HETATM   10  N   UNL     1      42.207 -32.979   7.704  1.00  0.00    -0.079 N 
HETATM   11  C   UNL     1      42.217 -33.871   6.490  1.00  0.00     0.269 C 
HETATM   12  H   UNL     1      42.149 -33.592   8.529  1.00  0.00     0.278 HD
HETATM   13  C   UNL     1      40.961 -32.130   7.730  1.00  0.00     0.269 C 
ENDBRANCH   9  10
ENDBRANCH   8   9
ENDBRANCH   7   8
ENDBRANCH   4   7
ENDBRANCH   1   3
BRANCH   1  14
HETATM   14  N   UNL     1      47.536 -30.967   2.423  1.00  0.00    -0.318 N 
HETATM   15  C   UNL     1      48.495 -30.015   2.111  1.00  0.00     0.256 C 
HETATM   16  O   UNL     1      48.650 -28.964   2.727  1.00  0.00    -0.267 OA
HETATM   17  H   UNL     1      47.813 -31.934   2.269  1.00  0.00     0.169 HD
BRANCH  15  18
HETATM   18  C   UNL     1      49.456 -30.388   1.043  1.00  0.00     0.032 A 
HETATM   19  C   UNL     1      50.486 -31.305   1.281  1.00  0.00     0.017 A 
HETATM   20  C   UNL     1      51.358 -31.652   0.246  1.00  0.00     0.001 A 
HETATM   21  C   UNL     1      51.204 -31.085  -1.021  1.00  0.00     0.000 A 
HETATM   22  C   UNL     1      50.171 -30.178  -1.261  1.00  0.00     0.001 A 
HETATM   23  C   UNL     1      49.292 -29.835  -0.233  1.00  0.00     0.017 A 
ENDBRANCH  15  18
ENDBRANCH   1  14
BRANCH   2  24
HETATM   24  C   UNL     1      44.701 -30.139   1.888  1.00  0.00     0.015 A 
HETATM   25  C   UNL     1      43.380 -30.490   1.488  1.00  0.00     0.099 A 
HETATM   26  N   UNL     1      43.190 -30.167   0.201  1.00  0.00    -0.166 NA
HETATM   27  N   UNL     1      44.370 -29.658  -0.238  1.00  0.00    -0.244 N 
HETATM   28  C   UNL     1      45.291 -29.580   0.782  1.00  0.00     0.132 A 
BRANCH  25  29
HETATM   29  C   UNL     1      42.292 -31.108   2.259  1.00  0.00    -0.005 A 
HETATM   30  C   UNL     1      41.767 -32.365   1.923  1.00  0.00     0.015 A 
HETATM   31  C   UNL     1      40.726 -32.930   2.667  1.00  0.00     0.020 A 
HETATM   32  C   UNL     1      40.211 -32.247   3.765  1.00  0.00     0.011 A 
HETATM   33 BR   UNL     1      38.810 -33.018   4.773  1.00  0.00    -0.051 Br
HETATM   34  C   UNL     1      40.727 -31.006   4.127  1.00  0.00     0.020 A 
HETATM   35  C   UNL     1      41.763 -30.442   3.376  1.00  0.00     0.015 A 
ENDBRANCH  25  29
BRANCH  27  36
HETATM   36  C   UNL     1      44.526 -29.262  -1.595  1.00  0.00     0.058 A 
HETATM   37  C   UNL     1      43.965 -30.052  -2.612  1.00  0.00     0.031 A 
HETATM   38  C   UNL     1      44.101 -29.681  -3.951  1.00  0.00     0.002 A 
HETATM   39  C   UNL     1      44.801 -28.524  -4.286  1.00  0.00     0.000 A 
HETATM   40  C   UNL     1      45.368 -27.738  -3.283  1.00  0.00     0.002 A 
HETATM   41  C   UNL     1      45.233 -28.102  -1.939  1.00  0.00     0.031 A 
ENDBRANCH  27  36
ENDBRANCH   2  24
TORSDOF 10
ENDMDL
