MODEL 1
REMARK VINA RESULT:      -8.5      0.000      0.000
REMARK  6 active torsions:
REMARK  status: ('A' for Active; 'I' for Inactive)
REMARK    1  A    between atoms: C_4  and  O_5 
REMARK    2  A    between atoms: O_5  and  C_6 
REMARK    3  A    between atoms: C_6  and  C_7 
REMARK       I    between atoms: C_7  and  N_8 
REMARK    4  A    between atoms: N_8  and  N_9 
REMARK    5  A    between atoms: C_10  and  C_11 
REMARK    6  A    between atoms: C_23  and  C_24 
ROOT
HETATM    1  C   UNL     1      41.432 -15.366   6.580  1.00  0.00     0.261 C 
HETATM    2  N   UNL     1      41.925 -14.126   6.186  1.00  0.00    -0.246 N 
HETATM    3  O   UNL     1      41.837 -16.036   7.528  1.00  0.00    -0.269 OA
HETATM    4  H   UNL     1      41.336 -13.568   5.569  1.00  0.00     0.192 HD
ENDROOT
BRANCH   2   5
HETATM    5  N   UNL     1      42.960 -13.423   6.765  1.00  0.00    -0.184 NA
HETATM    6  C   UNL     1      43.354 -12.319   6.217  1.00  0.00     0.152 C 
BRANCH   6   7
HETATM    7  C   UNL     1      44.444 -11.556   6.797  1.00  0.00     0.011 A 
HETATM    8  C   UNL     1      44.554 -10.902   8.068  1.00  0.00     0.005 A 
HETATM    9  C   UNL     1      45.811 -10.290   8.116  1.00  0.00     0.043 A 
HETATM   10  C   UNL     1      43.701 -10.754   9.183  1.00  0.00     0.033 A 
HETATM   11  C   UNL     1      46.259  -9.546   9.214  1.00  0.00     0.031 A 
HETATM   12  N   UNL     1      46.445 -10.570   6.929  1.00  0.00    -0.364 N 
HETATM   13  C   UNL     1      45.393  -9.412  10.302  1.00  0.00     0.021 A 
HETATM   14  C   UNL     1      44.135 -10.008  10.284  1.00  0.00     0.012 A 
HETATM   15 BR   UNL     1      42.986  -9.798  11.773  1.00  0.00    -0.051 Br
HETATM   16  H   UNL     1      47.376 -10.257   6.689  1.00  0.00     0.165 HD
HETATM   17  C   UNL     1      45.630 -11.317   6.124  1.00  0.00     0.102 A 
ENDBRANCH   6   7
ENDBRANCH   2   5
BRANCH   1  18
HETATM   18  C   UNL     1      40.374 -15.910   5.627  1.00  0.00     0.280 C 
BRANCH  18  19
HETATM   19  O   UNL     1      40.871 -16.985   4.836  1.00  0.00    -0.341 OA
BRANCH  19  20
HETATM   20  C   UNL     1      41.461 -16.569   3.664  1.00  0.00     0.076 A 
HETATM   21  C   UNL     1      40.771 -15.786   2.726  1.00  0.00     0.044 A 
HETATM   22  C   UNL     1      41.395 -15.352   1.551  1.00  0.00    -0.059 A 
HETATM   23  C   UNL     1      40.673 -14.469   0.577  1.00  0.00     0.048 C 
HETATM   24  C   UNL     1      42.724 -15.709   1.324  1.00  0.00     0.007 A 
HETATM   25  C   UNL     1      43.407 -16.514   2.239  1.00  0.00     0.011 A 
HETATM   26  C   UNL     1      42.784 -16.976   3.412  1.00  0.00    -0.021 A 
BRANCH  26  27
HETATM   27  C   UNL     1      43.551 -17.835   4.409  1.00  0.00     0.013 C 
HETATM   28  C   UNL     1      44.384 -18.940   3.746  1.00  0.00     0.015 C 
HETATM   29  C   UNL     1      44.438 -16.956   5.294  1.00  0.00     0.015 C 
ENDBRANCH  26  27
ENDBRANCH  19  20
ENDBRANCH  18  19
ENDBRANCH   1  18
TORSDOF 6
ENDMDL
MODEL 2
REMARK VINA RESULT:      -8.4      5.230      8.326
REMARK  6 active torsions:
REMARK  status: ('A' for Active; 'I' for Inactive)
REMARK    1  A    between atoms: C_4  and  O_5 
REMARK    2  A    between atoms: O_5  and  C_6 
REMARK    3  A    between atoms: C_6  and  C_7 
REMARK       I    between atoms: C_7  and  N_8 
REMARK    4  A    between atoms: N_8  and  N_9 
REMARK    5  A    between atoms: C_10  and  C_11 
REMARK    6  A    between atoms: C_23  and  C_24 
ROOT
HETATM    1  C   UNL     1      40.042 -15.017   2.275  1.00  0.00     0.261 C 
HETATM    2  N   UNL     1      40.099 -15.312   0.916  1.00  0.00    -0.246 N 
HETATM    3  O   UNL     1      39.588 -13.988   2.773  1.00  0.00    -0.269 OA
HETATM    4  H   UNL     1      40.243 -16.287   0.660  1.00  0.00     0.192 HD
ENDROOT
BRANCH   2   5
HETATM    5  N   UNL     1      39.679 -14.510  -0.124  1.00  0.00    -0.184 NA
HETATM    6  C   UNL     1      40.402 -13.492  -0.464  1.00  0.00     0.152 C 
BRANCH   6   7
HETATM    7  C   UNL     1      39.988 -12.624  -1.551  1.00  0.00     0.011 A 
HETATM    8  C   UNL     1      40.451 -11.322  -1.935  1.00  0.00     0.005 A 
HETATM    9  C   UNL     1      39.699 -10.921  -3.044  1.00  0.00     0.043 A 
HETATM   10  C   UNL     1      41.428 -10.433  -1.438  1.00  0.00     0.033 A 
HETATM   11  C   UNL     1      39.874  -9.686  -3.681  1.00  0.00     0.031 A 
HETATM   12  N   UNL     1      38.823 -11.940  -3.331  1.00  0.00    -0.364 N 
HETATM   13  C   UNL     1      40.844  -8.823  -3.167  1.00  0.00     0.021 A 
HETATM   14  C   UNL     1      41.608  -9.194  -2.062  1.00  0.00     0.012 A 
HETATM   15 BR   UNL     1      42.909  -7.995  -1.389  1.00  0.00    -0.051 Br
HETATM   16  H   UNL     1      38.157 -11.926  -4.092  1.00  0.00     0.165 HD
HETATM   17  C   UNL     1      38.977 -12.961  -2.435  1.00  0.00     0.102 A 
ENDBRANCH   6   7
ENDBRANCH   2   5
BRANCH   1  18
HETATM   18  C   UNL     1      40.723 -16.074   3.137  1.00  0.00     0.280 C 
BRANCH  18  19
HETATM   19  O   UNL     1      42.141 -15.941   3.121  1.00  0.00    -0.341 OA
BRANCH  19  20
HETATM   20  C   UNL     1      42.799 -17.127   3.358  1.00  0.00     0.076 A 
HETATM   21  C   UNL     1      42.839 -18.156   2.404  1.00  0.00     0.044 A 
HETATM   22  C   UNL     1      43.533 -19.344   2.655  1.00  0.00    -0.059 A 
HETATM   23  C   UNL     1      43.621 -20.418   1.612  1.00  0.00     0.048 C 
HETATM   24  C   UNL     1      44.192 -19.494   3.875  1.00  0.00     0.007 A 
HETATM   25  C   UNL     1      44.130 -18.488   4.842  1.00  0.00     0.011 A 
HETATM   26  C   UNL     1      43.417 -17.298   4.612  1.00  0.00    -0.021 A 
BRANCH  26  27
HETATM   27  C   UNL     1      43.378 -16.201   5.668  1.00  0.00     0.013 C 
HETATM   28  C   UNL     1      42.170 -16.306   6.610  1.00  0.00     0.015 C 
HETATM   29  C   UNL     1      44.681 -16.191   6.471  1.00  0.00     0.015 C 
ENDBRANCH  26  27
ENDBRANCH  19  20
ENDBRANCH  18  19
ENDBRANCH   1  18
TORSDOF 6
ENDMDL
MODEL 3
REMARK VINA RESULT:      -8.3      5.126      8.878
REMARK  6 active torsions:
REMARK  status: ('A' for Active; 'I' for Inactive)
REMARK    1  A    between atoms: C_4  and  O_5 
REMARK    2  A    between atoms: O_5  and  C_6 
REMARK    3  A    between atoms: C_6  and  C_7 
REMARK       I    between atoms: C_7  and  N_8 
REMARK    4  A    between atoms: N_8  and  N_9 
REMARK    5  A    between atoms: C_10  and  C_11 
REMARK    6  A    between atoms: C_23  and  C_24 
ROOT
HETATM    1  C   UNL     1      42.061 -14.118   1.587  1.00  0.00     0.261 C 
HETATM    2  N   UNL     1      41.352 -14.593   0.488  1.00  0.00    -0.246 N 
HETATM    3  O   UNL     1      42.009 -12.977   2.043  1.00  0.00    -0.269 OA
HETATM    4  H   UNL     1      41.280 -15.604   0.384  1.00  0.00     0.192 HD
ENDROOT
BRANCH   2   5
HETATM    5  N   UNL     1      40.475 -13.880  -0.303  1.00  0.00    -0.184 NA
HETATM    6  C   UNL     1      39.535 -14.513  -0.927  1.00  0.00     0.152 C 
BRANCH   6   7
HETATM    7  C   UNL     1      38.598 -13.796  -1.772  1.00  0.00     0.011 A 
HETATM    8  C   UNL     1      37.945 -12.534  -1.581  1.00  0.00     0.005 A 
HETATM    9  C   UNL     1      37.123 -12.316  -2.692  1.00  0.00     0.043 A 
HETATM   10  C   UNL     1      37.958 -11.556  -0.563  1.00  0.00     0.033 A 
HETATM   11  C   UNL     1      36.321 -11.178  -2.839  1.00  0.00     0.031 A 
HETATM   12  N   UNL     1      37.278 -13.395  -3.530  1.00  0.00    -0.364 N 
HETATM   13  C   UNL     1      36.349 -10.229  -1.815  1.00  0.00     0.021 A 
HETATM   14  C   UNL     1      37.157 -10.417  -0.696  1.00  0.00     0.012 A 
HETATM   15 BR   UNL     1      37.162  -9.112   0.674  1.00  0.00    -0.051 Br
HETATM   16  H   UNL     1      36.805 -13.504  -4.417  1.00  0.00     0.165 HD
HETATM   17  C   UNL     1      38.150 -14.295  -2.983  1.00  0.00     0.102 A 
ENDBRANCH   6   7
ENDBRANCH   2   5
BRANCH   1  18
HETATM   18  C   UNL     1      43.045 -15.143   2.140  1.00  0.00     0.280 C 
BRANCH  18  19
HETATM   19  O   UNL     1      42.588 -15.714   3.362  1.00  0.00    -0.341 OA
BRANCH  19  20
HETATM   20  C   UNL     1      43.069 -16.986   3.579  1.00  0.00     0.076 A 
HETATM   21  C   UNL     1      43.077 -17.957   2.566  1.00  0.00     0.044 A 
HETATM   22  C   UNL     1      43.592 -19.237   2.798  1.00  0.00    -0.059 A 
HETATM   23  C   UNL     1      43.651 -20.254   1.698  1.00  0.00     0.048 C 
HETATM   24  C   UNL     1      44.102 -19.537   4.061  1.00  0.00     0.007 A 
HETATM   25  C   UNL     1      44.068 -18.586   5.084  1.00  0.00     0.011 A 
HETATM   26  C   UNL     1      43.533 -17.304   4.870  1.00  0.00    -0.021 A 
BRANCH  26  27
HETATM   27  C   UNL     1      43.524 -16.271   5.989  1.00  0.00     0.013 C 
HETATM   28  C   UNL     1      42.327 -16.416   6.940  1.00  0.00     0.015 C 
HETATM   29  C   UNL     1      44.838 -16.326   6.772  1.00  0.00     0.015 C 
ENDBRANCH  26  27
ENDBRANCH  19  20
ENDBRANCH  18  19
ENDBRANCH   1  18
TORSDOF 6
ENDMDL
MODEL 4
REMARK VINA RESULT:      -8.3      1.871      3.185
REMARK  6 active torsions:
REMARK  status: ('A' for Active; 'I' for Inactive)
REMARK    1  A    between atoms: C_4  and  O_5 
REMARK    2  A    between atoms: O_5  and  C_6 
REMARK    3  A    between atoms: C_6  and  C_7 
REMARK       I    between atoms: C_7  and  N_8 
REMARK    4  A    between atoms: N_8  and  N_9 
REMARK    5  A    between atoms: C_10  and  C_11 
REMARK    6  A    between atoms: C_23  and  C_24 
ROOT
HETATM    1  C   UNL     1      43.109 -15.150   7.234  1.00  0.00     0.261 C 
HETATM    2  N   UNL     1      43.223 -13.987   6.478  1.00  0.00    -0.246 N 
HETATM    3  O   UNL     1      43.172 -15.224   8.460  1.00  0.00    -0.269 OA
HETATM    4  H   UNL     1      42.887 -14.025   5.517  1.00  0.00     0.192 HD
ENDROOT
BRANCH   2   5
HETATM    5  N   UNL     1      43.443 -12.710   6.950  1.00  0.00    -0.184 NA
HETATM    6  C   UNL     1      44.657 -12.271   7.030  1.00  0.00     0.152 C 
BRANCH   6   7
HETATM    7  C   UNL     1      44.927 -10.934   7.527  1.00  0.00     0.011 A 
HETATM    8  C   UNL     1      44.033  -9.906   7.976  1.00  0.00     0.005 A 
HETATM    9  C   UNL     1      44.812  -8.799   8.329  1.00  0.00     0.043 A 
HETATM   10  C   UNL     1      42.631  -9.799   8.102  1.00  0.00     0.033 A 
HETATM   11  C   UNL     1      44.267  -7.600   8.803  1.00  0.00     0.031 A 
HETATM   12  N   UNL     1      46.126  -9.143   8.117  1.00  0.00    -0.364 N 
HETATM   13  C   UNL     1      42.877  -7.519   8.914  1.00  0.00     0.021 A 
HETATM   14  C   UNL     1      42.075  -8.604   8.569  1.00  0.00     0.012 A 
HETATM   15 BR   UNL     1      40.195  -8.453   8.725  1.00  0.00    -0.051 Br
HETATM   16  H   UNL     1      46.913  -8.534   8.293  1.00  0.00     0.165 HD
HETATM   17  C   UNL     1      46.207 -10.416   7.624  1.00  0.00     0.102 A 
ENDBRANCH   6   7
ENDBRANCH   2   5
BRANCH   1  18
HETATM   18  C   UNL     1      43.007 -16.405   6.374  1.00  0.00     0.280 C 
BRANCH  18  19
HETATM   19  O   UNL     1      44.055 -16.477   5.413  1.00  0.00    -0.341 OA
BRANCH  19  20
HETATM   20  C   UNL     1      43.776 -17.333   4.370  1.00  0.00     0.076 A 
HETATM   21  C   UNL     1      44.040 -18.709   4.451  1.00  0.00     0.044 A 
HETATM   22  C   UNL     1      43.727 -19.566   3.391  1.00  0.00    -0.059 A 
HETATM   23  C   UNL     1      43.958 -21.043   3.502  1.00  0.00     0.048 C 
HETATM   24  C   UNL     1      43.143 -19.031   2.243  1.00  0.00     0.007 A 
HETATM   25  C   UNL     1      42.907 -17.658   2.143  1.00  0.00     0.011 A 
HETATM   26  C   UNL     1      43.238 -16.782   3.192  1.00  0.00    -0.021 A 
BRANCH  26  27
HETATM   27  C   UNL     1      42.953 -15.290   3.075  1.00  0.00     0.013 C 
HETATM   28  C   UNL     1      43.475 -14.672   1.771  1.00  0.00     0.015 C 
HETATM   29  C   UNL     1      41.454 -15.022   3.230  1.00  0.00     0.015 C 
ENDBRANCH  26  27
ENDBRANCH  19  20
ENDBRANCH  18  19
ENDBRANCH   1  18
TORSDOF 6
ENDMDL
MODEL 5
REMARK VINA RESULT:      -8.2      1.876      2.958
REMARK  6 active torsions:
REMARK  status: ('A' for Active; 'I' for Inactive)
REMARK    1  A    between atoms: C_4  and  O_5 
REMARK    2  A    between atoms: O_5  and  C_6 
REMARK    3  A    between atoms: C_6  and  C_7 
REMARK       I    between atoms: C_7  and  N_8 
REMARK    4  A    between atoms: N_8  and  N_9 
REMARK    5  A    between atoms: C_10  and  C_11 
REMARK    6  A    between atoms: C_23  and  C_24 
ROOT
HETATM    1  C   UNL     1      42.868 -13.943   3.126  1.00  0.00     0.261 C 
HETATM    2  N   UNL     1      42.602 -13.405   4.381  1.00  0.00    -0.246 N 
HETATM    3  O   UNL     1      43.741 -13.562   2.347  1.00  0.00    -0.269 OA
HETATM    4  H   UNL     1      42.049 -13.974   5.020  1.00  0.00     0.192 HD
ENDROOT
BRANCH   2   5
HETATM    5  N   UNL     1      43.246 -12.345   4.982  1.00  0.00    -0.184 NA
HETATM    6  C   UNL     1      43.987 -12.566   6.019  1.00  0.00     0.152 C 
BRANCH   6   7
HETATM    7  C   UNL     1      44.676 -11.472   6.680  1.00  0.00     0.011 A 
HETATM    8  C   UNL     1      44.169 -10.403   7.491  1.00  0.00     0.005 A 
HETATM    9  C   UNL     1      45.259  -9.608   7.863  1.00  0.00     0.043 A 
HETATM   10  C   UNL     1      42.885 -10.020   7.936  1.00  0.00     0.033 A 
HETATM   11  C   UNL     1      45.133  -8.459   8.653  1.00  0.00     0.031 A 
HETATM   12  N   UNL     1      46.383 -10.175   7.311  1.00  0.00    -0.364 N 
HETATM   13  C   UNL     1      43.852  -8.101   9.076  1.00  0.00     0.021 A 
HETATM   14  C   UNL     1      42.747  -8.872   8.722  1.00  0.00     0.012 A 
HETATM   15 BR   UNL     1      41.025  -8.349   9.307  1.00  0.00    -0.051 Br
HETATM   16  H   UNL     1      47.320  -9.813   7.421  1.00  0.00     0.165 HD
HETATM   17  C   UNL     1      46.045 -11.286   6.589  1.00  0.00     0.102 A 
ENDBRANCH   6   7
ENDBRANCH   2   5
BRANCH   1  18
HETATM   18  C   UNL     1      41.869 -15.022   2.722  1.00  0.00     0.280 C 
BRANCH  18  19
HETATM   19  O   UNL     1      41.631 -15.948   3.777  1.00  0.00    -0.341 OA
BRANCH  19  20
HETATM   20  C   UNL     1      42.490 -17.024   3.757  1.00  0.00     0.076 A 
HETATM   21  C   UNL     1      42.477 -17.963   2.714  1.00  0.00     0.044 A 
HETATM   22  C   UNL     1      43.374 -19.036   2.700  1.00  0.00    -0.059 A 
HETATM   23  C   UNL     1      43.396 -20.006   1.556  1.00  0.00     0.048 C 
HETATM   24  C   UNL     1      44.291 -19.161   3.744  1.00  0.00     0.007 A 
HETATM   25  C   UNL     1      44.289 -18.248   4.801  1.00  0.00     0.011 A 
HETATM   26  C   UNL     1      43.377 -17.178   4.840  1.00  0.00    -0.021 A 
BRANCH  26  27
HETATM   27  C   UNL     1      43.403 -16.179   5.989  1.00  0.00     0.013 C 
HETATM   28  C   UNL     1      42.287 -16.407   7.018  1.00  0.00     0.015 C 
HETATM   29  C   UNL     1      44.772 -16.193   6.674  1.00  0.00     0.015 C 
ENDBRANCH  26  27
ENDBRANCH  19  20
ENDBRANCH  18  19
ENDBRANCH   1  18
TORSDOF 6
ENDMDL
MODEL 6
REMARK VINA RESULT:      -7.8      2.305      3.675
REMARK  6 active torsions:
REMARK  status: ('A' for Active; 'I' for Inactive)
REMARK    1  A    between atoms: C_4  and  O_5 
REMARK    2  A    between atoms: O_5  and  C_6 
REMARK    3  A    between atoms: C_6  and  C_7 
REMARK       I    between atoms: C_7  and  N_8 
REMARK    4  A    between atoms: N_8  and  N_9 
REMARK    5  A    between atoms: C_10  and  C_11 
REMARK    6  A    between atoms: C_23  and  C_24 
ROOT
HETATM    1  C   UNL     1      40.939 -14.934   6.259  1.00  0.00     0.261 C 
HETATM    2  N   UNL     1      41.808 -13.870   6.037  1.00  0.00    -0.246 N 
HETATM    3  O   UNL     1      39.771 -14.847   6.633  1.00  0.00    -0.269 OA
HETATM    4  H   UNL     1      42.640 -14.060   5.481  1.00  0.00     0.192 HD
ENDROOT
BRANCH   2   5
HETATM    5  N   UNL     1      41.537 -12.529   6.209  1.00  0.00    -0.184 NA
HETATM    6  C   UNL     1      42.452 -11.661   5.919  1.00  0.00     0.152 C 
BRANCH   6   7
HETATM    7  C   UNL     1      42.204 -10.242   6.091  1.00  0.00     0.011 A 
HETATM    8  C   UNL     1      42.419  -9.386   7.222  1.00  0.00     0.005 A 
HETATM    9  C   UNL     1      41.988  -8.104   6.864  1.00  0.00     0.043 A 
HETATM   10  C   UNL     1      42.924  -9.577   8.526  1.00  0.00     0.033 A 
HETATM   11  C   UNL     1      42.038  -7.009   7.736  1.00  0.00     0.031 A 
HETATM   12  N   UNL     1      41.541  -8.173   5.567  1.00  0.00    -0.364 N 
HETATM   13  C   UNL     1      42.539  -7.227   9.021  1.00  0.00     0.021 A 
HETATM   14  C   UNL     1      42.974  -8.492   9.407  1.00  0.00     0.012 A 
HETATM   15 BR   UNL     1      43.638  -8.750  11.161  1.00  0.00    -0.051 Br
HETATM   16  H   UNL     1      41.175  -7.389   5.044  1.00  0.00     0.165 HD
HETATM   17  C   UNL     1      41.653  -9.452   5.096  1.00  0.00     0.102 A 
ENDBRANCH   6   7
ENDBRANCH   2   5
BRANCH   1  18
HETATM   18  C   UNL     1      41.616 -16.291   6.102  1.00  0.00     0.280 C 
BRANCH  18  19
HETATM   19  O   UNL     1      42.889 -16.182   5.473  1.00  0.00    -0.341 OA
BRANCH  19  20
HETATM   20  C   UNL     1      43.230 -17.298   4.743  1.00  0.00     0.076 A 
HETATM   21  C   UNL     1      43.708 -18.466   5.357  1.00  0.00     0.044 A 
HETATM   22  C   UNL     1      44.027 -19.599   4.601  1.00  0.00    -0.059 A 
HETATM   23  C   UNL     1      44.484 -20.864   5.265  1.00  0.00     0.048 C 
HETATM   24  C   UNL     1      43.861 -19.553   3.217  1.00  0.00     0.007 A 
HETATM   25  C   UNL     1      43.415 -18.384   2.596  1.00  0.00     0.011 A 
HETATM   26  C   UNL     1      43.113 -17.230   3.342  1.00  0.00    -0.021 A 
BRANCH  26  27
HETATM   27  C   UNL     1      42.608 -15.971   2.651  1.00  0.00     0.013 C 
HETATM   28  C   UNL     1      43.430 -15.584   1.414  1.00  0.00     0.015 C 
HETATM   29  C   UNL     1      41.130 -16.124   2.283  1.00  0.00     0.015 C 
ENDBRANCH  26  27
ENDBRANCH  19  20
ENDBRANCH  18  19
ENDBRANCH   1  18
TORSDOF 6
ENDMDL
MODEL 7
REMARK VINA RESULT:      -7.8      3.546      8.791
REMARK  6 active torsions:
REMARK  status: ('A' for Active; 'I' for Inactive)
REMARK    1  A    between atoms: C_4  and  O_5 
REMARK    2  A    between atoms: O_5  and  C_6 
REMARK    3  A    between atoms: C_6  and  C_7 
REMARK       I    between atoms: C_7  and  N_8 
REMARK    4  A    between atoms: N_8  and  N_9 
REMARK    5  A    between atoms: C_10  and  C_11 
REMARK    6  A    between atoms: C_23  and  C_24 
ROOT
HETATM    1  C   UNL     1      41.394 -10.209   6.273  1.00  0.00     0.261 C 
HETATM    2  N   UNL     1      41.199 -11.587   6.239  1.00  0.00    -0.246 N 
HETATM    3  O   UNL     1      41.706  -9.500   5.318  1.00  0.00    -0.269 OA
HETATM    4  H   UNL     1      40.690 -12.001   7.018  1.00  0.00     0.192 HD
ENDROOT
BRANCH   2   5
HETATM    5  N   UNL     1      41.331 -12.416   5.146  1.00  0.00    -0.184 NA
HETATM    6  C   UNL     1      42.491 -12.924   4.880  1.00  0.00     0.152 C 
BRANCH   6   7
HETATM    7  C   UNL     1      42.668 -13.798   3.734  1.00  0.00     0.011 A 
HETATM    8  C   UNL     1      42.964 -15.199   3.664  1.00  0.00     0.005 A 
HETATM    9  C   UNL     1      43.051 -15.541   2.311  1.00  0.00     0.043 A 
HETATM   10  C   UNL     1      43.183 -16.214   4.621  1.00  0.00     0.033 A 
HETATM   11  C   UNL     1      43.340 -16.837   1.866  1.00  0.00     0.031 A 
HETATM   12  N   UNL     1      42.806 -14.399   1.586  1.00  0.00    -0.364 N 
HETATM   13  C   UNL     1      43.558 -17.821   2.834  1.00  0.00     0.021 A 
HETATM   14  C   UNL     1      43.479 -17.510   4.189  1.00  0.00     0.012 A 
HETATM   15 BR   UNL     1      43.787 -18.868   5.471  1.00  0.00    -0.051 Br
HETATM   16  H   UNL     1      42.799 -14.352   0.576  1.00  0.00     0.165 HD
HETATM   17  C   UNL     1      42.588 -13.344   2.428  1.00  0.00     0.102 A 
ENDBRANCH   6   7
ENDBRANCH   2   5
BRANCH   1  18
HETATM   18  C   UNL     1      41.298  -9.634   7.682  1.00  0.00     0.280 C 
BRANCH  18  19
HETATM   19  O   UNL     1      42.300  -8.651   7.925  1.00  0.00    -0.341 OA
BRANCH  19  20
HETATM   20  C   UNL     1      42.895  -8.779   9.160  1.00  0.00     0.076 A 
HETATM   21  C   UNL     1      42.248  -8.376  10.339  1.00  0.00     0.044 A 
HETATM   22  C   UNL     1      42.860  -8.536  11.587  1.00  0.00    -0.059 A 
HETATM   23  C   UNL     1      42.144  -8.156  12.849  1.00  0.00     0.048 C 
HETATM   24  C   UNL     1      44.131  -9.108  11.645  1.00  0.00     0.007 A 
HETATM   25  C   UNL     1      44.793  -9.482  10.474  1.00  0.00     0.011 A 
HETATM   26  C   UNL     1      44.200  -9.306   9.211  1.00  0.00    -0.021 A 
BRANCH  26  27
HETATM   27  C   UNL     1      44.927  -9.740   7.945  1.00  0.00     0.013 C 
HETATM   28  C   UNL     1      46.421  -9.389   7.952  1.00  0.00     0.015 C 
HETATM   29  C   UNL     1      44.732 -11.239   7.709  1.00  0.00     0.015 C 
ENDBRANCH  26  27
ENDBRANCH  19  20
ENDBRANCH  18  19
ENDBRANCH   1  18
TORSDOF 6
ENDMDL
MODEL 8
REMARK VINA RESULT:      -7.7      3.459      8.480
REMARK  6 active torsions:
REMARK  status: ('A' for Active; 'I' for Inactive)
REMARK    1  A    between atoms: C_4  and  O_5 
REMARK    2  A    between atoms: O_5  and  C_6 
REMARK    3  A    between atoms: C_6  and  C_7 
REMARK       I    between atoms: C_7  and  N_8 
REMARK    4  A    between atoms: N_8  and  N_9 
REMARK    5  A    between atoms: C_10  and  C_11 
REMARK    6  A    between atoms: C_23  and  C_24 
ROOT
HETATM    1  C   UNL     1      41.437 -10.855   6.075  1.00  0.00     0.261 C 
HETATM    2  N   UNL     1      41.574 -12.109   6.664  1.00  0.00    -0.246 N 
HETATM    3  O   UNL     1      41.560 -10.601   4.879  1.00  0.00    -0.269 OA
HETATM    4  H   UNL     1      41.187 -12.227   7.599  1.00  0.00     0.192 HD
ENDROOT
BRANCH   2   5
HETATM    5  N   UNL     1      41.887 -13.292   6.029  1.00  0.00    -0.184 NA
HETATM    6  C   UNL     1      42.978 -13.908   6.351  1.00  0.00     0.152 C 
BRANCH   6   7
HETATM    7  C   UNL     1      43.342 -15.154   5.700  1.00  0.00     0.011 A 
HETATM    8  C   UNL     1      42.835 -15.767   4.507  1.00  0.00     0.005 A 
HETATM    9  C   UNL     1      43.518 -16.976   4.336  1.00  0.00     0.043 A 
HETATM   10  C   UNL     1      41.848 -15.422   3.559  1.00  0.00     0.033 A 
HETATM   11  C   UNL     1      43.270 -17.851   3.272  1.00  0.00     0.031 A 
HETATM   12  N   UNL     1      44.412 -17.088   5.374  1.00  0.00    -0.364 N 
HETATM   13  C   UNL     1      42.285 -17.488   2.350  1.00  0.00     0.021 A 
HETATM   14  C   UNL     1      41.587 -16.291   2.495  1.00  0.00     0.012 A 
HETATM   15 BR   UNL     1      40.254 -15.837   1.231  1.00  0.00    -0.051 Br
HETATM   16  H   UNL     1      45.047 -17.865   5.503  1.00  0.00     0.165 HD
HETATM   17  C   UNL     1      44.307 -16.008   6.206  1.00  0.00     0.102 A 
ENDBRANCH   6   7
ENDBRANCH   2   5
BRANCH   1  18
HETATM   18  C   UNL     1      41.223  -9.744   7.098  1.00  0.00     0.280 C 
BRANCH  18  19
HETATM   19  O   UNL     1      42.448  -9.120   7.469  1.00  0.00    -0.341 OA
BRANCH  19  20
HETATM   20  C   UNL     1      42.866  -9.459   8.737  1.00  0.00     0.076 A 
HETATM   21  C   UNL     1      42.002  -9.402   9.842  1.00  0.00     0.044 A 
HETATM   22  C   UNL     1      42.439  -9.773  11.118  1.00  0.00    -0.059 A 
HETATM   23  C   UNL     1      41.498  -9.764  12.285  1.00  0.00     0.048 C 
HETATM   24  C   UNL     1      43.755 -10.206  11.279  1.00  0.00     0.007 A 
HETATM   25  C   UNL     1      44.629 -10.236  10.190  1.00  0.00     0.011 A 
HETATM   26  C   UNL     1      44.210  -9.844   8.906  1.00  0.00    -0.021 A 
BRANCH  26  27
HETATM   27  C   UNL     1      45.170  -9.903   7.726  1.00  0.00     0.013 C 
HETATM   28  C   UNL     1      46.532  -9.259   8.017  1.00  0.00     0.015 C 
HETATM   29  C   UNL     1      45.351 -11.351   7.262  1.00  0.00     0.015 C 
ENDBRANCH  26  27
ENDBRANCH  19  20
ENDBRANCH  18  19
ENDBRANCH   1  18
TORSDOF 6
ENDMDL
MODEL 9
REMARK VINA RESULT:      -7.7      3.819      9.194
REMARK  6 active torsions:
REMARK  status: ('A' for Active; 'I' for Inactive)
REMARK    1  A    between atoms: C_4  and  O_5 
REMARK    2  A    between atoms: O_5  and  C_6 
REMARK    3  A    between atoms: C_6  and  C_7 
REMARK       I    between atoms: C_7  and  N_8 
REMARK    4  A    between atoms: N_8  and  N_9 
REMARK    5  A    between atoms: C_10  and  C_11 
REMARK    6  A    between atoms: C_23  and  C_24 
ROOT
HETATM    1  C   UNL     1      40.089  -9.389   7.486  1.00  0.00     0.261 C 
HETATM    2  N   UNL     1      40.691 -10.453   6.823  1.00  0.00    -0.246 N 
HETATM    3  O   UNL     1      38.937  -8.991   7.319  1.00  0.00    -0.269 OA
HETATM    4  H   UNL     1      41.535 -10.841   7.240  1.00  0.00     0.192 HD
ENDROOT
BRANCH   2   5
HETATM    5  N   UNL     1      40.125 -11.249   5.849  1.00  0.00    -0.184 NA
HETATM    6  C   UNL     1      40.875 -12.087   5.209  1.00  0.00     0.152 C 
BRANCH   6   7
HETATM    7  C   UNL     1      40.314 -12.937   4.174  1.00  0.00     0.011 A 
HETATM    8  C   UNL     1      40.761 -14.199   3.658  1.00  0.00     0.005 A 
HETATM    9  C   UNL     1      39.868 -14.578   2.651  1.00  0.00     0.043 A 
HETATM   10  C   UNL     1      41.850 -15.053   3.936  1.00  0.00     0.033 A 
HETATM   11  C   UNL     1      40.003 -15.760   1.914  1.00  0.00     0.031 A 
HETATM   12  N   UNL     1      38.911 -13.595   2.565  1.00  0.00    -0.364 N 
HETATM   13  C   UNL     1      41.091 -16.585   2.206  1.00  0.00     0.021 A 
HETATM   14  C   UNL     1      41.999 -16.234   3.203  1.00  0.00     0.012 A 
HETATM   15 BR   UNL     1      43.465 -17.374   3.565  1.00  0.00    -0.051 Br
HETATM   16  H   UNL     1      38.131 -13.608   1.921  1.00  0.00     0.165 HD
HETATM   17  C   UNL     1      39.175 -12.600   3.465  1.00  0.00     0.102 A 
ENDBRANCH   6   7
ENDBRANCH   2   5
BRANCH   1  18
HETATM   18  C   UNL     1      41.054  -8.643   8.402  1.00  0.00     0.280 C 
BRANCH  18  19
HETATM   19  O   UNL     1      41.380  -9.402   9.562  1.00  0.00    -0.341 OA
BRANCH  19  20
HETATM   20  C   UNL     1      42.736  -9.559   9.743  1.00  0.00     0.076 A 
HETATM   21  C   UNL     1      43.573 -10.016   8.713  1.00  0.00     0.044 A 
HETATM   22  C   UNL     1      44.952 -10.147   8.909  1.00  0.00    -0.059 A 
HETATM   23  C   UNL     1      45.850 -10.582   7.790  1.00  0.00     0.048 C 
HETATM   24  C   UNL     1      45.490  -9.810  10.151  1.00  0.00     0.007 A 
HETATM   25  C   UNL     1      44.659  -9.384  11.190  1.00  0.00     0.011 A 
HETATM   26  C   UNL     1      43.269  -9.271  11.014  1.00  0.00    -0.021 A 
BRANCH  26  27
HETATM   27  C   UNL     1      42.381  -8.784  12.151  1.00  0.00     0.013 C 
HETATM   28  C   UNL     1      41.755  -9.924  12.966  1.00  0.00     0.015 C 
HETATM   29  C   UNL     1      43.162  -7.839  13.068  1.00  0.00     0.015 C 
ENDBRANCH  26  27
ENDBRANCH  19  20
ENDBRANCH  18  19
ENDBRANCH   1  18
TORSDOF 6
ENDMDL
MODEL 10
REMARK VINA RESULT:      -7.6      5.108      8.235
REMARK  6 active torsions:
REMARK  status: ('A' for Active; 'I' for Inactive)
REMARK    1  A    between atoms: C_4  and  O_5 
REMARK    2  A    between atoms: O_5  and  C_6 
REMARK    3  A    between atoms: C_6  and  C_7 
REMARK       I    between atoms: C_7  and  N_8 
REMARK    4  A    between atoms: N_8  and  N_9 
REMARK    5  A    between atoms: C_10  and  C_11 
REMARK    6  A    between atoms: C_23  and  C_24 
ROOT
HETATM    1  C   UNL     1      40.491 -14.764   2.492  1.00  0.00     0.261 C 
HETATM    2  N   UNL     1      41.337 -14.336   1.474  1.00  0.00    -0.246 N 
HETATM    3  O   UNL     1      39.398 -14.278   2.776  1.00  0.00    -0.269 OA
HETATM    4  H   UNL     1      42.068 -14.981   1.177  1.00  0.00     0.192 HD
ENDROOT
BRANCH   2   5
HETATM    5  N   UNL     1      41.124 -13.285   0.606  1.00  0.00    -0.184 NA
HETATM    6  C   UNL     1      40.554 -13.516  -0.532  1.00  0.00     0.152 C 
BRANCH   6   7
HETATM    7  C   UNL     1      40.319 -12.435  -1.472  1.00  0.00     0.011 A 
HETATM    8  C   UNL     1      39.312 -11.414  -1.488  1.00  0.00     0.005 A 
HETATM    9  C   UNL     1      39.524 -10.636  -2.631  1.00  0.00     0.043 A 
HETATM   10  C   UNL     1      38.226 -11.081  -0.649  1.00  0.00     0.033 A 
HETATM   11  C   UNL     1      38.715  -9.547  -2.976  1.00  0.00     0.031 A 
HETATM   12  N   UNL     1      40.621 -11.154  -3.277  1.00  0.00    -0.364 N 
HETATM   13  C   UNL     1      37.645  -9.242  -2.132  1.00  0.00     0.021 A 
HETATM   14  C   UNL     1      37.407  -9.999  -0.987  1.00  0.00     0.012 A 
HETATM   15 BR   UNL     1      35.942  -9.559   0.128  1.00  0.00    -0.051 Br
HETATM   16  H   UNL     1      41.008 -10.784  -4.135  1.00  0.00     0.165 HD
HETATM   17  C   UNL     1      41.099 -12.240  -2.599  1.00  0.00     0.102 A 
ENDBRANCH   6   7
ENDBRANCH   2   5
BRANCH   1  18
HETATM   18  C   UNL     1      41.107 -15.868   3.345  1.00  0.00     0.280 C 
BRANCH  18  19
HETATM   19  O   UNL     1      42.527 -15.893   3.239  1.00  0.00    -0.341 OA
BRANCH  19  20
HETATM   20  C   UNL     1      43.067 -17.135   3.486  1.00  0.00     0.076 A 
HETATM   21  C   UNL     1      43.065 -18.149   2.516  1.00  0.00     0.044 A 
HETATM   22  C   UNL     1      43.639 -19.398   2.777  1.00  0.00    -0.059 A 
HETATM   23  C   UNL     1      43.685 -20.460   1.719  1.00  0.00     0.048 C 
HETATM   24  C   UNL     1      44.222 -19.623   4.024  1.00  0.00     0.007 A 
HETATM   25  C   UNL     1      44.199 -18.629   5.006  1.00  0.00     0.011 A 
HETATM   26  C   UNL     1      43.604 -17.378   4.765  1.00  0.00    -0.021 A 
BRANCH  26  27
HETATM   27  C   UNL     1      43.609 -16.297   5.838  1.00  0.00     0.013 C 
HETATM   28  C   UNL     1      42.412 -16.387   6.796  1.00  0.00     0.015 C 
HETATM   29  C   UNL     1      44.923 -16.333   6.621  1.00  0.00     0.015 C 
ENDBRANCH  26  27
ENDBRANCH  19  20
ENDBRANCH  18  19
ENDBRANCH   1  18
TORSDOF 6
ENDMDL
