MODEL 1
REMARK VINA RESULT:      -9.3      0.000      0.000
REMARK  9 active torsions:
REMARK  status: ('A' for Active; 'I' for Inactive)
REMARK    1  A    between atoms: C_4  and  C_5 
REMARK    2  A    between atoms: C_8  and  C_9 
REMARK       I    between atoms: C_9  and  N_10 
REMARK    3  A    between atoms: N_10  and  C_11 
REMARK    4  A    between atoms: N_10  and  C_26 
REMARK    5  A    between atoms: C_11  and  C_12 
REMARK    6  A    between atoms: C_11  and  C_21 
REMARK       I    between atoms: C_12  and  N_13 
REMARK    7  A    between atoms: N_13  and  C_14 
REMARK    8  A    between atoms: C_14  and  C_15 
REMARK    9  A    between atoms: C_26  and  C_27 
ROOT
HETATM    1  C   UNL     1      43.130 -14.052   6.544  1.00  0.00     0.271 C 
HETATM    2  N   UNL     1      42.383 -13.407   5.555  1.00  0.00    -0.324 N 
HETATM    3  O   UNL     1      43.637 -13.430   7.475  1.00  0.00    -0.266 OA
ENDROOT
BRANCH   2   4
HETATM    4  C   UNL     1      42.390 -11.929   5.441  1.00  0.00     0.220 C 
BRANCH   4   5
HETATM    5  C   UNL     1      43.642 -11.192   5.986  1.00  0.00     0.245 C 
HETATM    6  N   UNL     1      43.503 -10.528   7.180  1.00  0.00    -0.357 N 
HETATM    7  H   UNL     1      42.559 -10.427   7.558  1.00  0.00     0.162 HD
HETATM    8  O   UNL     1      44.707 -11.198   5.364  1.00  0.00    -0.271 OA
BRANCH   6   9
HETATM    9  C   UNL     1      44.575  -9.775   7.797  1.00  0.00     0.154 C 
BRANCH   9  10
HETATM   10  C   UNL     1      45.148 -10.417   9.072  1.00  0.00     0.139 C 
HETATM   11  O   UNL     1      44.105 -11.204   9.689  1.00  0.00    -0.384 OA
HETATM   12  C   UNL     1      43.718 -10.583  10.922  1.00  0.00     0.168 C 
HETATM   13  C   UNL     1      44.330  -9.200  10.931  1.00  0.00     0.029 C 
HETATM   14  C   UNL     1      45.589  -9.413  10.130  1.00  0.00     0.035 C 
ENDBRANCH   9  10
ENDBRANCH   6   9
ENDBRANCH   4   5
BRANCH   4  15
HETATM   15  C   UNL     1      41.976 -11.410   4.072  1.00  0.00     0.014 A 
HETATM   16  S   UNL     1      40.401 -10.713   3.899  1.00  0.00    -0.104 SA
HETATM   17  C   UNL     1      40.639 -10.379   2.245  1.00  0.00     0.050 A 
HETATM   18  C   UNL     1      41.887 -10.762   1.818  1.00  0.00     0.008 A 
HETATM   19  C   UNL     1      42.657 -11.343   2.868  1.00  0.00     0.017 A 
ENDBRANCH   4  15
ENDBRANCH   2   4
BRANCH   2  20
HETATM   20  C   UNL     1      41.195 -14.066   4.995  1.00  0.00     0.173 C 
BRANCH  20  21
HETATM   21  C   UNL     1      41.391 -14.426   3.549  1.00  0.00     0.000 A 
HETATM   22  S   UNL     1      40.031 -14.369   2.495  1.00  0.00    -0.105 SA
HETATM   23  C   UNL     1      40.957 -14.886   1.156  1.00  0.00     0.050 A 
HETATM   24  C   UNL     1      42.277 -15.080   1.486  1.00  0.00     0.008 A 
HETATM   25  C   UNL     1      42.528 -14.810   2.863  1.00  0.00     0.017 A 
ENDBRANCH  20  21
ENDBRANCH   2  20
BRANCH   1  26
HETATM   26  C   UNL     1      43.275 -15.493   6.471  1.00  0.00     0.101 A 
HETATM   27  N   UNL     1      43.413 -16.237   5.321  1.00  0.00    -0.351 N 
HETATM   28  C   UNL     1      43.549 -17.578   5.605  1.00  0.00     0.043 A 
HETATM   29  H   UNL     1      43.398 -15.852   4.387  1.00  0.00     0.166 HD
HETATM   30  C   UNL     1      43.547 -17.681   6.986  1.00  0.00     0.033 A 
HETATM   31  C   UNL     1      43.406 -16.381   7.524  1.00  0.00     0.037 A 
BRANCH  28  32
HETATM   32  C   UNL     1      43.669 -18.612   4.571  1.00  0.00    -0.009 A 
HETATM   33  C   UNL     1      43.932 -19.950   4.900  1.00  0.00     0.013 A 
HETATM   34  C   UNL     1      44.034 -20.924   3.903  1.00  0.00     0.001 A 
HETATM   35  C   UNL     1      43.874 -20.575   2.564  1.00  0.00     0.000 A 
HETATM   36  C   UNL     1      43.611 -19.251   2.221  1.00  0.00     0.001 A 
HETATM   37  C   UNL     1      43.509 -18.277   3.219  1.00  0.00     0.013 A 
ENDBRANCH  28  32
ENDBRANCH   1  26
TORSDOF 9
ENDMDL
MODEL 2
REMARK VINA RESULT:      -9.2      2.366      7.817
REMARK  9 active torsions:
REMARK  status: ('A' for Active; 'I' for Inactive)
REMARK    1  A    between atoms: C_4  and  C_5 
REMARK    2  A    between atoms: C_8  and  C_9 
REMARK       I    between atoms: C_9  and  N_10 
REMARK    3  A    between atoms: N_10  and  C_11 
REMARK    4  A    between atoms: N_10  and  C_26 
REMARK    5  A    between atoms: C_11  and  C_12 
REMARK    6  A    between atoms: C_11  and  C_21 
REMARK       I    between atoms: C_12  and  N_13 
REMARK    7  A    between atoms: N_13  and  C_14 
REMARK    8  A    between atoms: C_14  and  C_15 
REMARK    9  A    between atoms: C_26  and  C_27 
ROOT
HETATM    1  C   UNL     1      43.231 -11.949   4.079  1.00  0.00     0.271 C 
HETATM    2  N   UNL     1      42.515 -13.147   4.151  1.00  0.00    -0.324 N 
HETATM    3  O   UNL     1      43.217 -11.253   3.066  1.00  0.00    -0.266 OA
ENDROOT
BRANCH   2   4
HETATM    4  C   UNL     1      41.927 -13.755   2.933  1.00  0.00     0.220 C 
BRANCH   4   5
HETATM    5  C   UNL     1      41.615 -15.274   2.992  1.00  0.00     0.245 C 
HETATM    6  N   UNL     1      42.683 -16.133   2.900  1.00  0.00    -0.357 N 
HETATM    7  H   UNL     1      43.589 -15.735   2.646  1.00  0.00     0.162 HD
HETATM    8  O   UNL     1      40.458 -15.683   3.106  1.00  0.00    -0.271 OA
BRANCH   6   9
HETATM    9  C   UNL     1      42.544 -17.574   2.913  1.00  0.00     0.154 C 
BRANCH   9  10
HETATM   10  C   UNL     1      43.874 -18.340   2.825  1.00  0.00     0.139 C 
HETATM   11  O   UNL     1      43.591 -19.687   2.383  1.00  0.00    -0.384 OA
HETATM   12  C   UNL     1      43.852 -20.597   3.460  1.00  0.00     0.168 C 
HETATM   13  C   UNL     1      44.020 -19.765   4.711  1.00  0.00     0.029 C 
HETATM   14  C   UNL     1      44.598 -18.486   4.159  1.00  0.00     0.035 C 
ENDBRANCH   9  10
ENDBRANCH   6   9
ENDBRANCH   4   5
BRANCH   4  15
HETATM   15  C   UNL     1      40.774 -12.961   2.338  1.00  0.00     0.014 A 
HETATM   16  S   UNL     1      40.663 -12.838   0.615  1.00  0.00    -0.104 SA
HETATM   17  C   UNL     1      39.244 -11.898   0.690  1.00  0.00     0.050 A 
HETATM   18  C   UNL     1      38.835 -11.687   1.984  1.00  0.00     0.008 A 
HETATM   19  C   UNL     1      39.706 -12.305   2.928  1.00  0.00     0.017 A 
ENDBRANCH   4  15
ENDBRANCH   2   4
BRANCH   2  20
HETATM   20  C   UNL     1      41.864 -13.529   5.411  1.00  0.00     0.173 C 
BRANCH  20  21
HETATM   21  C   UNL     1      42.548 -14.703   6.055  1.00  0.00     0.000 A 
HETATM   22  S   UNL     1      41.585 -16.022   6.598  1.00  0.00    -0.105 SA
HETATM   23  C   UNL     1      42.947 -16.869   7.182  1.00  0.00     0.050 A 
HETATM   24  C   UNL     1      44.117 -16.184   6.956  1.00  0.00     0.008 A 
HETATM   25  C   UNL     1      43.888 -14.938   6.303  1.00  0.00     0.017 A 
ENDBRANCH  20  21
ENDBRANCH   2  20
BRANCH   1  26
HETATM   26  C   UNL     1      43.977 -11.518   5.245  1.00  0.00     0.101 A 
HETATM   27  N   UNL     1      43.444 -11.005   6.405  1.00  0.00    -0.351 N 
HETATM   28  C   UNL     1      44.429 -10.713   7.324  1.00  0.00     0.043 A 
HETATM   29  H   UNL     1      42.458 -10.844   6.558  1.00  0.00     0.166 HD
HETATM   30  C   UNL     1      45.623 -11.103   6.743  1.00  0.00     0.033 A 
HETATM   31  C   UNL     1      45.339 -11.630   5.462  1.00  0.00     0.037 A 
BRANCH  28  32
HETATM   32  C   UNL     1      44.155 -10.112   8.633  1.00  0.00    -0.009 A 
HETATM   33  C   UNL     1      45.139 -10.050   9.631  1.00  0.00     0.013 A 
HETATM   34  C   UNL     1      44.866  -9.466  10.870  1.00  0.00     0.001 A 
HETATM   35  C   UNL     1      43.604  -8.935  11.130  1.00  0.00     0.000 A 
HETATM   36  C   UNL     1      42.616  -8.988  10.150  1.00  0.00     0.001 A 
HETATM   37  C   UNL     1      42.891  -9.573   8.911  1.00  0.00     0.013 A 
ENDBRANCH  28  32
ENDBRANCH   1  26
TORSDOF 9
ENDMDL
MODEL 3
REMARK VINA RESULT:      -9.1      1.484      1.697
REMARK  9 active torsions:
REMARK  status: ('A' for Active; 'I' for Inactive)
REMARK    1  A    between atoms: C_4  and  C_5 
REMARK    2  A    between atoms: C_8  and  C_9 
REMARK       I    between atoms: C_9  and  N_10 
REMARK    3  A    between atoms: N_10  and  C_11 
REMARK    4  A    between atoms: N_10  and  C_26 
REMARK    5  A    between atoms: C_11  and  C_12 
REMARK    6  A    between atoms: C_11  and  C_21 
REMARK       I    between atoms: C_12  and  N_13 
REMARK    7  A    between atoms: N_13  and  C_14 
REMARK    8  A    between atoms: C_14  and  C_15 
REMARK    9  A    between atoms: C_26  and  C_27 
ROOT
HETATM    1  C   UNL     1      41.673 -14.108   6.037  1.00  0.00     0.271 C 
HETATM    2  N   UNL     1      41.962 -12.870   5.457  1.00  0.00    -0.324 N 
HETATM    3  O   UNL     1      40.607 -14.313   6.615  1.00  0.00    -0.266 OA
ENDROOT
BRANCH   2   4
HETATM    4  C   UNL     1      41.117 -11.685   5.735  1.00  0.00     0.220 C 
BRANCH   4   5
HETATM    5  C   UNL     1      41.717 -10.606   6.677  1.00  0.00     0.245 C 
HETATM    6  N   UNL     1      43.065 -10.680   6.929  1.00  0.00    -0.357 N 
HETATM    7  H   UNL     1      43.560 -11.517   6.614  1.00  0.00     0.162 HD
HETATM    8  O   UNL     1      41.007  -9.732   7.178  1.00  0.00    -0.271 OA
BRANCH   6   9
HETATM    9  C   UNL     1      43.758  -9.760   7.806  1.00  0.00     0.154 C 
BRANCH   9  10
HETATM   10  C   UNL     1      44.676 -10.437   8.837  1.00  0.00     0.139 C 
HETATM   11  O   UNL     1      43.858 -11.256   9.702  1.00  0.00    -0.384 OA
HETATM   12  C   UNL     1      43.843 -10.680  11.015  1.00  0.00     0.168 C 
HETATM   13  C   UNL     1      44.430  -9.292  10.895  1.00  0.00     0.029 C 
HETATM   14  C   UNL     1      45.404  -9.463   9.756  1.00  0.00     0.035 C 
ENDBRANCH   9  10
ENDBRANCH   6   9
ENDBRANCH   4   5
BRANCH   4  15
HETATM   15  C   UNL     1      40.484 -11.068   4.497  1.00  0.00     0.014 A 
HETATM   16  S   UNL     1      41.366  -9.848   3.643  1.00  0.00    -0.104 SA
HETATM   17  C   UNL     1      40.140  -9.662   2.474  1.00  0.00     0.050 A 
HETATM   18  C   UNL     1      39.085 -10.512   2.697  1.00  0.00     0.008 A 
HETATM   19  C   UNL     1      39.286 -11.325   3.850  1.00  0.00     0.017 A 
ENDBRANCH   4  15
ENDBRANCH   2   4
BRANCH   2  20
HETATM   20  C   UNL     1      42.704 -12.819   4.190  1.00  0.00     0.173 C 
BRANCH  20  21
HETATM   21  C   UNL     1      42.143 -13.779   3.178  1.00  0.00     0.000 A 
HETATM   22  S   UNL     1      43.234 -14.619   2.146  1.00  0.00    -0.105 SA
HETATM   23  C   UNL     1      41.963 -15.423   1.337  1.00  0.00     0.050 A 
HETATM   24  C   UNL     1      40.732 -15.084   1.847  1.00  0.00     0.008 A 
HETATM   25  C   UNL     1      40.836 -14.140   2.910  1.00  0.00     0.017 A 
ENDBRANCH  20  21
ENDBRANCH   2  20
BRANCH   1  26
HETATM   26  C   UNL     1      42.651 -15.172   5.921  1.00  0.00     0.101 A 
HETATM   27  N   UNL     1      42.504 -16.332   5.195  1.00  0.00    -0.351 N 
HETATM   28  C   UNL     1      43.630 -17.123   5.281  1.00  0.00     0.043 A 
HETATM   29  H   UNL     1      41.671 -16.583   4.680  1.00  0.00     0.166 HD
HETATM   30  C   UNL     1      44.539 -16.415   6.047  1.00  0.00     0.033 A 
HETATM   31  C   UNL     1      43.941 -15.189   6.421  1.00  0.00     0.037 A 
BRANCH  28  32
HETATM   32  C   UNL     1      43.738 -18.439   4.644  1.00  0.00    -0.009 A 
HETATM   33  C   UNL     1      43.920 -19.607   5.400  1.00  0.00     0.013 A 
HETATM   34  C   UNL     1      44.013 -20.855   4.779  1.00  0.00     0.001 A 
HETATM   35  C   UNL     1      43.926 -20.954   3.392  1.00  0.00     0.000 A 
HETATM   36  C   UNL     1      43.745 -19.805   2.626  1.00  0.00     0.001 A 
HETATM   37  C   UNL     1      43.652 -18.557   3.249  1.00  0.00     0.013 A 
ENDBRANCH  28  32
ENDBRANCH   1  26
TORSDOF 9
ENDMDL
MODEL 4
REMARK VINA RESULT:      -9.1      1.774      2.589
REMARK  9 active torsions:
REMARK  status: ('A' for Active; 'I' for Inactive)
REMARK    1  A    between atoms: C_4  and  C_5 
REMARK    2  A    between atoms: C_8  and  C_9 
REMARK       I    between atoms: C_9  and  N_10 
REMARK    3  A    between atoms: N_10  and  C_11 
REMARK    4  A    between atoms: N_10  and  C_26 
REMARK    5  A    between atoms: C_11  and  C_12 
REMARK    6  A    between atoms: C_11  and  C_21 
REMARK       I    between atoms: C_12  and  N_13 
REMARK    7  A    between atoms: N_13  and  C_14 
REMARK    8  A    between atoms: C_14  and  C_15 
REMARK    9  A    between atoms: C_26  and  C_27 
ROOT
HETATM    1  C   UNL     1      42.528 -13.392   4.293  1.00  0.00     0.271 C 
HETATM    2  N   UNL     1      41.255 -12.860   4.069  1.00  0.00    -0.324 N 
HETATM    3  O   UNL     1      43.279 -12.924   5.147  1.00  0.00    -0.266 OA
ENDROOT
BRANCH   2   4
HETATM    4  C   UNL     1      40.860 -11.561   4.662  1.00  0.00     0.220 C 
BRANCH   4   5
HETATM    5  C   UNL     1      41.976 -10.748   5.371  1.00  0.00     0.245 C 
HETATM    6  N   UNL     1      42.020 -10.817   6.742  1.00  0.00    -0.357 N 
HETATM    7  H   UNL     1      41.236 -11.266   7.219  1.00  0.00     0.162 HD
HETATM    8  O   UNL     1      42.775 -10.066   4.726  1.00  0.00    -0.271 OA
BRANCH   6   9
HETATM    9  C   UNL     1      42.987 -10.093   7.540  1.00  0.00     0.154 C 
BRANCH   9  10
HETATM   10  C   UNL     1      44.134 -10.960   8.087  1.00  0.00     0.139 C 
HETATM   11  O   UNL     1      44.124 -10.864   9.529  1.00  0.00    -0.384 OA
HETATM   12  C   UNL     1      45.289 -10.148   9.958  1.00  0.00     0.168 C 
HETATM   13  C   UNL     1      45.898  -9.516   8.727  1.00  0.00     0.029 C 
HETATM   14  C   UNL     1      45.521 -10.504   7.652  1.00  0.00     0.035 C 
ENDBRANCH   9  10
ENDBRANCH   6   9
ENDBRANCH   4   5
BRANCH   4  15
HETATM   15  C   UNL     1      40.020 -10.688   3.741  1.00  0.00     0.014 A 
HETATM   16  S   UNL     1      40.790  -9.954   2.376  1.00  0.00    -0.104 SA
HETATM   17  C   UNL     1      39.348  -9.208   1.857  1.00  0.00     0.050 A 
HETATM   18  C   UNL     1      38.289  -9.513   2.677  1.00  0.00     0.008 A 
HETATM   19  C   UNL     1      38.672 -10.369   3.751  1.00  0.00     0.017 A 
ENDBRANCH   4  15
ENDBRANCH   2   4
BRANCH   2  20
HETATM   20  C   UNL     1      40.139 -13.760   3.746  1.00  0.00     0.173 C 
BRANCH  20  21
HETATM   21  C   UNL     1      40.032 -14.002   2.266  1.00  0.00     0.000 A 
HETATM   22  S   UNL     1      39.848 -15.619   1.707  1.00  0.00    -0.105 SA
HETATM   23  C   UNL     1      39.825 -15.127   0.072  1.00  0.00     0.050 A 
HETATM   24  C   UNL     1      39.933 -13.762  -0.057  1.00  0.00     0.008 A 
HETATM   25  C   UNL     1      40.047 -13.113   1.207  1.00  0.00     0.017 A 
ENDBRANCH  20  21
ENDBRANCH   2  20
BRANCH   1  26
HETATM   26  C   UNL     1      42.946 -14.540   3.511  1.00  0.00     0.101 A 
HETATM   27  N   UNL     1      42.949 -15.850   3.933  1.00  0.00    -0.351 N 
HETATM   28  C   UNL     1      43.387 -16.696   2.937  1.00  0.00     0.043 A 
HETATM   29  H   UNL     1      42.683 -16.152   4.860  1.00  0.00     0.166 HD
HETATM   30  C   UNL     1      43.621 -15.898   1.830  1.00  0.00     0.033 A 
HETATM   31  C   UNL     1      43.319 -14.561   2.179  1.00  0.00     0.037 A 
BRANCH  28  32
HETATM   32  C   UNL     1      43.536 -18.144   3.119  1.00  0.00    -0.009 A 
HETATM   33  C   UNL     1      43.229 -19.047   2.091  1.00  0.00     0.013 A 
HETATM   34  C   UNL     1      43.385 -20.423   2.277  1.00  0.00     0.001 A 
HETATM   35  C   UNL     1      43.850 -20.916   3.494  1.00  0.00     0.000 A 
HETATM   36  C   UNL     1      44.160 -20.033   4.525  1.00  0.00     0.001 A 
HETATM   37  C   UNL     1      44.004 -18.656   4.338  1.00  0.00     0.013 A 
ENDBRANCH  28  32
ENDBRANCH   1  26
TORSDOF 9
ENDMDL
MODEL 5
REMARK VINA RESULT:      -9.0      2.160      4.710
REMARK  9 active torsions:
REMARK  status: ('A' for Active; 'I' for Inactive)
REMARK    1  A    between atoms: C_4  and  C_5 
REMARK    2  A    between atoms: C_8  and  C_9 
REMARK       I    between atoms: C_9  and  N_10 
REMARK    3  A    between atoms: N_10  and  C_11 
REMARK    4  A    between atoms: N_10  and  C_26 
REMARK    5  A    between atoms: C_11  and  C_12 
REMARK    6  A    between atoms: C_11  and  C_21 
REMARK       I    between atoms: C_12  and  N_13 
REMARK    7  A    between atoms: N_13  and  C_14 
REMARK    8  A    between atoms: C_14  and  C_15 
REMARK    9  A    between atoms: C_26  and  C_27 
ROOT
HETATM    1  C   UNL     1      43.388 -13.851   6.564  1.00  0.00     0.271 C 
HETATM    2  N   UNL     1      42.676 -13.217   5.543  1.00  0.00    -0.324 N 
HETATM    3  O   UNL     1      43.970 -13.209   7.436  1.00  0.00    -0.266 OA
ENDROOT
BRANCH   2   4
HETATM    4  C   UNL     1      42.806 -11.757   5.319  1.00  0.00     0.220 C 
BRANCH   4   5
HETATM    5  C   UNL     1      42.975 -11.288   3.849  1.00  0.00     0.245 C 
HETATM    6  N   UNL     1      41.834 -10.922   3.178  1.00  0.00    -0.357 N 
HETATM    7  H   UNL     1      40.937 -11.123   3.625  1.00  0.00     0.162 HD
HETATM    8  O   UNL     1      44.085 -11.259   3.313  1.00  0.00    -0.271 OA
BRANCH   6   9
HETATM    9  C   UNL     1      41.833 -10.489   1.797  1.00  0.00     0.154 C 
BRANCH   9  10
HETATM   10  C   UNL     1      40.504 -10.725   1.060  1.00  0.00     0.139 C 
HETATM   11  O   UNL     1      39.782 -11.768   1.752  1.00  0.00    -0.384 OA
HETATM   12  C   UNL     1      39.736 -12.935   0.920  1.00  0.00     0.168 C 
HETATM   13  C   UNL     1      40.717 -12.713  -0.208  1.00  0.00     0.029 C 
HETATM   14  C   UNL     1      40.666 -11.215  -0.374  1.00  0.00     0.035 C 
ENDBRANCH   9  10
ENDBRANCH   6   9
ENDBRANCH   4   5
BRANCH   4  15
HETATM   15  C   UNL     1      41.779 -10.920   6.067  1.00  0.00     0.014 A 
HETATM   16  S   UNL     1      42.341  -9.585   7.015  1.00  0.00    -0.104 SA
HETATM   17  C   UNL     1      40.764  -9.158   7.500  1.00  0.00     0.050 A 
HETATM   18  C   UNL     1      39.816  -9.986   6.950  1.00  0.00     0.008 A 
HETATM   19  C   UNL     1      40.397 -10.989   6.121  1.00  0.00     0.017 A 
ENDBRANCH   4  15
ENDBRANCH   2   4
BRANCH   2  20
HETATM   20  C   UNL     1      41.422 -13.809   5.056  1.00  0.00     0.173 C 
BRANCH  20  21
HETATM   21  C   UNL     1      41.629 -14.570   3.776  1.00  0.00     0.000 A 
HETATM   22  S   UNL     1      40.515 -15.817   3.369  1.00  0.00    -0.105 SA
HETATM   23  C   UNL     1      41.353 -16.195   1.930  1.00  0.00     0.050 A 
HETATM   24  C   UNL     1      42.445 -15.383   1.741  1.00  0.00     0.008 A 
HETATM   25  C   UNL     1      42.603 -14.444   2.802  1.00  0.00     0.017 A 
ENDBRANCH  20  21
ENDBRANCH   2  20
BRANCH   1  26
HETATM   26  C   UNL     1      43.408 -15.301   6.596  1.00  0.00     0.101 A 
HETATM   27  N   UNL     1      43.611 -16.133   5.519  1.00  0.00    -0.351 N 
HETATM   28  C   UNL     1      43.588 -17.458   5.898  1.00  0.00     0.043 A 
HETATM   29  H   UNL     1      43.742 -15.816   4.568  1.00  0.00     0.166 HD
HETATM   30  C   UNL     1      43.414 -17.462   7.271  1.00  0.00     0.033 A 
HETATM   31  C   UNL     1      43.330 -16.120   7.709  1.00  0.00     0.037 A 
BRANCH  28  32
HETATM   32  C   UNL     1      43.732 -18.568   4.951  1.00  0.00    -0.009 A 
HETATM   33  C   UNL     1      43.741 -18.353   3.565  1.00  0.00     0.013 A 
HETATM   34  C   UNL     1      43.889 -19.420   2.675  1.00  0.00     0.001 A 
HETATM   35  C   UNL     1      44.030 -20.719   3.159  1.00  0.00     0.000 A 
HETATM   36  C   UNL     1      44.023 -20.951   4.532  1.00  0.00     0.001 A 
HETATM   37  C   UNL     1      43.876 -19.882   5.421  1.00  0.00     0.013 A 
ENDBRANCH  28  32
ENDBRANCH   1  26
TORSDOF 9
ENDMDL
MODEL 6
REMARK VINA RESULT:      -9.0      3.002      4.320
REMARK  9 active torsions:
REMARK  status: ('A' for Active; 'I' for Inactive)
REMARK    1  A    between atoms: C_4  and  C_5 
REMARK    2  A    between atoms: C_8  and  C_9 
REMARK       I    between atoms: C_9  and  N_10 
REMARK    3  A    between atoms: N_10  and  C_11 
REMARK    4  A    between atoms: N_10  and  C_26 
REMARK    5  A    between atoms: C_11  and  C_12 
REMARK    6  A    between atoms: C_11  and  C_21 
REMARK       I    between atoms: C_12  and  N_13 
REMARK    7  A    between atoms: N_13  and  C_14 
REMARK    8  A    between atoms: C_14  and  C_15 
REMARK    9  A    between atoms: C_26  and  C_27 
ROOT
HETATM    1  C   UNL     1      40.528 -14.045   2.734  1.00  0.00     0.271 C 
HETATM    2  N   UNL     1      40.770 -13.006   3.636  1.00  0.00    -0.324 N 
HETATM    3  O   UNL     1      39.449 -14.155   2.154  1.00  0.00    -0.266 OA
ENDROOT
BRANCH   2   4
HETATM    4  C   UNL     1      39.662 -12.152   4.125  1.00  0.00     0.220 C 
BRANCH   4   5
HETATM    5  C   UNL     1      39.457 -12.085   5.662  1.00  0.00     0.245 C 
HETATM    6  N   UNL     1      39.223 -10.846   6.205  1.00  0.00    -0.357 N 
HETATM    7  H   UNL     1      39.350 -10.032   5.600  1.00  0.00     0.162 HD
HETATM    8  O   UNL     1      39.514 -13.102   6.357  1.00  0.00    -0.271 OA
BRANCH   6   9
HETATM    9  C   UNL     1      39.040 -10.626   7.625  1.00  0.00     0.154 C 
BRANCH   9  10
HETATM   10  C   UNL     1      39.945  -9.533   8.219  1.00  0.00     0.139 C 
HETATM   11  O   UNL     1      39.222  -8.879   9.286  1.00  0.00    -0.384 OA
HETATM   12  C   UNL     1      38.913  -7.537   8.887  1.00  0.00     0.168 C 
HETATM   13  C   UNL     1      39.191  -7.441   7.404  1.00  0.00     0.029 C 
HETATM   14  C   UNL     1      40.317  -8.430   7.235  1.00  0.00     0.035 C 
ENDBRANCH   9  10
ENDBRANCH   6   9
ENDBRANCH   4   5
BRANCH   4  15
HETATM   15  C   UNL     1      39.613 -10.772   3.486  1.00  0.00     0.014 A 
HETATM   16  S   UNL     1      38.330 -10.424   2.378  1.00  0.00    -0.104 SA
HETATM   17  C   UNL     1      38.881  -8.834   2.109  1.00  0.00     0.050 A 
HETATM   18  C   UNL     1      40.001  -8.546   2.850  1.00  0.00     0.008 A 
HETATM   19  C   UNL     1      40.415  -9.654   3.646  1.00  0.00     0.017 A 
ENDBRANCH   4  15
ENDBRANCH   2   4
BRANCH   2  20
HETATM   20  C   UNL     1      42.101 -12.386   3.689  1.00  0.00     0.173 C 
BRANCH  20  21
HETATM   21  C   UNL     1      42.793 -12.668   4.993  1.00  0.00     0.000 A 
HETATM   22  S   UNL     1      43.208 -11.343   6.009  1.00  0.00    -0.105 SA
HETATM   23  C   UNL     1      43.917 -12.367   7.177  1.00  0.00     0.050 A 
HETATM   24  C   UNL     1      43.826 -13.692   6.824  1.00  0.00     0.008 A 
HETATM   25  C   UNL     1      43.174 -13.867   5.568  1.00  0.00     0.017 A 
ENDBRANCH  20  21
ENDBRANCH   2  20
BRANCH   1  26
HETATM   26  C   UNL     1      41.594 -14.991   2.466  1.00  0.00     0.101 A 
HETATM   27  N   UNL     1      41.753 -16.223   3.059  1.00  0.00    -0.351 N 
HETATM   28  C   UNL     1      42.859 -16.879   2.564  1.00  0.00     0.043 A 
HETATM   29  H   UNL     1      41.148 -16.593   3.779  1.00  0.00     0.166 HD
HETATM   30  C   UNL     1      43.390 -16.053   1.587  1.00  0.00     0.033 A 
HETATM   31  C   UNL     1      42.587 -14.893   1.507  1.00  0.00     0.037 A 
BRANCH  28  32
HETATM   32  C   UNL     1      43.298 -18.192   3.046  1.00  0.00    -0.009 A 
HETATM   33  C   UNL     1      43.808 -18.365   4.341  1.00  0.00     0.013 A 
HETATM   34  C   UNL     1      44.214 -19.625   4.788  1.00  0.00     0.001 A 
HETATM   35  C   UNL     1      44.117 -20.731   3.947  1.00  0.00     0.000 A 
HETATM   36  C   UNL     1      43.612 -20.577   2.658  1.00  0.00     0.001 A 
HETATM   37  C   UNL     1      43.206 -19.316   2.212  1.00  0.00     0.013 A 
ENDBRANCH  28  32
ENDBRANCH   1  26
TORSDOF 9
ENDMDL
MODEL 7
REMARK VINA RESULT:      -8.9      3.035      5.874
REMARK  9 active torsions:
REMARK  status: ('A' for Active; 'I' for Inactive)
REMARK    1  A    between atoms: C_4  and  C_5 
REMARK    2  A    between atoms: C_8  and  C_9 
REMARK       I    between atoms: C_9  and  N_10 
REMARK    3  A    between atoms: N_10  and  C_11 
REMARK    4  A    between atoms: N_10  and  C_26 
REMARK    5  A    between atoms: C_11  and  C_12 
REMARK    6  A    between atoms: C_11  and  C_21 
REMARK       I    between atoms: C_12  and  N_13 
REMARK    7  A    between atoms: N_13  and  C_14 
REMARK    8  A    between atoms: C_14  and  C_15 
REMARK    9  A    between atoms: C_26  and  C_27 
ROOT
HETATM    1  C   UNL     1      42.806 -13.065   3.675  1.00  0.00     0.271 C 
HETATM    2  N   UNL     1      41.578 -12.466   3.382  1.00  0.00    -0.324 N 
HETATM    3  O   UNL     1      43.608 -12.542   4.447  1.00  0.00    -0.266 OA
ENDROOT
BRANCH   2   4
HETATM    4  C   UNL     1      41.302 -11.065   3.778  1.00  0.00     0.220 C 
BRANCH   4   5
HETATM    5  C   UNL     1      40.823 -10.103   2.658  1.00  0.00     0.245 C 
HETATM    6  N   UNL     1      41.621  -9.999   1.545  1.00  0.00    -0.357 N 
HETATM    7  H   UNL     1      42.546 -10.432   1.583  1.00  0.00     0.162 HD
HETATM    8  O   UNL     1      39.778  -9.459   2.774  1.00  0.00    -0.271 OA
BRANCH   6   9
HETATM    9  C   UNL     1      41.317  -9.123   0.433  1.00  0.00     0.154 C 
BRANCH   9  10
HETATM   10  C   UNL     1      42.049  -9.479  -0.872  1.00  0.00     0.139 C 
HETATM   11  O   UNL     1      43.128  -8.535  -1.056  1.00  0.00    -0.384 OA
HETATM   12  C   UNL     1      42.830  -7.697  -2.180  1.00  0.00     0.168 C 
HETATM   13  C   UNL     1      41.377  -7.927  -2.530  1.00  0.00     0.029 C 
HETATM   14  C   UNL     1      41.183  -9.366  -2.121  1.00  0.00     0.035 C 
ENDBRANCH   9  10
ENDBRANCH   6   9
ENDBRANCH   4   5
BRANCH   4  15
HETATM   15  C   UNL     1      40.461 -10.932   5.039  1.00  0.00     0.014 A 
HETATM   16  S   UNL     1      41.105 -10.024   6.365  1.00  0.00    -0.104 SA
HETATM   17  C   UNL     1      39.720 -10.282   7.323  1.00  0.00     0.050 A 
HETATM   18  C   UNL     1      38.770 -11.022   6.664  1.00  0.00     0.008 A 
HETATM   19  C   UNL     1      39.190 -11.386   5.351  1.00  0.00     0.017 A 
ENDBRANCH   4  15
ENDBRANCH   2   4
BRANCH   2  20
HETATM   20  C   UNL     1      40.387 -13.306   3.201  1.00  0.00     0.173 C 
BRANCH  20  21
HETATM   21  C   UNL     1      40.172 -13.661   1.755  1.00  0.00     0.000 A 
HETATM   22  S   UNL     1      39.887 -15.308   1.345  1.00  0.00    -0.105 SA
HETATM   23  C   UNL     1      39.777 -14.948  -0.321  1.00  0.00     0.050 A 
HETATM   24  C   UNL     1      39.931 -13.605  -0.569  1.00  0.00     0.008 A 
HETATM   25  C   UNL     1      40.154 -12.863   0.627  1.00  0.00     0.017 A 
ENDBRANCH  20  21
ENDBRANCH   2  20
BRANCH   1  26
HETATM   26  C   UNL     1      43.114 -14.346   3.069  1.00  0.00     0.101 A 
HETATM   27  N   UNL     1      43.136 -15.562   3.713  1.00  0.00    -0.351 N 
HETATM   28  C   UNL     1      43.447 -16.584   2.842  1.00  0.00     0.043 A 
HETATM   29  H   UNL     1      42.965 -15.690   4.700  1.00  0.00     0.166 HD
HETATM   30  C   UNL     1      43.578 -15.999   1.594  1.00  0.00     0.033 A 
HETATM   31  C   UNL     1      43.343 -14.612   1.731  1.00  0.00     0.037 A 
BRANCH  28  32
HETATM   32  C   UNL     1      43.585 -17.983   3.259  1.00  0.00    -0.009 A 
HETATM   33  C   UNL     1      43.351 -19.041   2.368  1.00  0.00     0.013 A 
HETATM   34  C   UNL     1      43.496 -20.369   2.779  1.00  0.00     0.001 A 
HETATM   35  C   UNL     1      43.876 -20.658   4.087  1.00  0.00     0.000 A 
HETATM   36  C   UNL     1      44.112 -19.620   4.985  1.00  0.00     0.001 A 
HETATM   37  C   UNL     1      43.968 -18.292   4.573  1.00  0.00     0.013 A 
ENDBRANCH  28  32
ENDBRANCH   1  26
TORSDOF 9
ENDMDL
MODEL 8
REMARK VINA RESULT:      -8.8      2.356      8.406
REMARK  9 active torsions:
REMARK  status: ('A' for Active; 'I' for Inactive)
REMARK    1  A    between atoms: C_4  and  C_5 
REMARK    2  A    between atoms: C_8  and  C_9 
REMARK       I    between atoms: C_9  and  N_10 
REMARK    3  A    between atoms: N_10  and  C_11 
REMARK    4  A    between atoms: N_10  and  C_26 
REMARK    5  A    between atoms: C_11  and  C_12 
REMARK    6  A    between atoms: C_11  and  C_21 
REMARK       I    between atoms: C_12  and  N_13 
REMARK    7  A    between atoms: N_13  and  C_14 
REMARK    8  A    between atoms: C_14  and  C_15 
REMARK    9  A    between atoms: C_26  and  C_27 
ROOT
HETATM    1  C   UNL     1      43.910 -11.840   7.099  1.00  0.00     0.271 C 
HETATM    2  N   UNL     1      42.733 -11.562   6.398  1.00  0.00    -0.324 N 
HETATM    3  O   UNL     1      44.659 -12.754   6.759  1.00  0.00    -0.266 OA
ENDROOT
BRANCH   2   4
HETATM    4  C   UNL     1      42.210 -12.510   5.386  1.00  0.00     0.220 C 
BRANCH   4   5
HETATM    5  C   UNL     1      43.059 -12.697   4.100  1.00  0.00     0.245 C 
HETATM    6  N   UNL     1      42.835 -13.838   3.368  1.00  0.00    -0.357 N 
HETATM    7  H   UNL     1      42.246 -14.560   3.786  1.00  0.00     0.162 HD
HETATM    8  O   UNL     1      43.899 -11.861   3.763  1.00  0.00    -0.271 OA
BRANCH   6   9
HETATM    9  C   UNL     1      43.568 -14.161   2.162  1.00  0.00     0.154 C 
BRANCH   9  10
HETATM   10  C   UNL     1      43.096 -15.443   1.457  1.00  0.00     0.139 C 
HETATM   11  O   UNL     1      41.685 -15.308   1.171  1.00  0.00    -0.384 OA
HETATM   12  C   UNL     1      40.952 -16.229   1.990  1.00  0.00     0.168 C 
HETATM   13  C   UNL     1      41.911 -16.749   3.037  1.00  0.00     0.029 C 
HETATM   14  C   UNL     1      43.227 -16.703   2.304  1.00  0.00     0.035 C 
ENDBRANCH   9  10
ENDBRANCH   6   9
ENDBRANCH   4   5
BRANCH   4  15
HETATM   15  C   UNL     1      41.750 -13.841   5.961  1.00  0.00     0.014 A 
HETATM   16  S   UNL     1      40.049 -14.153   6.051  1.00  0.00    -0.104 SA
HETATM   17  C   UNL     1      40.285 -15.700   6.728  1.00  0.00     0.050 A 
HETATM   18  C   UNL     1      41.617 -16.000   6.872  1.00  0.00     0.008 A 
HETATM   19  C   UNL     1      42.456 -14.939   6.423  1.00  0.00     0.017 A 
ENDBRANCH   4  15
ENDBRANCH   2   4
BRANCH   2  20
HETATM   20  C   UNL     1      42.306 -10.168   6.222  1.00  0.00     0.173 C 
BRANCH  20  21
HETATM   21  C   UNL     1      40.879 -10.079   5.756  1.00  0.00     0.000 A 
HETATM   22  S   UNL     1      39.621 -10.351   6.899  1.00  0.00    -0.105 SA
HETATM   23  C   UNL     1      38.405 -10.126   5.721  1.00  0.00     0.050 A 
HETATM   24  C   UNL     1      38.932  -9.828   4.487  1.00  0.00     0.008 A 
HETATM   25  C   UNL     1      40.357  -9.796   4.508  1.00  0.00     0.017 A 
ENDBRANCH  20  21
ENDBRANCH   2  20
BRANCH   1  26
HETATM   26  C   UNL     1      44.254 -11.005   8.233  1.00  0.00     0.101 A 
HETATM   27  N   UNL     1      43.471 -10.781   9.342  1.00  0.00    -0.351 N 
HETATM   28  C   UNL     1      44.103  -9.952  10.244  1.00  0.00     0.043 A 
HETATM   29  H   UNL     1      42.543 -11.160   9.473  1.00  0.00     0.166 HD
HETATM   30  C   UNL     1      45.351  -9.682   9.707  1.00  0.00     0.033 A 
HETATM   31  C   UNL     1      45.455 -10.360   8.471  1.00  0.00     0.037 A 
BRANCH  28  32
HETATM   32  C   UNL     1      43.486  -9.506  11.497  1.00  0.00    -0.009 A 
HETATM   33  C   UNL     1      42.676 -10.361  12.259  1.00  0.00     0.013 A 
HETATM   34  C   UNL     1      42.102  -9.924  13.457  1.00  0.00     0.001 A 
HETATM   35  C   UNL     1      42.330  -8.626  13.908  1.00  0.00     0.000 A 
HETATM   36  C   UNL     1      43.133  -7.765  13.164  1.00  0.00     0.001 A 
HETATM   37  C   UNL     1      43.706  -8.203  11.967  1.00  0.00     0.013 A 
ENDBRANCH  28  32
ENDBRANCH   1  26
TORSDOF 9
ENDMDL
MODEL 9
REMARK VINA RESULT:      -8.7      2.456      8.443
REMARK  9 active torsions:
REMARK  status: ('A' for Active; 'I' for Inactive)
REMARK    1  A    between atoms: C_4  and  C_5 
REMARK    2  A    between atoms: C_8  and  C_9 
REMARK       I    between atoms: C_9  and  N_10 
REMARK    3  A    between atoms: N_10  and  C_11 
REMARK    4  A    between atoms: N_10  and  C_26 
REMARK    5  A    between atoms: C_11  and  C_12 
REMARK    6  A    between atoms: C_11  and  C_21 
REMARK       I    between atoms: C_12  and  N_13 
REMARK    7  A    between atoms: N_13  and  C_14 
REMARK    8  A    between atoms: C_14  and  C_15 
REMARK    9  A    between atoms: C_26  and  C_27 
ROOT
HETATM    1  C   UNL     1      43.951 -11.724   7.232  1.00  0.00     0.271 C 
HETATM    2  N   UNL     1      42.887 -11.704   6.327  1.00  0.00    -0.324 N 
HETATM    3  O   UNL     1      44.824 -12.588   7.178  1.00  0.00    -0.266 OA
ENDROOT
BRANCH   2   4
HETATM    4  C   UNL     1      42.624 -12.860   5.437  1.00  0.00     0.220 C 
BRANCH   4   5
HETATM    5  C   UNL     1      42.572 -14.259   6.107  1.00  0.00     0.245 C 
HETATM    6  N   UNL     1      43.646 -15.089   5.898  1.00  0.00    -0.357 N 
HETATM    7  H   UNL     1      44.335 -14.805   5.199  1.00  0.00     0.162 HD
HETATM    8  O   UNL     1      41.602 -14.606   6.785  1.00  0.00    -0.271 OA
BRANCH   6   9
HETATM    9  C   UNL     1      43.726 -16.431   6.436  1.00  0.00     0.154 C 
BRANCH   9  10
HETATM   10  C   UNL     1      42.971 -17.490   5.614  1.00  0.00     0.139 C 
HETATM   11  O   UNL     1      43.302 -18.793   6.145  1.00  0.00    -0.384 OA
HETATM   12  C   UNL     1      44.089 -19.504   5.181  1.00  0.00     0.168 C 
HETATM   13  C   UNL     1      44.518 -18.501   4.133  1.00  0.00     0.029 C 
HETATM   14  C   UNL     1      43.364 -17.530   4.142  1.00  0.00     0.035 C 
ENDBRANCH   9  10
ENDBRANCH   6   9
ENDBRANCH   4   5
BRANCH   4  15
HETATM   15  C   UNL     1      41.468 -12.650   4.471  1.00  0.00     0.014 A 
HETATM   16  S   UNL     1      41.833 -12.311   2.813  1.00  0.00    -0.104 SA
HETATM   17  C   UNL     1      40.187 -12.218   2.382  1.00  0.00     0.050 A 
HETATM   18  C   UNL     1      39.362 -12.455   3.454  1.00  0.00     0.008 A 
HETATM   19  C   UNL     1      40.096 -12.712   4.649  1.00  0.00     0.017 A 
ENDBRANCH   4  15
ENDBRANCH   2   4
BRANCH   2  20
HETATM   20  C   UNL     1      42.373 -10.417   5.839  1.00  0.00     0.173 C 
BRANCH  20  21
HETATM   21  C   UNL     1      41.338  -9.845   6.767  1.00  0.00     0.000 A 
HETATM   22  S   UNL     1      41.429  -8.175   7.175  1.00  0.00    -0.105 SA
HETATM   23  C   UNL     1      40.060  -8.275   8.191  1.00  0.00     0.050 A 
HETATM   24  C   UNL     1      39.524  -9.540   8.210  1.00  0.00     0.008 A 
HETATM   25  C   UNL     1      40.257 -10.444   7.387  1.00  0.00     0.017 A 
ENDBRANCH  20  21
ENDBRANCH   2  20
BRANCH   1  26
HETATM   26  C   UNL     1      44.028 -10.678   8.234  1.00  0.00     0.101 A 
HETATM   27  N   UNL     1      43.360 -10.658   9.437  1.00  0.00    -0.351 N 
HETATM   28  C   UNL     1      43.670  -9.528  10.163  1.00  0.00     0.043 A 
HETATM   29  H   UNL     1      42.711 -11.370   9.742  1.00  0.00     0.166 HD
HETATM   30  C   UNL     1      44.605  -8.835   9.414  1.00  0.00     0.033 A 
HETATM   31  C   UNL     1      44.848  -9.564   8.228  1.00  0.00     0.037 A 
BRANCH  28  32
HETATM   32  C   UNL     1      43.071  -9.220  11.466  1.00  0.00    -0.009 A 
HETATM   33  C   UNL     1      41.989  -9.958  11.968  1.00  0.00     0.013 A 
HETATM   34  C   UNL     1      41.435  -9.657  13.215  1.00  0.00     0.001 A 
HETATM   35  C   UNL     1      41.954  -8.613  13.978  1.00  0.00     0.000 A 
HETATM   36  C   UNL     1      43.029  -7.871  13.494  1.00  0.00     0.001 A 
HETATM   37  C   UNL     1      43.582  -8.173  12.247  1.00  0.00     0.013 A 
ENDBRANCH  28  32
ENDBRANCH   1  26
TORSDOF 9
ENDMDL
MODEL 10
REMARK VINA RESULT:      -8.7      2.737      4.547
REMARK  9 active torsions:
REMARK  status: ('A' for Active; 'I' for Inactive)
REMARK    1  A    between atoms: C_4  and  C_5 
REMARK    2  A    between atoms: C_8  and  C_9 
REMARK       I    between atoms: C_9  and  N_10 
REMARK    3  A    between atoms: N_10  and  C_11 
REMARK    4  A    between atoms: N_10  and  C_26 
REMARK    5  A    between atoms: C_11  and  C_12 
REMARK    6  A    between atoms: C_11  and  C_21 
REMARK       I    between atoms: C_12  and  N_13 
REMARK    7  A    between atoms: N_13  and  C_14 
REMARK    8  A    between atoms: C_14  and  C_15 
REMARK    9  A    between atoms: C_26  and  C_27 
ROOT
HETATM    1  C   UNL     1      43.154 -13.246   3.402  1.00  0.00     0.271 C 
HETATM    2  N   UNL     1      43.008 -12.757   4.703  1.00  0.00    -0.324 N 
HETATM    3  O   UNL     1      43.673 -12.570   2.516  1.00  0.00    -0.266 OA
ENDROOT
BRANCH   2   4
HETATM    4  C   UNL     1      43.230 -11.323   5.004  1.00  0.00     0.220 C 
BRANCH   4   5
HETATM    5  C   UNL     1      42.019 -10.372   4.807  1.00  0.00     0.245 C 
HETATM    6  N   UNL     1      40.769 -10.941   4.844  1.00  0.00    -0.357 N 
HETATM    7  H   UNL     1      40.713 -11.961   4.843  1.00  0.00     0.162 HD
HETATM    8  O   UNL     1      42.181  -9.165   4.617  1.00  0.00    -0.271 OA
BRANCH   6   9
HETATM    9  C   UNL     1      39.550 -10.185   4.650  1.00  0.00     0.154 C 
BRANCH   9  10
HETATM   10  C   UNL     1      38.665 -10.077   5.903  1.00  0.00     0.139 C 
HETATM   11  O   UNL     1      38.379  -8.679   6.135  1.00  0.00    -0.384 OA
HETATM   12  C   UNL     1      39.049  -8.256   7.330  1.00  0.00     0.168 C 
HETATM   13  C   UNL     1      40.028  -9.348   7.697  1.00  0.00     0.029 C 
HETATM   14  C   UNL     1      39.330 -10.580   7.180  1.00  0.00     0.035 C 
ENDBRANCH   9  10
ENDBRANCH   6   9
ENDBRANCH   4   5
BRANCH   4  15
HETATM   15  C   UNL     1      43.941 -11.069   6.325  1.00  0.00     0.014 A 
HETATM   16  S   UNL     1      45.664 -11.234   6.376  1.00  0.00    -0.104 SA
HETATM   17  C   UNL     1      45.738 -10.821   8.028  1.00  0.00     0.050 A 
HETATM   18  C   UNL     1      44.496 -10.542   8.544  1.00  0.00     0.008 A 
HETATM   19  C   UNL     1      43.468 -10.674   7.565  1.00  0.00     0.017 A 
ENDBRANCH   4  15
ENDBRANCH   2   4
BRANCH   2  20
HETATM   20  C   UNL     1      43.185 -13.665   5.844  1.00  0.00     0.173 C 
BRANCH  20  21
HETATM   21  C   UNL     1      41.918 -14.410   6.162  1.00  0.00     0.000 A 
HETATM   22  S   UNL     1      42.031 -16.051   6.666  1.00  0.00    -0.105 SA
HETATM   23  C   UNL     1      40.335 -16.202   6.802  1.00  0.00     0.050 A 
HETATM   24  C   UNL     1      39.688 -15.029   6.494  1.00  0.00     0.008 A 
HETATM   25  C   UNL     1      40.599 -13.995   6.130  1.00  0.00     0.017 A 
ENDBRANCH  20  21
ENDBRANCH   2  20
BRANCH   1  26
HETATM   26  C   UNL     1      42.705 -14.595   3.116  1.00  0.00     0.101 A 
HETATM   27  N   UNL     1      43.389 -15.755   3.403  1.00  0.00    -0.351 N 
HETATM   28  C   UNL     1      42.672 -16.867   3.016  1.00  0.00     0.043 A 
HETATM   29  H   UNL     1      44.306 -15.788   3.826  1.00  0.00     0.166 HD
HETATM   30  C   UNL     1      41.472 -16.395   2.512  1.00  0.00     0.033 A 
HETATM   31  C   UNL     1      41.482 -14.984   2.600  1.00  0.00     0.037 A 
BRANCH  28  32
HETATM   32  C   UNL     1      43.175 -18.237   3.159  1.00  0.00    -0.009 A 
HETATM   33  C   UNL     1      43.077 -19.166   2.112  1.00  0.00     0.013 A 
HETATM   34  C   UNL     1      43.570 -20.466   2.260  1.00  0.00     0.001 A 
HETATM   35  C   UNL     1      44.166 -20.855   3.457  1.00  0.00     0.000 A 
HETATM   36  C   UNL     1      44.271 -19.945   4.506  1.00  0.00     0.001 A 
HETATM   37  C   UNL     1      43.779 -18.646   4.356  1.00  0.00     0.013 A 
ENDBRANCH  28  32
ENDBRANCH   1  26
TORSDOF 9
ENDMDL
