MODEL 1
REMARK VINA RESULT:      -8.9      0.000      0.000
REMARK  3 active torsions:
REMARK  status: ('A' for Active; 'I' for Inactive)
REMARK    1  A    between atoms: C_2  and  C_3 
REMARK    2  A    between atoms: C_6  and  C_7 
REMARK       I    between atoms: C_7  and  N_8 
REMARK    3  A    between atoms: N_8  and  N_9 
ROOT
HETATM    1  C   UNL     1      42.798 -14.761   4.674  1.00  0.00    -0.021 A 
HETATM    2  C   UNL     1      43.321 -15.116   5.931  1.00  0.00     0.011 A 
HETATM    3  C   UNL     1      43.892 -14.161   6.787  1.00  0.00     0.018 A 
HETATM    4  C   UNL     1      43.953 -12.818   6.404  1.00  0.00     0.033 A 
HETATM    5  C   UNL     1      43.418 -12.452   5.163  1.00  0.00     0.018 A 
HETATM    6  C   UNL     1      42.842 -13.404   4.317  1.00  0.00     0.011 A 
ENDROOT
BRANCH   4   7
HETATM    7  C   UNL     1      44.522 -11.730   7.260  1.00  0.00     0.266 C 
HETATM    8  N   UNL     1      43.715 -11.228   8.279  1.00  0.00    -0.284 N 
HETATM    9  H   UNL     1      42.822 -11.652   8.500  1.00  0.00     0.184 HD
HETATM   10  O   UNL     1      45.663 -11.335   7.031  1.00  0.00    -0.266 OA
BRANCH   8  11
HETATM   11  N   UNL     1      44.144 -10.197   9.151  1.00  0.00    -0.220 NA
HETATM   12  C   UNL     1      43.565  -8.861   8.844  1.00  0.00     0.153 C 
HETATM   13  C   UNL     1      43.256  -8.242  10.169  1.00  0.00    -0.036 A 
HETATM   14  C   UNL     1      43.449  -9.177  11.183  1.00  0.00    -0.036 A 
HETATM   15  C   UNL     1      42.797  -6.966  10.449  1.00  0.00     0.009 A 
HETATM   16  C   UNL     1      43.911 -10.473  10.595  1.00  0.00     0.153 C 
HETATM   17  C   UNL     1      43.183  -8.866  12.505  1.00  0.00     0.009 A 
HETATM   18  C   UNL     1      42.720  -7.582  12.802  1.00  0.00     0.001 A 
HETATM   19  C   UNL     1      42.529  -6.638  11.780  1.00  0.00     0.001 A 
ENDBRANCH   8  11
ENDBRANCH   4   7
BRANCH   1  20
HETATM   20  C   UNL     1      42.129 -15.792   3.769  1.00  0.00     0.139 A 
HETATM   21  C   UNL     1      42.922 -17.096   3.728  1.00  0.00     0.054 C 
HETATM   22  N   UNL     1      41.910 -15.283   2.426  1.00  0.00    -0.321 N 
HETATM   23  C   UNL     1      40.586 -15.238   2.077  1.00  0.00     0.324 A 
HETATM   24  H   UNL     1      42.626 -15.042   1.757  1.00  0.00     0.165 HD
HETATM   25  O   UNL     1      40.167 -14.894   0.988  1.00  0.00    -0.247 OA
HETATM   26  N   UNL     1      39.846 -15.668   3.119  1.00  0.00    -0.277 N 
HETATM   27  C   UNL     1      40.648 -16.090   4.133  1.00  0.00     0.258 A 
HETATM   28  H   UNL     1      38.847 -15.781   3.094  1.00  0.00     0.173 HD
HETATM   29  O   UNL     1      40.236 -16.642   5.144  1.00  0.00    -0.270 OA
ENDBRANCH   1  20
TORSDOF 3
ENDMDL
MODEL 2
REMARK VINA RESULT:      -8.6      1.307      1.967
REMARK  3 active torsions:
REMARK  status: ('A' for Active; 'I' for Inactive)
REMARK    1  A    between atoms: C_2  and  C_3 
REMARK    2  A    between atoms: C_6  and  C_7 
REMARK       I    between atoms: C_7  and  N_8 
REMARK    3  A    between atoms: N_8  and  N_9 
ROOT
HETATM    1  C   UNL     1      42.806 -14.845   4.695  1.00  0.00    -0.021 A 
HETATM    2  C   UNL     1      43.291 -15.113   5.990  1.00  0.00     0.011 A 
HETATM    3  C   UNL     1      43.827 -14.098   6.799  1.00  0.00     0.018 A 
HETATM    4  C   UNL     1      43.891 -12.783   6.330  1.00  0.00     0.033 A 
HETATM    5  C   UNL     1      43.392 -12.503   5.052  1.00  0.00     0.018 A 
HETATM    6  C   UNL     1      42.851 -13.514   4.252  1.00  0.00     0.011 A 
ENDROOT
BRANCH   4   7
HETATM    7  C   UNL     1      44.423 -11.636   7.131  1.00  0.00     0.266 C 
HETATM    8  N   UNL     1      43.753 -11.309   8.308  1.00  0.00    -0.284 N 
HETATM    9  H   UNL     1      43.001 -11.887   8.663  1.00  0.00     0.184 HD
HETATM   10  O   UNL     1      45.419 -11.042   6.720  1.00  0.00    -0.266 OA
BRANCH   8  11
HETATM   11  N   UNL     1      44.164 -10.242   9.146  1.00  0.00    -0.220 NA
HETATM   12  C   UNL     1      43.535  -8.934   8.816  1.00  0.00     0.153 C 
HETATM   13  C   UNL     1      43.230  -8.293  10.132  1.00  0.00    -0.036 A 
HETATM   14  C   UNL     1      43.473  -9.196  11.165  1.00  0.00    -0.036 A 
HETATM   15  C   UNL     1      42.734  -7.026  10.389  1.00  0.00     0.009 A 
HETATM   16  C   UNL     1      43.967 -10.490  10.600  1.00  0.00     0.153 C 
HETATM   17  C   UNL     1      43.221  -8.860  12.484  1.00  0.00     0.009 A 
HETATM   18  C   UNL     1      42.721  -7.584  12.757  1.00  0.00     0.001 A 
HETATM   19  C   UNL     1      42.480  -6.673  11.716  1.00  0.00     0.001 A 
ENDBRANCH   8  11
ENDBRANCH   4   7
BRANCH   1  20
HETATM   20  C   UNL     1      42.173 -15.940   3.840  1.00  0.00     0.139 A 
HETATM   21  C   UNL     1      40.673 -16.055   4.102  1.00  0.00     0.054 C 
HETATM   22  N   UNL     1      42.826 -17.224   4.023  1.00  0.00    -0.321 N 
HETATM   23  C   UNL     1      43.392 -17.709   2.874  1.00  0.00     0.324 A 
HETATM   24  H   UNL     1      42.828 -17.775   4.869  1.00  0.00     0.165 HD
HETATM   25  O   UNL     1      43.949 -18.787   2.775  1.00  0.00    -0.247 OA
HETATM   26  N   UNL     1      43.196 -16.817   1.882  1.00  0.00    -0.277 N 
HETATM   27  C   UNL     1      42.428 -15.781   2.316  1.00  0.00     0.258 A 
HETATM   28  H   UNL     1      43.470 -16.966   0.926  1.00  0.00     0.173 HD
HETATM   29  O   UNL     1      41.999 -14.898   1.586  1.00  0.00    -0.270 OA
ENDBRANCH   1  20
TORSDOF 3
ENDMDL
MODEL 3
REMARK VINA RESULT:      -8.0      3.236      9.702
REMARK  3 active torsions:
REMARK  status: ('A' for Active; 'I' for Inactive)
REMARK    1  A    between atoms: C_2  and  C_3 
REMARK    2  A    between atoms: C_6  and  C_7 
REMARK       I    between atoms: C_7  and  N_8 
REMARK    3  A    between atoms: N_8  and  N_9 
ROOT
HETATM    1  C   UNL     1      42.736  -8.458  11.369  1.00  0.00    -0.021 A 
HETATM    2  C   UNL     1      42.044  -8.616  10.153  1.00  0.00     0.011 A 
HETATM    3  C   UNL     1      42.529  -9.451   9.134  1.00  0.00     0.018 A 
HETATM    4  C   UNL     1      43.725 -10.153   9.307  1.00  0.00     0.033 A 
HETATM    5  C   UNL     1      44.410 -10.017  10.521  1.00  0.00     0.018 A 
HETATM    6  C   UNL     1      43.920  -9.192  11.537  1.00  0.00     0.011 A 
ENDROOT
BRANCH   4   7
HETATM    7  C   UNL     1      44.305 -11.081   8.287  1.00  0.00     0.266 C 
HETATM    8  N   UNL     1      43.413 -11.790   7.485  1.00  0.00    -0.284 N 
HETATM    9  H   UNL     1      42.417 -11.608   7.518  1.00  0.00     0.184 HD
HETATM   10  O   UNL     1      45.528 -11.173   8.201  1.00  0.00    -0.266 OA
BRANCH   8  11
HETATM   11  N   UNL     1      43.845 -12.699   6.486  1.00  0.00    -0.220 NA
HETATM   12  C   UNL     1      43.595 -14.128   6.817  1.00  0.00     0.153 C 
HETATM   13  C   UNL     1      43.150 -14.764   5.539  1.00  0.00    -0.036 A 
HETATM   14  C   UNL     1      42.963 -13.786   4.565  1.00  0.00    -0.036 A 
HETATM   15  C   UNL     1      42.889 -16.098   5.275  1.00  0.00     0.009 A 
HETATM   16  C   UNL     1      43.284 -12.439   5.132  1.00  0.00     0.153 C 
HETATM   17  C   UNL     1      42.503 -14.112   3.301  1.00  0.00     0.009 A 
HETATM   18  C   UNL     1      42.236 -15.454   3.021  1.00  0.00     0.001 A 
HETATM   19  C   UNL     1      42.429 -16.441   4.002  1.00  0.00     0.001 A 
ENDBRANCH   8  11
ENDBRANCH   4   7
BRANCH   1  20
HETATM   20  C   UNL     1      42.178  -7.592  12.496  1.00  0.00     0.139 A 
HETATM   21  C   UNL     1      43.188  -7.436  13.631  1.00  0.00     0.054 C 
HETATM   22  N   UNL     1      40.913  -8.099  13.001  1.00  0.00    -0.321 N 
HETATM   23  C   UNL     1      39.876  -7.218  12.838  1.00  0.00     0.324 A 
HETATM   24  H   UNL     1      40.775  -8.970  13.492  1.00  0.00     0.165 HD
HETATM   25  O   UNL     1      38.739  -7.406  13.227  1.00  0.00    -0.247 OA
HETATM   26  N   UNL     1      40.337  -6.114  12.215  1.00  0.00    -0.277 N 
HETATM   27  C   UNL     1      41.684  -6.193  12.037  1.00  0.00     0.258 A 
HETATM   28  H   UNL     1      39.782  -5.297  12.029  1.00  0.00     0.173 HD
HETATM   29  O   UNL     1      42.370  -5.274  11.610  1.00  0.00    -0.270 OA
ENDBRANCH   1  20
TORSDOF 3
ENDMDL
MODEL 4
REMARK VINA RESULT:      -7.8      3.322      5.246
REMARK  3 active torsions:
REMARK  status: ('A' for Active; 'I' for Inactive)
REMARK    1  A    between atoms: C_2  and  C_3 
REMARK    2  A    between atoms: C_6  and  C_7 
REMARK       I    between atoms: C_7  and  N_8 
REMARK    3  A    between atoms: N_8  and  N_9 
ROOT
HETATM    1  C   UNL     1      40.383 -13.548   0.320  1.00  0.00    -0.021 A 
HETATM    2  C   UNL     1      40.204 -14.647   1.183  1.00  0.00     0.011 A 
HETATM    3  C   UNL     1      40.654 -14.619   2.512  1.00  0.00     0.018 A 
HETATM    4  C   UNL     1      41.297 -13.485   3.016  1.00  0.00     0.033 A 
HETATM    5  C   UNL     1      41.462 -12.379   2.171  1.00  0.00     0.018 A 
HETATM    6  C   UNL     1      41.005 -12.407   0.850  1.00  0.00     0.011 A 
ENDROOT
BRANCH   4   7
HETATM    7  C   UNL     1      41.788 -13.358   4.424  1.00  0.00     0.266 C 
HETATM    8  N   UNL     1      42.470 -12.191   4.762  1.00  0.00    -0.284 N 
HETATM    9  H   UNL     1      42.540 -11.416   4.114  1.00  0.00     0.184 HD
HETATM   10  O   UNL     1      41.566 -14.276   5.210  1.00  0.00    -0.266 OA
BRANCH   8  11
HETATM   11  N   UNL     1      42.981 -11.959   6.064  1.00  0.00    -0.220 NA
HETATM   12  C   UNL     1      44.467 -11.975   6.143  1.00  0.00     0.153 C 
HETATM   13  C   UNL     1      44.831 -10.868   7.080  1.00  0.00    -0.036 A 
HETATM   14  C   UNL     1      43.696 -10.126   7.397  1.00  0.00    -0.036 A 
HETATM   15  C   UNL     1      46.076 -10.521   7.576  1.00  0.00     0.009 A 
HETATM   16  C   UNL     1      42.504 -10.701   6.699  1.00  0.00     0.153 C 
HETATM   17  C   UNL     1      43.774  -9.011   8.213  1.00  0.00     0.009 A 
HETATM   18  C   UNL     1      45.024  -8.649   8.721  1.00  0.00     0.001 A 
HETATM   19  C   UNL     1      46.168  -9.400   8.404  1.00  0.00     0.001 A 
ENDBRANCH   8  11
ENDBRANCH   4   7
BRANCH   1  20
HETATM   20  C   UNL     1      39.844 -13.561  -1.108  1.00  0.00     0.139 A 
HETATM   21  C   UNL     1      39.245 -14.919  -1.466  1.00  0.00     0.054 C 
HETATM   22  N   UNL     1      40.853 -13.174  -2.078  1.00  0.00    -0.321 N 
HETATM   23  C   UNL     1      40.525 -12.039  -2.773  1.00  0.00     0.324 A 
HETATM   24  H   UNL     1      41.690 -13.690  -2.303  1.00  0.00     0.165 HD
HETATM   25  O   UNL     1      41.194 -11.556  -3.668  1.00  0.00    -0.247 OA
HETATM   26  N   UNL     1      39.337 -11.583  -2.326  1.00  0.00    -0.277 N 
HETATM   27  C   UNL     1      38.812 -12.438  -1.407  1.00  0.00     0.258 A 
HETATM   28  H   UNL     1      38.853 -10.793  -2.716  1.00  0.00     0.173 HD
HETATM   29  O   UNL     1      37.690 -12.326  -0.935  1.00  0.00    -0.270 OA
ENDBRANCH   1  20
TORSDOF 3
ENDMDL
MODEL 5
REMARK VINA RESULT:      -7.8      3.511      9.996
REMARK  3 active torsions:
REMARK  status: ('A' for Active; 'I' for Inactive)
REMARK    1  A    between atoms: C_2  and  C_3 
REMARK    2  A    between atoms: C_6  and  C_7 
REMARK       I    between atoms: C_7  and  N_8 
REMARK    3  A    between atoms: N_8  and  N_9 
ROOT
HETATM    1  C   UNL     1      42.327  -7.960  11.639  1.00  0.00    -0.021 A 
HETATM    2  C   UNL     1      41.674  -8.260  10.428  1.00  0.00     0.011 A 
HETATM    3  C   UNL     1      42.249  -9.116   9.476  1.00  0.00     0.018 A 
HETATM    4  C   UNL     1      43.497  -9.698   9.713  1.00  0.00     0.033 A 
HETATM    5  C   UNL     1      44.146  -9.421  10.923  1.00  0.00     0.018 A 
HETATM    6  C   UNL     1      43.567  -8.575  11.873  1.00  0.00     0.011 A 
ENDROOT
BRANCH   4   7
HETATM    7  C   UNL     1      44.174 -10.639   8.766  1.00  0.00     0.266 C 
HETATM    8  N   UNL     1      43.410 -11.162   7.725  1.00  0.00    -0.284 N 
HETATM    9  H   UNL     1      42.466 -10.840   7.553  1.00  0.00     0.184 HD
HETATM   10  O   UNL     1      45.362 -10.903   8.946  1.00  0.00    -0.266 OA
BRANCH   8  11
HETATM   11  N   UNL     1      43.942 -12.064   6.770  1.00  0.00    -0.220 NA
HETATM   12  C   UNL     1      43.445 -13.460   6.909  1.00  0.00     0.153 C 
HETATM   13  C   UNL     1      43.229 -13.950   5.514  1.00  0.00    -0.036 A 
HETATM   14  C   UNL     1      43.395 -12.901   4.613  1.00  0.00    -0.036 A 
HETATM   15  C   UNL     1      42.869 -15.216   5.081  1.00  0.00     0.009 A 
HETATM   16  C   UNL     1      43.744 -11.649   5.354  1.00  0.00     0.153 C 
HETATM   17  C   UNL     1      43.200 -13.084   3.255  1.00  0.00     0.009 A 
HETATM   18  C   UNL     1      42.838 -14.356   2.805  1.00  0.00     0.001 A 
HETATM   19  C   UNL     1      42.675 -15.415   3.713  1.00  0.00     0.001 A 
ENDBRANCH   8  11
ENDBRANCH   4   7
BRANCH   1  20
HETATM   20  C   UNL     1      41.675  -7.073  12.696  1.00  0.00     0.139 A 
HETATM   21  C   UNL     1      41.075  -5.813  12.075  1.00  0.00     0.054 C 
HETATM   22  N   UNL     1      42.596  -6.728  13.766  1.00  0.00    -0.321 N 
HETATM   23  C   UNL     1      42.191  -7.184  14.993  1.00  0.00     0.324 A 
HETATM   24  H   UNL     1      43.422  -6.155  13.678  1.00  0.00     0.165 HD
HETATM   25  O   UNL     1      42.776  -6.974  16.039  1.00  0.00    -0.247 OA
HETATM   26  N   UNL     1      41.035  -7.862  14.845  1.00  0.00    -0.277 N 
HETATM   27  C   UNL     1      40.602  -7.794  13.557  1.00  0.00     0.258 A 
HETATM   28  H   UNL     1      40.506  -8.249  15.607  1.00  0.00     0.173 HD
HETATM   29  O   UNL     1      39.519  -8.218  13.179  1.00  0.00    -0.270 OA
ENDBRANCH   1  20
TORSDOF 3
ENDMDL
MODEL 6
REMARK VINA RESULT:      -7.7      7.040     10.323
REMARK  3 active torsions:
REMARK  status: ('A' for Active; 'I' for Inactive)
REMARK    1  A    between atoms: C_2  and  C_3 
REMARK    2  A    between atoms: C_6  and  C_7 
REMARK       I    between atoms: C_7  and  N_8 
REMARK    3  A    between atoms: N_8  and  N_9 
ROOT
HETATM    1  C   UNL     1      40.175 -10.191  -2.921  1.00  0.00    -0.021 A 
HETATM    2  C   UNL     1      39.187 -11.150  -3.215  1.00  0.00     0.011 A 
HETATM    3  C   UNL     1      39.145 -12.388  -2.555  1.00  0.00     0.018 A 
HETATM    4  C   UNL     1      40.094 -12.699  -1.577  1.00  0.00     0.033 A 
HETATM    5  C   UNL     1      41.069 -11.743  -1.264  1.00  0.00     0.018 A 
HETATM    6  C   UNL     1      41.103 -10.508  -1.917  1.00  0.00     0.011 A 
ENDROOT
BRANCH   4   7
HETATM    7  C   UNL     1      40.112 -13.982  -0.806  1.00  0.00     0.266 C 
HETATM    8  N   UNL     1      40.999 -14.075   0.264  1.00  0.00    -0.284 N 
HETATM    9  H   UNL     1      41.535 -13.273   0.574  1.00  0.00     0.184 HD
HETATM   10  O   UNL     1      39.349 -14.884  -1.146  1.00  0.00    -0.266 OA
BRANCH   8  11
HETATM   11  N   UNL     1      41.106 -15.240   1.065  1.00  0.00    -0.220 NA
HETATM   12  C   UNL     1      42.496 -15.561   1.487  1.00  0.00     0.153 C 
HETATM   13  C   UNL     1      42.388 -16.022   2.905  1.00  0.00    -0.036 A 
HETATM   14  C   UNL     1      41.090 -15.825   3.368  1.00  0.00    -0.036 A 
HETATM   15  C   UNL     1      43.374 -16.534   3.732  1.00  0.00     0.009 A 
HETATM   16  C   UNL     1      40.250 -15.231   2.282  1.00  0.00     0.153 C 
HETATM   17  C   UNL     1      40.740 -16.128   4.673  1.00  0.00     0.009 A 
HETATM   18  C   UNL     1      41.725 -16.646   5.518  1.00  0.00     0.001 A 
HETATM   19  C   UNL     1      43.034 -16.848   5.049  1.00  0.00     0.001 A 
ENDBRANCH   8  11
ENDBRANCH   4   7
BRANCH   1  20
HETATM   20  C   UNL     1      40.185  -8.825  -3.601  1.00  0.00     0.139 A 
HETATM   21  C   UNL     1      38.913  -8.597  -4.416  1.00  0.00     0.054 C 
HETATM   22  N   UNL     1      41.364  -8.633  -4.428  1.00  0.00    -0.321 N 
HETATM   23  C   UNL     1      42.147  -7.587  -4.015  1.00  0.00     0.324 A 
HETATM   24  H   UNL     1      41.590  -9.143  -5.269  1.00  0.00     0.165 HD
HETATM   25  O   UNL     1      43.156  -7.210  -4.581  1.00  0.00    -0.247 OA
HETATM   26  N   UNL     1      41.595  -7.038  -2.915  1.00  0.00    -0.277 N 
HETATM   27  C   UNL     1      40.405  -7.633  -2.629  1.00  0.00     0.258 A 
HETATM   28  H   UNL     1      41.951  -6.219  -2.452  1.00  0.00     0.173 HD
HETATM   29  O   UNL     1      39.640  -7.244  -1.757  1.00  0.00    -0.270 OA
ENDBRANCH   1  20
TORSDOF 3
ENDMDL
MODEL 7
REMARK VINA RESULT:      -7.7      3.436      9.924
REMARK  3 active torsions:
REMARK  status: ('A' for Active; 'I' for Inactive)
REMARK    1  A    between atoms: C_2  and  C_3 
REMARK    2  A    between atoms: C_6  and  C_7 
REMARK       I    between atoms: C_7  and  N_8 
REMARK    3  A    between atoms: N_8  and  N_9 
ROOT
HETATM    1  C   UNL     1      42.256  -8.253  11.750  1.00  0.00    -0.021 A 
HETATM    2  C   UNL     1      43.461  -8.900  12.079  1.00  0.00     0.011 A 
HETATM    3  C   UNL     1      44.140  -9.706  11.151  1.00  0.00     0.018 A 
HETATM    4  C   UNL     1      43.627  -9.884   9.863  1.00  0.00     0.033 A 
HETATM    5  C   UNL     1      42.438  -9.228   9.521  1.00  0.00     0.018 A 
HETATM    6  C   UNL     1      41.769  -8.419  10.444  1.00  0.00     0.011 A 
ENDROOT
BRANCH   4   7
HETATM    7  C   UNL     1      44.293 -10.704   8.804  1.00  0.00     0.266 C 
HETATM    8  N   UNL     1      43.480 -11.266   7.821  1.00  0.00    -0.284 N 
HETATM    9  H   UNL     1      42.494 -11.044   7.765  1.00  0.00     0.184 HD
HETATM   10  O   UNL     1      45.514 -10.841   8.845  1.00  0.00    -0.266 OA
BRANCH   8  11
HETATM   11  N   UNL     1      43.998 -12.062   6.769  1.00  0.00    -0.220 NA
HETATM   12  C   UNL     1      43.432 -13.438   6.714  1.00  0.00     0.153 C 
HETATM   13  C   UNL     1      43.236 -13.733   5.262  1.00  0.00    -0.036 A 
HETATM   14  C   UNL     1      43.477 -12.586   4.510  1.00  0.00    -0.036 A 
HETATM   15  C   UNL     1      42.831 -14.913   4.660  1.00  0.00     0.009 A 
HETATM   16  C   UNL     1      43.861 -11.459   5.415  1.00  0.00     0.153 C 
HETATM   17  C   UNL     1      43.315 -12.583   3.136  1.00  0.00     0.009 A 
HETATM   18  C   UNL     1      42.908 -13.767   2.515  1.00  0.00     0.001 A 
HETATM   19  C   UNL     1      42.668 -14.925   3.273  1.00  0.00     0.001 A 
ENDBRANCH   8  11
ENDBRANCH   4   7
BRANCH   1  20
HETATM   20  C   UNL     1      41.549  -7.333  12.743  1.00  0.00     0.139 A 
HETATM   21  C   UNL     1      40.473  -8.081  13.527  1.00  0.00     0.054 C 
HETATM   22  N   UNL     1      40.990  -6.158  12.099  1.00  0.00    -0.321 N 
HETATM   23  C   UNL     1      41.527  -4.984  12.560  1.00  0.00     0.324 A 
HETATM   24  H   UNL     1      40.235  -6.148  11.430  1.00  0.00     0.165 HD
HETATM   25  O   UNL     1      41.180  -3.874  12.202  1.00  0.00    -0.247 OA
HETATM   26  N   UNL     1      42.465  -5.269  13.487  1.00  0.00    -0.277 N 
HETATM   27  C   UNL     1      42.506  -6.608  13.728  1.00  0.00     0.258 A 
HETATM   28  H   UNL     1      42.966  -4.576  14.015  1.00  0.00     0.173 HD
HETATM   29  O   UNL     1      43.180  -7.120  14.612  1.00  0.00    -0.270 OA
ENDBRANCH   1  20
TORSDOF 3
ENDMDL
MODEL 8
REMARK VINA RESULT:      -7.6      4.081      9.592
REMARK  3 active torsions:
REMARK  status: ('A' for Active; 'I' for Inactive)
REMARK    1  A    between atoms: C_2  and  C_3 
REMARK    2  A    between atoms: C_6  and  C_7 
REMARK       I    between atoms: C_7  and  N_8 
REMARK    3  A    between atoms: N_8  and  N_9 
ROOT
HETATM    1  C   UNL     1      40.615  -9.320   9.519  1.00  0.00    -0.021 A 
HETATM    2  C   UNL     1      39.413  -9.759   8.933  1.00  0.00     0.011 A 
HETATM    3  C   UNL     1      39.364 -10.211   7.605  1.00  0.00     0.018 A 
HETATM    4  C   UNL     1      40.525 -10.236   6.826  1.00  0.00     0.033 A 
HETATM    5  C   UNL     1      41.729  -9.819   7.406  1.00  0.00     0.018 A 
HETATM    6  C   UNL     1      41.776  -9.378   8.732  1.00  0.00     0.011 A 
ENDROOT
BRANCH   4   7
HETATM    7  C   UNL     1      40.571 -10.723   5.411  1.00  0.00     0.266 C 
HETATM    8  N   UNL     1      41.004 -12.030   5.197  1.00  0.00    -0.284 N 
HETATM    9  H   UNL     1      41.180 -12.659   5.971  1.00  0.00     0.184 HD
HETATM   10  O   UNL     1      40.226  -9.958   4.513  1.00  0.00    -0.266 OA
BRANCH   8  11
HETATM   11  N   UNL     1      41.091 -12.600   3.902  1.00  0.00    -0.220 NA
HETATM   12  C   UNL     1      42.485 -12.786   3.413  1.00  0.00     0.153 C 
HETATM   13  C   UNL     1      42.491 -14.105   2.711  1.00  0.00    -0.036 A 
HETATM   14  C   UNL     1      41.274 -14.753   2.912  1.00  0.00    -0.036 A 
HETATM   15  C   UNL     1      43.511 -14.704   1.991  1.00  0.00     0.009 A 
HETATM   16  C   UNL     1      40.378 -13.897   3.750  1.00  0.00     0.153 C 
HETATM   17  C   UNL     1      41.044 -16.019   2.403  1.00  0.00     0.009 A 
HETATM   18  C   UNL     1      42.064 -16.634   1.674  1.00  0.00     0.001 A 
HETATM   19  C   UNL     1      43.289 -15.980   1.468  1.00  0.00     0.001 A 
ENDBRANCH   8  11
ENDBRANCH   4   7
BRANCH   1  20
HETATM   20  C   UNL     1      40.675  -8.881  10.980  1.00  0.00     0.139 A 
HETATM   21  C   UNL     1      41.798  -7.872  11.213  1.00  0.00     0.054 C 
HETATM   22  N   UNL     1      40.803 -10.009  11.886  1.00  0.00    -0.321 N 
HETATM   23  C   UNL     1      39.750 -10.123  12.755  1.00  0.00     0.324 A 
HETATM   24  H   UNL     1      41.596 -10.629  11.956  1.00  0.00     0.165 HD
HETATM   25  O   UNL     1      39.663 -10.960  13.634  1.00  0.00    -0.247 OA
HETATM   26  N   UNL     1      38.862  -9.142  12.494  1.00  0.00    -0.277 N 
HETATM   27  C   UNL     1      39.338  -8.311  11.527  1.00  0.00     0.258 A 
HETATM   28  H   UNL     1      38.029  -8.976  13.032  1.00  0.00     0.173 HD
HETATM   29  O   UNL     1      38.787  -7.272  11.190  1.00  0.00    -0.270 OA
ENDBRANCH   1  20
TORSDOF 3
ENDMDL
MODEL 9
REMARK VINA RESULT:      -7.6     18.394     21.196
REMARK  3 active torsions:
REMARK  status: ('A' for Active; 'I' for Inactive)
REMARK    1  A    between atoms: C_2  and  C_3 
REMARK    2  A    between atoms: C_6  and  C_7 
REMARK       I    between atoms: C_7  and  N_8 
REMARK    3  A    between atoms: N_8  and  N_9 
ROOT
HETATM    1  C   UNL     1      50.214 -31.620   5.157  1.00  0.00    -0.021 A 
HETATM    2  C   UNL     1      50.872 -30.678   4.344  1.00  0.00     0.011 A 
HETATM    3  C   UNL     1      50.163 -29.819   3.490  1.00  0.00     0.018 A 
HETATM    4  C   UNL     1      48.768 -29.880   3.429  1.00  0.00     0.033 A 
HETATM    5  C   UNL     1      48.102 -30.800   4.249  1.00  0.00     0.018 A 
HETATM    6  C   UNL     1      48.811 -31.649   5.104  1.00  0.00     0.011 A 
ENDROOT
BRANCH   4   7
HETATM    7  C   UNL     1      47.929 -28.989   2.568  1.00  0.00     0.266 C 
HETATM    8  N   UNL     1      47.098 -29.600   1.630  1.00  0.00    -0.284 N 
HETATM    9  H   UNL     1      46.987 -30.606   1.603  1.00  0.00     0.184 HD
HETATM   10  O   UNL     1      48.006 -27.772   2.727  1.00  0.00    -0.266 OA
BRANCH   8  11
HETATM   11  N   UNL     1      46.260 -28.860   0.759  1.00  0.00    -0.220 NA
HETATM   12  C   UNL     1      46.961 -28.305  -0.431  1.00  0.00     0.153 C 
HETATM   13  C   UNL     1      46.011 -28.479  -1.572  1.00  0.00    -0.036 A 
HETATM   14  C   UNL     1      44.915 -29.235  -1.164  1.00  0.00    -0.036 A 
HETATM   15  C   UNL     1      46.132 -28.041  -2.881  1.00  0.00     0.009 A 
HETATM   16  C   UNL     1      45.062 -29.600   0.280  1.00  0.00     0.153 C 
HETATM   17  C   UNL     1      43.910 -29.579  -2.052  1.00  0.00     0.009 A 
HETATM   18  C   UNL     1      44.019 -29.142  -3.374  1.00  0.00     0.001 A 
HETATM   19  C   UNL     1      45.123 -28.377  -3.785  1.00  0.00     0.001 A 
ENDBRANCH   8  11
ENDBRANCH   4   7
BRANCH   1  20
HETATM   20  C   UNL     1      50.984 -32.514   6.124  1.00  0.00     0.139 A 
HETATM   21  C   UNL     1      50.071 -33.075   7.213  1.00  0.00     0.054 C 
HETATM   22  N   UNL     1      52.124 -31.832   6.712  1.00  0.00    -0.321 N 
HETATM   23  C   UNL     1      53.322 -32.423   6.406  1.00  0.00     0.324 A 
HETATM   24  H   UNL     1      52.086 -31.046   7.343  1.00  0.00     0.165 HD
HETATM   25  O   UNL     1      54.404 -32.057   6.825  1.00  0.00    -0.247 OA
HETATM   26  N   UNL     1      53.092 -33.484   5.605  1.00  0.00    -0.277 N 
HETATM   27  C   UNL     1      51.755 -33.676   5.438  1.00  0.00     0.258 A 
HETATM   28  H   UNL     1      53.805 -34.116   5.286  1.00  0.00     0.173 HD
HETATM   29  O   UNL     1      51.272 -34.639   4.860  1.00  0.00    -0.270 OA
ENDBRANCH   1  20
TORSDOF 3
ENDMDL
MODEL 10
REMARK VINA RESULT:      -7.5      5.696     11.686
REMARK  3 active torsions:
REMARK  status: ('A' for Active; 'I' for Inactive)
REMARK    1  A    between atoms: C_2  and  C_3 
REMARK    2  A    between atoms: C_6  and  C_7 
REMARK       I    between atoms: C_7  and  N_8 
REMARK    3  A    between atoms: N_8  and  N_9 
ROOT
HETATM    1  C   UNL     1      41.837  -6.043  15.303  1.00  0.00    -0.021 A 
HETATM    2  C   UNL     1      41.268  -5.196  14.333  1.00  0.00     0.011 A 
HETATM    3  C   UNL     1      41.531  -5.365  12.964  1.00  0.00     0.018 A 
HETATM    4  C   UNL     1      42.374  -6.391  12.529  1.00  0.00     0.033 A 
HETATM    5  C   UNL     1      42.929  -7.251  13.485  1.00  0.00     0.018 A 
HETATM    6  C   UNL     1      42.658  -7.086  14.847  1.00  0.00     0.011 A 
ENDROOT
BRANCH   4   7
HETATM    7  C   UNL     1      42.691  -6.660  11.091  1.00  0.00     0.266 C 
HETATM    8  N   UNL     1      43.004  -7.971  10.738  1.00  0.00    -0.284 N 
HETATM    9  H   UNL     1      42.919  -8.729  11.403  1.00  0.00     0.184 HD
HETATM   10  O   UNL     1      42.658  -5.723  10.295  1.00  0.00    -0.266 OA
BRANCH   8  11
HETATM   11  N   UNL     1      43.323  -8.344   9.408  1.00  0.00    -0.220 NA
HETATM   12  C   UNL     1      44.782  -8.360   9.115  1.00  0.00     0.153 C 
HETATM   13  C   UNL     1      45.006  -9.564   8.258  1.00  0.00    -0.036 A 
HETATM   14  C   UNL     1      43.838 -10.318   8.187  1.00  0.00    -0.036 A 
HETATM   15  C   UNL     1      46.168  -9.981   7.628  1.00  0.00     0.009 A 
HETATM   16  C   UNL     1      42.759  -9.655   8.984  1.00  0.00     0.153 C 
HETATM   17  C   UNL     1      43.797 -11.513   7.490  1.00  0.00     0.009 A 
HETATM   18  C   UNL     1      44.961 -11.945   6.850  1.00  0.00     0.001 A 
HETATM   19  C   UNL     1      46.138 -11.183   6.918  1.00  0.00     0.001 A 
ENDBRANCH   8  11
ENDBRANCH   4   7
BRANCH   1  20
HETATM   20  C   UNL     1      41.505  -5.891  16.785  1.00  0.00     0.139 A 
HETATM   21  C   UNL     1      41.507  -4.424  17.210  1.00  0.00     0.054 C 
HETATM   22  N   UNL     1      42.396  -6.670  17.628  1.00  0.00    -0.321 N 
HETATM   23  C   UNL     1      41.744  -7.628  18.360  1.00  0.00     0.324 A 
HETATM   24  H   UNL     1      43.385  -6.516  17.751  1.00  0.00     0.165 HD
HETATM   25  O   UNL     1      42.276  -8.365  19.169  1.00  0.00    -0.247 OA
HETATM   26  N   UNL     1      40.430  -7.585  18.059  1.00  0.00    -0.277 N 
HETATM   27  C   UNL     1      40.167  -6.557  17.208  1.00  0.00     0.258 A 
HETATM   28  H   UNL     1      39.730  -8.152  18.506  1.00  0.00     0.173 HD
HETATM   29  O   UNL     1      39.040  -6.220  16.874  1.00  0.00    -0.270 OA
ENDBRANCH   1  20
TORSDOF 3
ENDMDL
