MODEL 1
REMARK VINA RESULT:      -7.6      0.000      0.000
REMARK  9 active torsions:
REMARK  status: ('A' for Active; 'I' for Inactive)
REMARK       I    between atoms: N_2  and  C_3 
REMARK    1  A    between atoms: C_3  and  C_4 
REMARK    2  A    between atoms: C_7  and  N_8 
REMARK       I    between atoms: N_8  and  C_9 
REMARK    3  A    between atoms: C_9  and  C_10 
REMARK    4  A    between atoms: C_10  and  O_11 
REMARK    5  A    between atoms: O_11  and  C_12 
REMARK    6  A    between atoms: C_12  and  C_13 
REMARK    7  A    between atoms: C_14  and  N_15 
REMARK    8  A    between atoms: N_15  and  C_16 
REMARK    9  A    between atoms: C_16  and  C_17 
ROOT
HETATM    1  O   UNL     1      42.950 -17.410   6.794  1.00  0.00    -0.308 OA
ENDROOT
BRANCH   1   2
HETATM    2  C   UNL     1      42.582 -16.180   7.428  1.00  0.00     0.282 C 
BRANCH   2   3
HETATM    3  C   UNL     1      41.730 -15.307   6.501  1.00  0.00     0.246 C 
HETATM    4  N   UNL     1      42.451 -14.283   5.912  1.00  0.00    -0.325 N 
HETATM    5  H   UNL     1      43.406 -14.156   6.248  1.00  0.00     0.169 HD
HETATM    6  O   UNL     1      40.537 -15.545   6.334  1.00  0.00    -0.271 OA
BRANCH   4   7
HETATM    7  C   UNL     1      42.047 -13.434   4.865  1.00  0.00     0.034 A 
HETATM    8  C   UNL     1      40.726 -13.029   4.653  1.00  0.00     0.030 A 
HETATM    9  C   UNL     1      40.399 -12.215   3.563  1.00  0.00     0.019 A 
HETATM   10  C   UNL     1      41.401 -11.794   2.684  1.00  0.00     0.032 A 
HETATM   11  C   UNL     1      42.718 -12.213   2.870  1.00  0.00     0.019 A 
HETATM   12  C   UNL     1      43.039 -13.021   3.965  1.00  0.00     0.030 A 
BRANCH  10  13
HETATM   13  C   UNL     1      41.073 -10.963   1.505  1.00  0.00     0.253 C 
HETATM   14  N   UNL     1      40.673  -9.643   1.702  1.00  0.00    -0.357 N 
HETATM   15  C   UNL     1      40.196  -8.884   0.559  1.00  0.00     0.152 C 
HETATM   16  C   UNL     1      40.839  -8.899   2.943  1.00  0.00     0.152 C 
HETATM   17  O   UNL     1      41.164 -11.491   0.399  1.00  0.00    -0.267 OA
ENDBRANCH  10  13
ENDBRANCH   4   7
ENDBRANCH   2   3
ENDBRANCH   1   2
BRANCH   1  18
HETATM   18  C   UNL     1      44.051 -17.351   6.008  1.00  0.00     0.295 C 
HETATM   19  O   UNL     1      44.965 -16.546   6.115  1.00  0.00    -0.259 OA
BRANCH  18  20
HETATM   20  C   UNL     1      43.960 -18.353   4.926  1.00  0.00     0.060 A 
HETATM   21  C   UNL     1      43.700 -17.951   3.598  1.00  0.00     0.025 A 
HETATM   22  C   UNL     1      43.618 -18.972   2.637  1.00  0.00     0.024 A 
HETATM   23  C   UNL     1      43.712 -20.325   2.989  1.00  0.00     0.002 A 
HETATM   24  C   UNL     1      43.924 -20.695   4.312  1.00  0.00     0.001 A 
HETATM   25  C   UNL     1      44.056 -19.710   5.283  1.00  0.00     0.019 A 
BRANCH  21  26
HETATM   26  N   UNL     1      43.688 -16.589   3.251  1.00  0.00    -0.286 NA
HETATM   27  H   UNL     1      43.246 -16.023   3.979  1.00  0.00     0.128 HD
BRANCH  26  28
HETATM   28  C   UNL     1      43.267 -16.163   1.916  1.00  0.00     0.157 C 
BRANCH  28  29
HETATM   29  C   UNL     1      41.818 -15.819   1.820  1.00  0.00     0.065 A 
HETATM   30  O   UNL     1      41.445 -15.025   0.773  1.00  0.00    -0.326 OA
HETATM   31  C   UNL     1      40.109 -14.814   0.891  1.00  0.00     0.142 A 
HETATM   32  C   UNL     1      39.616 -15.458   2.000  1.00  0.00     0.027 A 
HETATM   33  C   UNL     1      40.718 -16.108   2.603  1.00  0.00     0.036 A 
ENDBRANCH  28  29
ENDBRANCH  26  28
ENDBRANCH  21  26
ENDBRANCH  18  20
ENDBRANCH   1  18
TORSDOF 9
ENDMDL
MODEL 2
REMARK VINA RESULT:      -7.4      2.745      4.600
REMARK  9 active torsions:
REMARK  status: ('A' for Active; 'I' for Inactive)
REMARK       I    between atoms: N_2  and  C_3 
REMARK    1  A    between atoms: C_3  and  C_4 
REMARK    2  A    between atoms: C_7  and  N_8 
REMARK       I    between atoms: N_8  and  C_9 
REMARK    3  A    between atoms: C_9  and  C_10 
REMARK    4  A    between atoms: C_10  and  O_11 
REMARK    5  A    between atoms: O_11  and  C_12 
REMARK    6  A    between atoms: C_12  and  C_13 
REMARK    7  A    between atoms: C_14  and  N_15 
REMARK    8  A    between atoms: N_15  and  C_16 
REMARK    9  A    between atoms: C_16  and  C_17 
ROOT
HETATM    1  O   UNL     1      41.944 -16.148   3.066  1.00  0.00    -0.308 OA
ENDROOT
BRANCH   1   2
HETATM    2  C   UNL     1      40.719 -16.273   2.336  1.00  0.00     0.282 C 
BRANCH   2   3
HETATM    3  C   UNL     1      40.320 -14.945   1.685  1.00  0.00     0.246 C 
HETATM    4  N   UNL     1      40.900 -14.760   0.441  1.00  0.00    -0.325 N 
HETATM    5  H   UNL     1      41.601 -15.448   0.165  1.00  0.00     0.169 HD
HETATM    6  O   UNL     1      39.557 -14.170   2.253  1.00  0.00    -0.271 OA
BRANCH   4   7
HETATM    7  C   UNL     1      40.598 -13.770  -0.513  1.00  0.00     0.034 A 
HETATM    8  C   UNL     1      40.024 -14.037  -1.760  1.00  0.00     0.030 A 
HETATM    9  C   UNL     1      39.792 -13.000  -2.670  1.00  0.00     0.019 A 
HETATM   10  C   UNL     1      40.124 -11.686  -2.328  1.00  0.00     0.032 A 
HETATM   11  C   UNL     1      40.719 -11.411  -1.097  1.00  0.00     0.019 A 
HETATM   12  C   UNL     1      40.944 -12.451  -0.190  1.00  0.00     0.030 A 
BRANCH  10  13
HETATM   13  C   UNL     1      39.920 -10.579  -3.288  1.00  0.00     0.253 C 
HETATM   14  N   UNL     1      38.627 -10.112  -3.512  1.00  0.00    -0.357 N 
HETATM   15  C   UNL     1      38.412  -9.141  -4.572  1.00  0.00     0.152 C 
HETATM   16  C   UNL     1      37.479 -10.399  -2.663  1.00  0.00     0.152 C 
HETATM   17  O   UNL     1      40.916 -10.130  -3.852  1.00  0.00    -0.267 OA
ENDBRANCH  10  13
ENDBRANCH   4   7
ENDBRANCH   2   3
ENDBRANCH   1   2
BRANCH   1  18
HETATM   18  C   UNL     1      43.040 -16.656   2.453  1.00  0.00     0.295 C 
HETATM   19  O   UNL     1      43.659 -16.128   1.541  1.00  0.00    -0.259 OA
BRANCH  18  20
HETATM   20  C   UNL     1      43.344 -18.000   2.983  1.00  0.00     0.060 A 
HETATM   21  C   UNL     1      43.858 -18.156   4.290  1.00  0.00     0.025 A 
HETATM   22  C   UNL     1      44.129 -19.470   4.705  1.00  0.00     0.024 A 
HETATM   23  C   UNL     1      43.973 -20.563   3.844  1.00  0.00     0.002 A 
HETATM   24  C   UNL     1      43.507 -20.377   2.547  1.00  0.00     0.001 A 
HETATM   25  C   UNL     1      43.185 -19.097   2.116  1.00  0.00     0.019 A 
BRANCH  21  26
HETATM   26  N   UNL     1      43.933 -17.060   5.165  1.00  0.00    -0.286 NA
HETATM   27  H   UNL     1      44.903 -16.832   5.395  1.00  0.00     0.128 HD
BRANCH  26  28
HETATM   28  C   UNL     1      43.075 -16.988   6.348  1.00  0.00     0.157 C 
BRANCH  28  29
HETATM   29  C   UNL     1      42.046 -15.909   6.286  1.00  0.00     0.065 A 
HETATM   30  O   UNL     1      42.500 -14.644   6.048  1.00  0.00    -0.326 OA
HETATM   31  C   UNL     1      41.417 -13.825   6.061  1.00  0.00     0.142 A 
HETATM   32  C   UNL     1      40.272 -14.544   6.306  1.00  0.00     0.027 A 
HETATM   33  C   UNL     1      40.676 -15.892   6.453  1.00  0.00     0.036 A 
ENDBRANCH  28  29
ENDBRANCH  26  28
ENDBRANCH  21  26
ENDBRANCH  18  20
ENDBRANCH   1  18
TORSDOF 9
ENDMDL
MODEL 3
REMARK VINA RESULT:      -7.3      1.939      2.449
REMARK  9 active torsions:
REMARK  status: ('A' for Active; 'I' for Inactive)
REMARK       I    between atoms: N_2  and  C_3 
REMARK    1  A    between atoms: C_3  and  C_4 
REMARK    2  A    between atoms: C_7  and  N_8 
REMARK       I    between atoms: N_8  and  C_9 
REMARK    3  A    between atoms: C_9  and  C_10 
REMARK    4  A    between atoms: C_10  and  O_11 
REMARK    5  A    between atoms: O_11  and  C_12 
REMARK    6  A    between atoms: C_12  and  C_13 
REMARK    7  A    between atoms: C_14  and  N_15 
REMARK    8  A    between atoms: N_15  and  C_16 
REMARK    9  A    between atoms: C_16  and  C_17 
ROOT
HETATM    1  O   UNL     1      44.303 -16.678   5.600  1.00  0.00    -0.308 OA
ENDROOT
BRANCH   1   2
HETATM    2  C   UNL     1      44.392 -15.838   6.756  1.00  0.00     0.282 C 
BRANCH   2   3
HETATM    3  C   UNL     1      43.772 -14.461   6.495  1.00  0.00     0.246 C 
HETATM    4  N   UNL     1      42.848 -14.474   5.463  1.00  0.00    -0.325 N 
HETATM    5  H   UNL     1      42.781 -15.342   4.932  1.00  0.00     0.169 HD
HETATM    6  O   UNL     1      44.097 -13.487   7.167  1.00  0.00    -0.271 OA
BRANCH   4   7
HETATM    7  C   UNL     1      41.950 -13.455   5.097  1.00  0.00     0.034 A 
HETATM    8  C   UNL     1      42.309 -12.325   4.356  1.00  0.00     0.030 A 
HETATM    9  C   UNL     1      41.364 -11.336   4.068  1.00  0.00     0.019 A 
HETATM   10  C   UNL     1      40.046 -11.480   4.513  1.00  0.00     0.032 A 
HETATM   11  C   UNL     1      39.682 -12.590   5.275  1.00  0.00     0.019 A 
HETATM   12  C   UNL     1      40.630 -13.578   5.555  1.00  0.00     0.030 A 
BRANCH  10  13
HETATM   13  C   UNL     1      39.039 -10.429   4.250  1.00  0.00     0.253 C 
HETATM   14  N   UNL     1      38.836  -9.437   5.206  1.00  0.00    -0.357 N 
HETATM   15  C   UNL     1      37.737  -8.505   5.018  1.00  0.00     0.152 C 
HETATM   16  C   UNL     1      39.736  -9.152   6.315  1.00  0.00     0.152 C 
HETATM   17  O   UNL     1      38.421 -10.493   3.190  1.00  0.00    -0.267 OA
ENDBRANCH  10  13
ENDBRANCH   4   7
ENDBRANCH   2   3
ENDBRANCH   1   2
BRANCH   1  18
HETATM   18  C   UNL     1      43.698 -17.874   5.796  1.00  0.00     0.295 C 
HETATM   19  O   UNL     1      43.303 -18.308   6.869  1.00  0.00    -0.259 OA
BRANCH  18  20
HETATM   20  C   UNL     1      43.657 -18.638   4.534  1.00  0.00     0.060 A 
HETATM   21  C   UNL     1      43.039 -18.094   3.387  1.00  0.00     0.025 A 
HETATM   22  C   UNL     1      43.036 -18.896   2.234  1.00  0.00     0.024 A 
HETATM   23  C   UNL     1      43.549 -20.200   2.242  1.00  0.00     0.002 A 
HETATM   24  C   UNL     1      44.112 -20.729   3.398  1.00  0.00     0.001 A 
HETATM   25  C   UNL     1      44.174 -19.947   4.545  1.00  0.00     0.019 A 
BRANCH  21  26
HETATM   26  N   UNL     1      42.602 -16.758   3.374  1.00  0.00    -0.286 NA
HETATM   27  H   UNL     1      42.909 -16.258   4.212  1.00  0.00     0.128 HD
BRANCH  26  28
HETATM   28  C   UNL     1      41.218 -16.429   3.033  1.00  0.00     0.157 C 
BRANCH  28  29
HETATM   29  C   UNL     1      41.076 -15.192   2.210  1.00  0.00     0.065 A 
HETATM   30  O   UNL     1      39.852 -14.585   2.224  1.00  0.00    -0.326 OA
HETATM   31  C   UNL     1      39.932 -13.511   1.397  1.00  0.00     0.142 A 
HETATM   32  C   UNL     1      41.189 -13.418   0.849  1.00  0.00     0.027 A 
HETATM   33  C   UNL     1      41.930 -14.504   1.372  1.00  0.00     0.036 A 
ENDBRANCH  28  29
ENDBRANCH  26  28
ENDBRANCH  21  26
ENDBRANCH  18  20
ENDBRANCH   1  18
TORSDOF 9
ENDMDL
MODEL 4
REMARK VINA RESULT:      -7.0      5.828      8.069
REMARK  9 active torsions:
REMARK  status: ('A' for Active; 'I' for Inactive)
REMARK       I    between atoms: N_2  and  C_3 
REMARK    1  A    between atoms: C_3  and  C_4 
REMARK    2  A    between atoms: C_7  and  N_8 
REMARK       I    between atoms: N_8  and  C_9 
REMARK    3  A    between atoms: C_9  and  C_10 
REMARK    4  A    between atoms: C_10  and  O_11 
REMARK    5  A    between atoms: O_11  and  C_12 
REMARK    6  A    between atoms: C_12  and  C_13 
REMARK    7  A    between atoms: C_14  and  N_15 
REMARK    8  A    between atoms: N_15  and  C_16 
REMARK    9  A    between atoms: C_16  and  C_17 
ROOT
HETATM    1  O   UNL     1      44.698 -12.100   6.480  1.00  0.00    -0.308 OA
ENDROOT
BRANCH   1   2
HETATM    2  C   UNL     1      45.640 -11.115   6.920  1.00  0.00     0.282 C 
BRANCH   2   3
HETATM    3  C   UNL     1      45.062 -10.252   8.045  1.00  0.00     0.246 C 
HETATM    4  N   UNL     1      44.077 -10.902   8.770  1.00  0.00    -0.325 N 
HETATM    5  H   UNL     1      43.772 -11.805   8.404  1.00  0.00     0.169 HD
HETATM    6  O   UNL     1      45.474  -9.112   8.240  1.00  0.00    -0.271 OA
BRANCH   4   7
HETATM    7  C   UNL     1      43.487 -10.496   9.981  1.00  0.00     0.034 A 
HETATM    8  C   UNL     1      43.869 -10.978  11.237  1.00  0.00     0.030 A 
HETATM    9  C   UNL     1      43.203 -10.554  12.392  1.00  0.00     0.019 A 
HETATM   10  C   UNL     1      42.157  -9.632  12.294  1.00  0.00     0.032 A 
HETATM   11  C   UNL     1      41.751  -9.163  11.045  1.00  0.00     0.019 A 
HETATM   12  C   UNL     1      42.423  -9.587   9.894  1.00  0.00     0.030 A 
BRANCH  10  13
HETATM   13  C   UNL     1      41.417  -9.197  13.498  1.00  0.00     0.253 C 
HETATM   14  N   UNL     1      41.979  -8.222  14.318  1.00  0.00    -0.357 N 
HETATM   15  C   UNL     1      41.329  -7.917  15.582  1.00  0.00     0.152 C 
HETATM   16  C   UNL     1      43.092  -7.359  13.945  1.00  0.00     0.152 C 
HETATM   17  O   UNL     1      40.333  -9.733  13.719  1.00  0.00    -0.267 OA
ENDBRANCH  10  13
ENDBRANCH   4   7
ENDBRANCH   2   3
ENDBRANCH   1   2
BRANCH   1  18
HETATM   18  C   UNL     1      43.975 -11.765   5.385  1.00  0.00     0.295 C 
HETATM   19  O   UNL     1      44.411 -11.224   4.379  1.00  0.00    -0.259 OA
BRANCH  18  20
HETATM   20  C   UNL     1      42.547 -12.064   5.606  1.00  0.00     0.060 A 
HETATM   21  C   UNL     1      42.024 -13.336   5.287  1.00  0.00     0.025 A 
HETATM   22  C   UNL     1      40.652 -13.528   5.519  1.00  0.00     0.024 A 
HETATM   23  C   UNL     1      39.827 -12.488   5.968  1.00  0.00     0.002 A 
HETATM   24  C   UNL     1      40.360 -11.231   6.232  1.00  0.00     0.001 A 
HETATM   25  C   UNL     1      41.722 -11.018   6.059  1.00  0.00     0.019 A 
BRANCH  21  26
HETATM   26  N   UNL     1      42.877 -14.388   4.914  1.00  0.00    -0.286 NA
HETATM   27  H   UNL     1      43.842 -14.206   5.200  1.00  0.00     0.128 HD
BRANCH  26  28
HETATM   28  C   UNL     1      42.820 -14.954   3.566  1.00  0.00     0.157 C 
BRANCH  28  29
HETATM   29  C   UNL     1      43.240 -16.384   3.490  1.00  0.00     0.065 A 
HETATM   30  O   UNL     1      43.744 -16.935   4.634  1.00  0.00    -0.326 OA
HETATM   31  C   UNL     1      44.087 -18.215   4.340  1.00  0.00     0.142 A 
HETATM   32  C   UNL     1      43.814 -18.497   3.022  1.00  0.00     0.027 A 
HETATM   33  C   UNL     1      43.268 -17.314   2.471  1.00  0.00     0.036 A 
ENDBRANCH  28  29
ENDBRANCH  26  28
ENDBRANCH  21  26
ENDBRANCH  18  20
ENDBRANCH   1  18
TORSDOF 9
ENDMDL
MODEL 5
REMARK VINA RESULT:      -6.9      5.483      8.390
REMARK  9 active torsions:
REMARK  status: ('A' for Active; 'I' for Inactive)
REMARK       I    between atoms: N_2  and  C_3 
REMARK    1  A    between atoms: C_3  and  C_4 
REMARK    2  A    between atoms: C_7  and  N_8 
REMARK       I    between atoms: N_8  and  C_9 
REMARK    3  A    between atoms: C_9  and  C_10 
REMARK    4  A    between atoms: C_10  and  O_11 
REMARK    5  A    between atoms: O_11  and  C_12 
REMARK    6  A    between atoms: C_12  and  C_13 
REMARK    7  A    between atoms: C_14  and  N_15 
REMARK    8  A    between atoms: N_15  and  C_16 
REMARK    9  A    between atoms: C_16  and  C_17 
ROOT
HETATM    1  O   UNL     1      44.359  -9.438  10.456  1.00  0.00    -0.308 OA
ENDROOT
BRANCH   1   2
HETATM    2  C   UNL     1      45.231  -9.915   9.425  1.00  0.00     0.282 C 
BRANCH   2   3
HETATM    3  C   UNL     1      44.460 -10.219   8.137  1.00  0.00     0.246 C 
HETATM    4  N   UNL     1      44.691 -11.499   7.661  1.00  0.00    -0.325 N 
HETATM    5  H   UNL     1      45.420 -12.031   8.137  1.00  0.00     0.169 HD
HETATM    6  O   UNL     1      43.724  -9.377   7.631  1.00  0.00    -0.271 OA
BRANCH   4   7
HETATM    7  C   UNL     1      44.002 -12.176   6.638  1.00  0.00     0.034 A 
HETATM    8  C   UNL     1      44.002 -11.775   5.298  1.00  0.00     0.030 A 
HETATM    9  C   UNL     1      43.257 -12.480   4.347  1.00  0.00     0.019 A 
HETATM   10  C   UNL     1      42.516 -13.601   4.734  1.00  0.00     0.032 A 
HETATM   11  C   UNL     1      42.489 -13.996   6.071  1.00  0.00     0.019 A 
HETATM   12  C   UNL     1      43.240 -13.290   7.017  1.00  0.00     0.030 A 
BRANCH  10  13
HETATM   13  C   UNL     1      41.694 -14.340   3.751  1.00  0.00     0.253 C 
HETATM   14  N   UNL     1      42.221 -15.485   3.158  1.00  0.00    -0.357 N 
HETATM   15  C   UNL     1      41.478 -16.112   2.078  1.00  0.00     0.152 C 
HETATM   16  C   UNL     1      43.392 -16.207   3.635  1.00  0.00     0.152 C 
HETATM   17  O   UNL     1      40.576 -13.894   3.502  1.00  0.00    -0.267 OA
ENDBRANCH  10  13
ENDBRANCH   4   7
ENDBRANCH   2   3
ENDBRANCH   1   2
BRANCH   1  18
HETATM   18  C   UNL     1      43.694 -10.397  11.144  1.00  0.00     0.295 C 
HETATM   19  O   UNL     1      43.984 -11.584  11.177  1.00  0.00    -0.259 OA
BRANCH  18  20
HETATM   20  C   UNL     1      42.497  -9.824  11.790  1.00  0.00     0.060 A 
HETATM   21  C   UNL     1      41.422  -9.343  11.011  1.00  0.00     0.025 A 
HETATM   22  C   UNL     1      40.330  -8.804  11.710  1.00  0.00     0.024 A 
HETATM   23  C   UNL     1      40.339  -8.676  13.105  1.00  0.00     0.002 A 
HETATM   24  C   UNL     1      41.429  -9.117  13.847  1.00  0.00     0.001 A 
HETATM   25  C   UNL     1      42.507  -9.698  13.192  1.00  0.00     0.019 A 
BRANCH  21  26
HETATM   26  N   UNL     1      41.396  -9.551   9.621  1.00  0.00    -0.286 NA
HETATM   27  H   UNL     1      42.298  -9.328   9.194  1.00  0.00     0.128 HD
BRANCH  26  28
HETATM   28  C   UNL     1      40.286  -9.049   8.812  1.00  0.00     0.157 C 
BRANCH  28  29
HETATM   29  C   UNL     1      39.975  -9.892   7.620  1.00  0.00     0.065 A 
HETATM   30  O   UNL     1      38.670 -10.254   7.450  1.00  0.00    -0.326 OA
HETATM   31  C   UNL     1      38.615 -11.033   6.339  1.00  0.00     0.142 A 
HETATM   32  C   UNL     1      39.868 -11.179   5.791  1.00  0.00     0.027 A 
HETATM   33  C   UNL     1      40.749 -10.444   6.618  1.00  0.00     0.036 A 
ENDBRANCH  28  29
ENDBRANCH  26  28
ENDBRANCH  21  26
ENDBRANCH  18  20
ENDBRANCH   1  18
TORSDOF 9
ENDMDL
MODEL 6
REMARK VINA RESULT:      -6.9      3.357      5.289
REMARK  9 active torsions:
REMARK  status: ('A' for Active; 'I' for Inactive)
REMARK       I    between atoms: N_2  and  C_3 
REMARK    1  A    between atoms: C_3  and  C_4 
REMARK    2  A    between atoms: C_7  and  N_8 
REMARK       I    between atoms: N_8  and  C_9 
REMARK    3  A    between atoms: C_9  and  C_10 
REMARK    4  A    between atoms: C_10  and  O_11 
REMARK    5  A    between atoms: O_11  and  C_12 
REMARK    6  A    between atoms: C_12  and  C_13 
REMARK    7  A    between atoms: C_14  and  N_15 
REMARK    8  A    between atoms: N_15  and  C_16 
REMARK    9  A    between atoms: C_16  and  C_17 
ROOT
HETATM    1  O   UNL     1      41.645 -14.449   1.974  1.00  0.00    -0.308 OA
ENDROOT
BRANCH   1   2
HETATM    2  C   UNL     1      40.709 -13.537   1.388  1.00  0.00     0.282 C 
BRANCH   2   3
HETATM    3  C   UNL     1      39.952 -12.749   2.462  1.00  0.00     0.246 C 
HETATM    4  N   UNL     1      40.721 -12.493   3.584  1.00  0.00    -0.325 N 
HETATM    5  H   UNL     1      41.632 -12.951   3.618  1.00  0.00     0.169 HD
HETATM    6  O   UNL     1      38.788 -12.403   2.285  1.00  0.00    -0.271 OA
BRANCH   4   7
HETATM    7  C   UNL     1      40.423 -11.631   4.656  1.00  0.00     0.034 A 
HETATM    8  C   UNL     1      39.741 -12.027   5.811  1.00  0.00     0.030 A 
HETATM    9  C   UNL     1      39.447 -11.098   6.814  1.00  0.00     0.019 A 
HETATM   10  C   UNL     1      39.848  -9.767   6.670  1.00  0.00     0.032 A 
HETATM   11  C   UNL     1      40.508  -9.355   5.512  1.00  0.00     0.019 A 
HETATM   12  C   UNL     1      40.803 -10.289   4.515  1.00  0.00     0.030 A 
BRANCH  10  13
HETATM   13  C   UNL     1      39.518  -8.761   7.703  1.00  0.00     0.253 C 
HETATM   14  N   UNL     1      40.361  -8.623   8.803  1.00  0.00    -0.357 N 
HETATM   15  C   UNL     1      39.947  -7.753   9.891  1.00  0.00     0.152 C 
HETATM   16  C   UNL     1      41.711  -9.162   8.891  1.00  0.00     0.152 C 
HETATM   17  O   UNL     1      38.497  -8.096   7.537  1.00  0.00    -0.267 OA
ENDBRANCH  10  13
ENDBRANCH   4   7
ENDBRANCH   2   3
ENDBRANCH   1   2
BRANCH   1  18
HETATM   18  C   UNL     1      41.209 -15.725   2.103  1.00  0.00     0.295 C 
HETATM   19  O   UNL     1      40.127 -16.153   1.728  1.00  0.00    -0.259 OA
BRANCH  18  20
HETATM   20  C   UNL     1      42.198 -16.529   2.849  1.00  0.00     0.060 A 
HETATM   21  C   UNL     1      42.671 -16.094   4.107  1.00  0.00     0.025 A 
HETATM   22  C   UNL     1      43.619 -16.915   4.739  1.00  0.00     0.024 A 
HETATM   23  C   UNL     1      44.128 -18.065   4.121  1.00  0.00     0.002 A 
HETATM   24  C   UNL     1      43.677 -18.447   2.863  1.00  0.00     0.001 A 
HETATM   25  C   UNL     1      42.706 -17.684   2.227  1.00  0.00     0.019 A 
BRANCH  21  26
HETATM   26  N   UNL     1      42.094 -14.984   4.745  1.00  0.00    -0.286 NA
HETATM   27  H   UNL     1      42.021 -14.185   4.110  1.00  0.00     0.128 HD
BRANCH  26  28
HETATM   28  C   UNL     1      42.543 -14.569   6.074  1.00  0.00     0.157 C 
BRANCH  28  29
HETATM   29  C   UNL     1      43.282 -13.272   6.085  1.00  0.00     0.065 A 
HETATM   30  O   UNL     1      43.535 -12.701   4.871  1.00  0.00    -0.326 OA
HETATM   31  C   UNL     1      44.232 -11.560   5.107  1.00  0.00     0.142 A 
HETATM   32  C   UNL     1      44.435 -11.389   6.455  1.00  0.00     0.027 A 
HETATM   33  C   UNL     1      43.822 -12.494   7.090  1.00  0.00     0.036 A 
ENDBRANCH  28  29
ENDBRANCH  26  28
ENDBRANCH  21  26
ENDBRANCH  18  20
ENDBRANCH   1  18
TORSDOF 9
ENDMDL
MODEL 7
REMARK VINA RESULT:      -6.8      2.426      5.219
REMARK  9 active torsions:
REMARK  status: ('A' for Active; 'I' for Inactive)
REMARK       I    between atoms: N_2  and  C_3 
REMARK    1  A    between atoms: C_3  and  C_4 
REMARK    2  A    between atoms: C_7  and  N_8 
REMARK       I    between atoms: N_8  and  C_9 
REMARK    3  A    between atoms: C_9  and  C_10 
REMARK    4  A    between atoms: C_10  and  O_11 
REMARK    5  A    between atoms: O_11  and  C_12 
REMARK    6  A    between atoms: C_12  and  C_13 
REMARK    7  A    between atoms: C_14  and  N_15 
REMARK    8  A    between atoms: N_15  and  C_16 
REMARK    9  A    between atoms: C_16  and  C_17 
ROOT
HETATM    1  O   UNL     1      41.269 -15.811   1.997  1.00  0.00    -0.308 OA
ENDROOT
BRANCH   1   2
HETATM    2  C   UNL     1      40.502 -15.324   0.891  1.00  0.00     0.282 C 
BRANCH   2   3
HETATM    3  C   UNL     1      40.110 -13.856   1.087  1.00  0.00     0.246 C 
HETATM    4  N   UNL     1      39.447 -13.631   2.281  1.00  0.00    -0.325 N 
HETATM    5  H   UNL     1      39.194 -14.461   2.818  1.00  0.00     0.169 HD
HETATM    6  O   UNL     1      40.387 -13.012   0.239  1.00  0.00    -0.271 OA
BRANCH   4   7
HETATM    7  C   UNL     1      39.132 -12.394   2.873  1.00  0.00     0.034 A 
HETATM    8  C   UNL     1      38.433 -11.372   2.223  1.00  0.00     0.030 A 
HETATM    9  C   UNL     1      38.195 -10.154   2.868  1.00  0.00     0.019 A 
HETATM   10  C   UNL     1      38.647  -9.959   4.177  1.00  0.00     0.032 A 
HETATM   11  C   UNL     1      39.367 -10.962   4.826  1.00  0.00     0.019 A 
HETATM   12  C   UNL     1      39.598 -12.179   4.178  1.00  0.00     0.030 A 
BRANCH  10  13
HETATM   13  C   UNL     1      38.437  -8.666   4.865  1.00  0.00     0.253 C 
HETATM   14  N   UNL     1      39.449  -7.710   4.826  1.00  0.00    -0.357 N 
HETATM   15  C   UNL     1      39.306  -6.513   5.636  1.00  0.00     0.152 C 
HETATM   16  C   UNL     1      40.583  -7.735   3.912  1.00  0.00     0.152 C 
HETATM   17  O   UNL     1      37.368  -8.506   5.450  1.00  0.00    -0.267 OA
ENDBRANCH  10  13
ENDBRANCH   4   7
ENDBRANCH   2   3
ENDBRANCH   1   2
BRANCH   1  18
HETATM   18  C   UNL     1      42.569 -15.429   2.016  1.00  0.00     0.295 C 
HETATM   19  O   UNL     1      43.419 -15.746   1.197  1.00  0.00    -0.259 OA
BRANCH  18  20
HETATM   20  C   UNL     1      42.850 -14.636   3.229  1.00  0.00     0.060 A 
HETATM   21  C   UNL     1      42.858 -15.250   4.501  1.00  0.00     0.025 A 
HETATM   22  C   UNL     1      43.122 -14.416   5.599  1.00  0.00     0.024 A 
HETATM   23  C   UNL     1      43.292 -13.033   5.452  1.00  0.00     0.002 A 
HETATM   24  C   UNL     1      43.235 -12.447   4.193  1.00  0.00     0.001 A 
HETATM   25  C   UNL     1      43.021 -13.248   3.078  1.00  0.00     0.019 A 
BRANCH  21  26
HETATM   26  N   UNL     1      42.765 -16.647   4.622  1.00  0.00    -0.286 NA
HETATM   27  H   UNL     1      42.164 -16.914   5.406  1.00  0.00     0.128 HD
BRANCH  26  28
HETATM   28  C   UNL     1      43.964 -17.483   4.563  1.00  0.00     0.157 C 
BRANCH  28  29
HETATM   29  C   UNL     1      43.788 -18.738   3.774  1.00  0.00     0.065 A 
HETATM   30  O   UNL     1      44.116 -19.906   4.400  1.00  0.00    -0.326 OA
HETATM   31  C   UNL     1      43.912 -20.907   3.506  1.00  0.00     0.142 A 
HETATM   32  C   UNL     1      43.459 -20.401   2.311  1.00  0.00     0.027 A 
HETATM   33  C   UNL     1      43.379 -18.999   2.481  1.00  0.00     0.036 A 
ENDBRANCH  28  29
ENDBRANCH  26  28
ENDBRANCH  21  26
ENDBRANCH  18  20
ENDBRANCH   1  18
TORSDOF 9
ENDMDL
MODEL 8
REMARK VINA RESULT:      -6.8      1.969      2.710
REMARK  9 active torsions:
REMARK  status: ('A' for Active; 'I' for Inactive)
REMARK       I    between atoms: N_2  and  C_3 
REMARK    1  A    between atoms: C_3  and  C_4 
REMARK    2  A    between atoms: C_7  and  N_8 
REMARK       I    between atoms: N_8  and  C_9 
REMARK    3  A    between atoms: C_9  and  C_10 
REMARK    4  A    between atoms: C_10  and  O_11 
REMARK    5  A    between atoms: O_11  and  C_12 
REMARK    6  A    between atoms: C_12  and  C_13 
REMARK    7  A    between atoms: C_14  and  N_15 
REMARK    8  A    between atoms: N_15  and  C_16 
REMARK    9  A    between atoms: C_16  and  C_17 
ROOT
HETATM    1  O   UNL     1      41.329 -15.619   5.417  1.00  0.00    -0.308 OA
ENDROOT
BRANCH   1   2
HETATM    2  C   UNL     1      40.783 -14.739   6.407  1.00  0.00     0.282 C 
BRANCH   2   3
HETATM    3  C   UNL     1      40.173 -13.489   5.766  1.00  0.00     0.246 C 
HETATM    4  N   UNL     1      40.641 -13.258   4.484  1.00  0.00    -0.325 N 
HETATM    5  H   UNL     1      41.406 -13.856   4.170  1.00  0.00     0.169 HD
HETATM    6  O   UNL     1      39.354 -12.806   6.374  1.00  0.00    -0.271 OA
BRANCH   4   7
HETATM    7  C   UNL     1      40.150 -12.338   3.539  1.00  0.00     0.034 A 
HETATM    8  C   UNL     1      40.818 -11.166   3.169  1.00  0.00     0.030 A 
HETATM    9  C   UNL     1      40.243 -10.282   2.251  1.00  0.00     0.019 A 
HETATM   10  C   UNL     1      38.997 -10.575   1.688  1.00  0.00     0.032 A 
HETATM   11  C   UNL     1      38.310 -11.728   2.068  1.00  0.00     0.019 A 
HETATM   12  C   UNL     1      38.892 -12.611   2.982  1.00  0.00     0.030 A 
BRANCH  10  13
HETATM   13  C   UNL     1      38.354  -9.636   0.743  1.00  0.00     0.253 C 
HETATM   14  N   UNL     1      37.542  -8.623   1.246  1.00  0.00    -0.357 N 
HETATM   15  C   UNL     1      36.786  -7.809   0.310  1.00  0.00     0.152 C 
HETATM   16  C   UNL     1      37.503  -8.202   2.640  1.00  0.00     0.152 C 
HETATM   17  O   UNL     1      38.568  -9.808  -0.456  1.00  0.00    -0.267 OA
ENDBRANCH  10  13
ENDBRANCH   4   7
ENDBRANCH   2   3
ENDBRANCH   1   2
BRANCH   1  18
HETATM   18  C   UNL     1      42.678 -15.743   5.432  1.00  0.00     0.295 C 
HETATM   19  O   UNL     1      43.454 -15.045   6.069  1.00  0.00    -0.259 OA
BRANCH  18  20
HETATM   20  C   UNL     1      43.103 -16.797   4.490  1.00  0.00     0.060 A 
HETATM   21  C   UNL     1      42.672 -16.773   3.145  1.00  0.00     0.025 A 
HETATM   22  C   UNL     1      43.115 -17.823   2.324  1.00  0.00     0.024 A 
HETATM   23  C   UNL     1      43.882 -18.881   2.829  1.00  0.00     0.002 A 
HETATM   24  C   UNL     1      44.256 -18.903   4.168  1.00  0.00     0.001 A 
HETATM   25  C   UNL     1      43.874 -17.858   5.000  1.00  0.00     0.019 A 
BRANCH  21  26
HETATM   26  N   UNL     1      41.971 -15.666   2.638  1.00  0.00    -0.286 NA
HETATM   27  H   UNL     1      41.835 -14.950   3.355  1.00  0.00     0.128 HD
BRANCH  26  28
HETATM   28  C   UNL     1      40.761 -15.852   1.836  1.00  0.00     0.157 C 
BRANCH  28  29
HETATM   29  C   UNL     1      40.587 -14.833   0.759  1.00  0.00     0.065 A 
HETATM   30  O   UNL     1      41.392 -13.732   0.821  1.00  0.00    -0.326 OA
HETATM   31  C   UNL     1      41.052 -12.932  -0.221  1.00  0.00     0.142 A 
HETATM   32  C   UNL     1      40.038 -13.500  -0.954  1.00  0.00     0.027 A 
HETATM   33  C   UNL     1      39.734 -14.729  -0.322  1.00  0.00     0.036 A 
ENDBRANCH  28  29
ENDBRANCH  26  28
ENDBRANCH  21  26
ENDBRANCH  18  20
ENDBRANCH   1  18
TORSDOF 9
ENDMDL
MODEL 9
REMARK VINA RESULT:      -6.6      5.850      7.197
REMARK  9 active torsions:
REMARK  status: ('A' for Active; 'I' for Inactive)
REMARK       I    between atoms: N_2  and  C_3 
REMARK    1  A    between atoms: C_3  and  C_4 
REMARK    2  A    between atoms: C_7  and  N_8 
REMARK       I    between atoms: N_8  and  C_9 
REMARK    3  A    between atoms: C_9  and  C_10 
REMARK    4  A    between atoms: C_10  and  O_11 
REMARK    5  A    between atoms: O_11  and  C_12 
REMARK    6  A    between atoms: C_12  and  C_13 
REMARK    7  A    between atoms: C_14  and  N_15 
REMARK    8  A    between atoms: N_15  and  C_16 
REMARK    9  A    between atoms: C_16  and  C_17 
ROOT
HETATM    1  O   UNL     1      43.524 -12.794   6.780  1.00  0.00    -0.308 OA
ENDROOT
BRANCH   1   2
HETATM    2  C   UNL     1      44.567 -11.822   6.639  1.00  0.00     0.282 C 
BRANCH   2   3
HETATM    3  C   UNL     1      44.799 -11.059   7.947  1.00  0.00     0.246 C 
HETATM    4  N   UNL     1      43.629 -10.559   8.493  1.00  0.00    -0.325 N 
HETATM    5  H   UNL     1      42.791 -10.645   7.917  1.00  0.00     0.169 HD
HETATM    6  O   UNL     1      45.927 -10.942   8.415  1.00  0.00    -0.271 OA
BRANCH   4   7
HETATM    7  C   UNL     1      43.444  -9.998   9.770  1.00  0.00     0.034 A 
HETATM    8  C   UNL     1      43.592 -10.709  10.965  1.00  0.00     0.030 A 
HETATM    9  C   UNL     1      43.350 -10.088  12.195  1.00  0.00     0.019 A 
HETATM   10  C   UNL     1      42.968  -8.744  12.233  1.00  0.00     0.032 A 
HETATM   11  C   UNL     1      42.793  -8.031  11.047  1.00  0.00     0.019 A 
HETATM   12  C   UNL     1      43.041  -8.656   9.821  1.00  0.00     0.030 A 
BRANCH  10  13
HETATM   13  C   UNL     1      42.673  -8.077  13.520  1.00  0.00     0.253 C 
HETATM   14  N   UNL     1      41.439  -8.301  14.127  1.00  0.00    -0.357 N 
HETATM   15  C   UNL     1      41.091  -7.521  15.302  1.00  0.00     0.152 C 
HETATM   16  C   UNL     1      40.519  -9.372  13.772  1.00  0.00     0.152 C 
HETATM   17  O   UNL     1      43.542  -7.345  13.989  1.00  0.00    -0.267 OA
ENDBRANCH  10  13
ENDBRANCH   4   7
ENDBRANCH   2   3
ENDBRANCH   1   2
BRANCH   1  18
HETATM   18  C   UNL     1      43.157 -13.422   5.637  1.00  0.00     0.295 C 
HETATM   19  O   UNL     1      42.792 -12.875   4.606  1.00  0.00    -0.259 OA
BRANCH  18  20
HETATM   20  C   UNL     1      43.172 -14.885   5.832  1.00  0.00     0.060 A 
HETATM   21  C   UNL     1      42.088 -15.677   5.394  1.00  0.00     0.025 A 
HETATM   22  C   UNL     1      42.183 -17.058   5.632  1.00  0.00     0.024 A 
HETATM   23  C   UNL     1      43.259 -17.613   6.337  1.00  0.00     0.002 A 
HETATM   24  C   UNL     1      44.292 -16.804   6.796  1.00  0.00     0.001 A 
HETATM   25  C   UNL     1      44.255 -15.440   6.539  1.00  0.00     0.019 A 
BRANCH  21  26
HETATM   26  N   UNL     1      41.058 -15.117   4.621  1.00  0.00    -0.286 NA
HETATM   27  H   UNL     1      40.355 -14.662   5.209  1.00  0.00     0.128 HD
BRANCH  26  28
HETATM   28  C   UNL     1      40.433 -15.882   3.542  1.00  0.00     0.157 C 
BRANCH  28  29
HETATM   29  C   UNL     1      40.263 -15.112   2.274  1.00  0.00     0.065 A 
HETATM   30  O   UNL     1      40.087 -13.763   2.396  1.00  0.00    -0.326 OA
HETATM   31  C   UNL     1      39.924 -13.269   1.142  1.00  0.00     0.142 A 
HETATM   32  C   UNL     1      39.989 -14.280   0.213  1.00  0.00     0.027 A 
HETATM   33  C   UNL     1      40.207 -15.473   0.943  1.00  0.00     0.036 A 
ENDBRANCH  28  29
ENDBRANCH  26  28
ENDBRANCH  21  26
ENDBRANCH  18  20
ENDBRANCH   1  18
TORSDOF 9
ENDMDL
MODEL 10
REMARK VINA RESULT:      -6.5     15.186     18.146
REMARK  9 active torsions:
REMARK  status: ('A' for Active; 'I' for Inactive)
REMARK       I    between atoms: N_2  and  C_3 
REMARK    1  A    between atoms: C_3  and  C_4 
REMARK    2  A    between atoms: C_7  and  N_8 
REMARK       I    between atoms: N_8  and  C_9 
REMARK    3  A    between atoms: C_9  and  C_10 
REMARK    4  A    between atoms: C_10  and  O_11 
REMARK    5  A    between atoms: O_11  and  C_12 
REMARK    6  A    between atoms: C_12  and  C_13 
REMARK    7  A    between atoms: C_14  and  N_15 
REMARK    8  A    between atoms: N_15  and  C_16 
REMARK    9  A    between atoms: C_16  and  C_17 
ROOT
HETATM    1  O   UNL     1      47.930 -28.102  -1.380  1.00  0.00    -0.308 OA
ENDROOT
BRANCH   1   2
HETATM    2  C   UNL     1      48.522 -29.381  -1.632  1.00  0.00     0.282 C 
BRANCH   2   3
HETATM    3  C   UNL     1      49.574 -29.728  -0.575  1.00  0.00     0.246 C 
HETATM    4  N   UNL     1      49.053 -29.783   0.706  1.00  0.00    -0.325 N 
HETATM    5  H   UNL     1      48.086 -29.474   0.811  1.00  0.00     0.169 HD
HETATM    6  O   UNL     1      50.742 -29.932  -0.893  1.00  0.00    -0.271 OA
BRANCH   4   7
HETATM    7  C   UNL     1      49.675 -30.268   1.871  1.00  0.00     0.034 A 
HETATM    8  C   UNL     1      50.398 -31.463   1.931  1.00  0.00     0.030 A 
HETATM    9  C   UNL     1      50.953 -31.897   3.140  1.00  0.00     0.019 A 
HETATM   10  C   UNL     1      50.795 -31.126   4.295  1.00  0.00     0.032 A 
HETATM   11  C   UNL     1      50.055 -29.944   4.253  1.00  0.00     0.019 A 
HETATM   12  C   UNL     1      49.507 -29.513   3.041  1.00  0.00     0.030 A 
BRANCH  10  13
HETATM   13  C   UNL     1      51.343 -31.583   5.591  1.00  0.00     0.253 C 
HETATM   14  N   UNL     1      50.665 -32.574   6.296  1.00  0.00    -0.357 N 
HETATM   15  C   UNL     1      51.115 -32.903   7.638  1.00  0.00     0.152 C 
HETATM   16  C   UNL     1      49.627 -33.431   5.740  1.00  0.00     0.152 C 
HETATM   17  O   UNL     1      52.378 -31.049   5.985  1.00  0.00    -0.267 OA
ENDBRANCH  10  13
ENDBRANCH   4   7
ENDBRANCH   2   3
ENDBRANCH   1   2
BRANCH   1  18
HETATM   18  C   UNL     1      46.703 -28.132  -0.808  1.00  0.00     0.295 C 
HETATM   19  O   UNL     1      46.451 -27.866   0.359  1.00  0.00    -0.259 OA
BRANCH  18  20
HETATM   20  C   UNL     1      45.701 -28.623  -1.775  1.00  0.00     0.060 A 
HETATM   21  C   UNL     1      44.886 -29.732  -1.460  1.00  0.00     0.025 A 
HETATM   22  C   UNL     1      43.970 -30.138  -2.445  1.00  0.00     0.024 A 
HETATM   23  C   UNL     1      43.921 -29.525  -3.704  1.00  0.00     0.002 A 
HETATM   24  C   UNL     1      44.766 -28.463  -4.003  1.00  0.00     0.001 A 
HETATM   25  C   UNL     1      45.653 -28.005  -3.038  1.00  0.00     0.019 A 
BRANCH  21  26
HETATM   26  N   UNL     1      44.893 -30.283  -0.168  1.00  0.00    -0.286 NA
HETATM   27  H   UNL     1      44.988 -29.558   0.547  1.00  0.00     0.128 HD
BRANCH  26  28
HETATM   28  C   UNL     1      45.723 -31.447   0.143  1.00  0.00     0.157 C 
BRANCH  28  29
HETATM   29  C   UNL     1      46.086 -31.564   1.586  1.00  0.00     0.065 A 
HETATM   30  O   UNL     1      45.721 -30.527   2.395  1.00  0.00    -0.326 OA
HETATM   31  C   UNL     1      46.168 -30.820   3.643  1.00  0.00     0.142 A 
HETATM   32  C   UNL     1      46.818 -32.031   3.650  1.00  0.00     0.027 A 
HETATM   33  C   UNL     1      46.768 -32.513   2.321  1.00  0.00     0.036 A 
ENDBRANCH  28  29
ENDBRANCH  26  28
ENDBRANCH  21  26
ENDBRANCH  18  20
ENDBRANCH   1  18
TORSDOF 9
ENDMDL
