MODEL 1
REMARK VINA RESULT:      -9.1      0.000      0.000
REMARK  4 active torsions:
REMARK  status: ('A' for Active; 'I' for Inactive)
REMARK    1  A    between atoms: O_1  and  C_2 
REMARK    2  A    between atoms: C_2  and  C_3 
REMARK    3  A    between atoms: N_5  and  C_17 
REMARK    4  A    between atoms: C_20  and  C_23 
ROOT
HETATM    1  C   UNL     1      42.662 -11.554   5.031  1.00  0.00     0.060 C 
HETATM    2  C   UNL     1      43.137 -12.774   4.240  1.00  0.00     0.141 C 
HETATM    3  N   UNL     1      43.291 -13.830   5.220  1.00  0.00    -0.316 N 
HETATM    4  C   UNL     1      43.330 -13.295   6.517  1.00  0.00     0.248 C 
HETATM    5  O   UNL     1      43.370 -13.878   7.594  1.00  0.00    -0.271 OA
HETATM    6  C   UNL     1      43.335 -11.764   6.394  1.00  0.00     0.108 A 
HETATM    7  C   UNL     1      44.805 -11.261   6.417  1.00  0.00     0.076 A 
HETATM    8  C   UNL     1      44.755 -10.239   7.497  1.00  0.00    -0.035 A 
HETATM    9  C   UNL     1      45.777  -9.426   7.960  1.00  0.00     0.009 A 
HETATM   10  C   UNL     1      45.509  -8.573   9.034  1.00  0.00     0.001 A 
HETATM   11  C   UNL     1      44.237  -8.551   9.625  1.00  0.00     0.002 A 
HETATM   12  C   UNL     1      43.219  -9.379   9.146  1.00  0.00     0.024 A 
HETATM   13  C   UNL     1      43.491 -10.209   8.073  1.00  0.00     0.015 A 
HETATM   14  N   UNL     1      42.572 -11.132   7.514  1.00  0.00    -0.274 NA
HETATM   15  H   UNL     1      42.378 -11.833   8.239  1.00  0.00     0.129 HD
ENDROOT
BRANCH   3  16
HETATM   16  C   UNL     1      43.427 -15.202   4.866  1.00  0.00     0.037 A 
HETATM   17  C   UNL     1      43.067 -15.677   3.599  1.00  0.00     0.030 A 
HETATM   18  C   UNL     1      43.199 -17.032   3.259  1.00  0.00     0.014 A 
HETATM   19  C   UNL     1      43.703 -17.955   4.177  1.00  0.00    -0.023 A 
HETATM   20  C   UNL     1      44.065 -17.494   5.445  1.00  0.00     0.014 A 
HETATM   21  C   UNL     1      43.921 -16.140   5.785  1.00  0.00     0.030 A 
BRANCH  19  22
HETATM   22  C   UNL     1      43.859 -19.356   3.830  1.00  0.00     0.010 A 
HETATM   23  C   UNL     1      43.676 -20.031   2.601  1.00  0.00     0.152 A 
HETATM   24  N   UNL     1      43.936 -21.339   2.685  1.00  0.00    -0.187 NA
HETATM   25  N   UNL     1      44.286 -21.507   3.969  1.00  0.00    -0.289 N 
HETATM   26  H   UNL     1      44.535 -22.440   4.282  1.00  0.00     0.188 HD
HETATM   27  C   UNL     1      44.257 -20.352   4.696  1.00  0.00     0.123 A 
ENDBRANCH  19  22
ENDBRANCH   3  16
BRANCH   1  28
HETATM   28  C   UNL     1      41.132 -11.501   5.097  1.00  0.00     0.172 C 
BRANCH  28  29
HETATM   29  O   UNL     1      40.726 -10.166   5.390  1.00  0.00    -0.400 OA
HETATM   30  H   UNL     1      41.463  -9.586   5.126  1.00  0.00     0.209 HD
ENDBRANCH  28  29
ENDBRANCH   1  28
TORSDOF 4
ENDMDL
MODEL 2
REMARK VINA RESULT:      -8.9      5.316      8.592
REMARK  4 active torsions:
REMARK  status: ('A' for Active; 'I' for Inactive)
REMARK    1  A    between atoms: O_1  and  C_2 
REMARK    2  A    between atoms: C_2  and  C_3 
REMARK    3  A    between atoms: N_5  and  C_17 
REMARK    4  A    between atoms: C_20  and  C_23 
ROOT
HETATM    1  C   UNL     1      43.139 -14.190   3.258  1.00  0.00     0.060 C 
HETATM    2  C   UNL     1      42.629 -13.675   1.911  1.00  0.00     0.141 C 
HETATM    3  N   UNL     1      41.296 -14.226   1.771  1.00  0.00    -0.316 N 
HETATM    4  C   UNL     1      41.104 -15.285   2.671  1.00  0.00     0.248 C 
HETATM    5  O   UNL     1      40.091 -15.935   2.897  1.00  0.00    -0.271 OA
HETATM    6  C   UNL     1      42.443 -15.553   3.373  1.00  0.00     0.108 A 
HETATM    7  C   UNL     1      43.199 -16.674   2.610  1.00  0.00     0.076 A 
HETATM    8  C   UNL     1      43.501 -17.633   3.707  1.00  0.00    -0.035 A 
HETATM    9  C   UNL     1      44.189 -18.834   3.636  1.00  0.00     0.009 A 
HETATM   10  C   UNL     1      44.301 -19.602   4.797  1.00  0.00     0.001 A 
HETATM   11  C   UNL     1      43.724 -19.165   5.998  1.00  0.00     0.002 A 
HETATM   12  C   UNL     1      43.032 -17.953   6.051  1.00  0.00     0.024 A 
HETATM   13  C   UNL     1      42.939 -17.193   4.899  1.00  0.00     0.015 A 
HETATM   14  N   UNL     1      42.231 -15.969   4.794  1.00  0.00    -0.274 NA
HETATM   15  H   UNL     1      41.239 -16.188   4.946  1.00  0.00     0.129 HD
ENDROOT
BRANCH   3  16
HETATM   16  C   UNL     1      40.361 -13.755   0.806  1.00  0.00     0.037 A 
HETATM   17  C   UNL     1      40.078 -14.473  -0.361  1.00  0.00     0.030 A 
HETATM   18  C   UNL     1      39.160 -14.000  -1.310  1.00  0.00     0.014 A 
HETATM   19  C   UNL     1      38.489 -12.791  -1.117  1.00  0.00    -0.023 A 
HETATM   20  C   UNL     1      38.763 -12.064   0.044  1.00  0.00     0.014 A 
HETATM   21  C   UNL     1      39.691 -12.535   0.985  1.00  0.00     0.030 A 
BRANCH  19  22
HETATM   22  C   UNL     1      37.525 -12.299  -2.084  1.00  0.00     0.010 A 
HETATM   23  C   UNL     1      37.084 -10.985  -2.366  1.00  0.00     0.152 A 
HETATM   24  N   UNL     1      36.183 -10.941  -3.352  1.00  0.00    -0.187 NA
HETATM   25  N   UNL     1      36.043 -12.228  -3.706  1.00  0.00    -0.289 N 
HETATM   26  H   UNL     1      35.397 -12.454  -4.454  1.00  0.00     0.188 HD
HETATM   27  C   UNL     1      36.825 -13.080  -2.979  1.00  0.00     0.123 A 
ENDBRANCH  19  22
ENDBRANCH   3  16
BRANCH   1  28
HETATM   28  C   UNL     1      42.788 -13.217   4.388  1.00  0.00     0.172 C 
BRANCH  28  29
HETATM   29  O   UNL     1      43.571 -13.538   5.537  1.00  0.00    -0.400 OA
HETATM   30  H   UNL     1      44.393 -13.945   5.209  1.00  0.00     0.209 HD
ENDBRANCH  28  29
ENDBRANCH   1  28
TORSDOF 4
ENDMDL
MODEL 3
REMARK VINA RESULT:      -8.7      2.279      2.905
REMARK  4 active torsions:
REMARK  status: ('A' for Active; 'I' for Inactive)
REMARK    1  A    between atoms: O_1  and  C_2 
REMARK    2  A    between atoms: C_2  and  C_3 
REMARK    3  A    between atoms: N_5  and  C_17 
REMARK    4  A    between atoms: C_20  and  C_23 
ROOT
HETATM    1  C   UNL     1      42.708 -11.184   3.304  1.00  0.00     0.060 C 
HETATM    2  C   UNL     1      43.522 -12.479   3.315  1.00  0.00     0.141 C 
HETATM    3  N   UNL     1      42.606 -13.503   3.776  1.00  0.00    -0.316 N 
HETATM    4  C   UNL     1      41.484 -12.921   4.386  1.00  0.00     0.248 C 
HETATM    5  O   UNL     1      40.472 -13.459   4.819  1.00  0.00    -0.271 OA
HETATM    6  C   UNL     1      41.723 -11.406   4.459  1.00  0.00     0.108 A 
HETATM    7  C   UNL     1      42.338 -11.058   5.842  1.00  0.00     0.076 A 
HETATM    8  C   UNL     1      41.417  -9.991   6.320  1.00  0.00    -0.035 A 
HETATM    9  C   UNL     1      41.474  -9.271   7.502  1.00  0.00     0.009 A 
HETATM   10  C   UNL     1      40.457  -8.350   7.766  1.00  0.00     0.001 A 
HETATM   11  C   UNL     1      39.405  -8.171   6.856  1.00  0.00     0.002 A 
HETATM   12  C   UNL     1      39.362  -8.908   5.670  1.00  0.00     0.024 A 
HETATM   13  C   UNL     1      40.382  -9.806   5.411  1.00  0.00     0.015 A 
HETATM   14  N   UNL     1      40.445 -10.651   4.276  1.00  0.00    -0.274 NA
HETATM   15  H   UNL     1      39.649 -11.296   4.343  1.00  0.00     0.129 HD
ENDROOT
BRANCH   3  16
HETATM   16  C   UNL     1      42.873 -14.895   3.647  1.00  0.00     0.037 A 
HETATM   17  C   UNL     1      42.895 -15.531   2.401  1.00  0.00     0.030 A 
HETATM   18  C   UNL     1      43.154 -16.905   2.282  1.00  0.00     0.014 A 
HETATM   19  C   UNL     1      43.405 -17.687   3.411  1.00  0.00    -0.023 A 
HETATM   20  C   UNL     1      43.384 -17.064   4.662  1.00  0.00     0.014 A 
HETATM   21  C   UNL     1      43.114 -15.692   4.777  1.00  0.00     0.030 A 
BRANCH  19  22
HETATM   22  C   UNL     1      43.689 -19.105   3.299  1.00  0.00     0.010 A 
HETATM   23  C   UNL     1      43.700 -19.962   2.173  1.00  0.00     0.152 A 
HETATM   24  N   UNL     1      44.030 -21.219   2.482  1.00  0.00    -0.187 NA
HETATM   25  N   UNL     1      44.231 -21.174   3.808  1.00  0.00    -0.289 N 
HETATM   26  H   UNL     1      44.499 -22.029   4.283  1.00  0.00     0.188 HD
HETATM   27  C   UNL     1      44.042 -19.933   4.344  1.00  0.00     0.123 A 
ENDBRANCH  19  22
ENDBRANCH   3  16
BRANCH   1  28
HETATM   28  C   UNL     1      42.033 -10.970   1.946  1.00  0.00     0.172 C 
BRANCH  28  29
HETATM   29  O   UNL     1      41.740  -9.583   1.786  1.00  0.00    -0.400 OA
HETATM   30  H   UNL     1      41.069  -9.361   2.457  1.00  0.00     0.209 HD
ENDBRANCH  28  29
ENDBRANCH   1  28
TORSDOF 4
ENDMDL
MODEL 4
REMARK VINA RESULT:      -8.7      3.124      4.958
REMARK  4 active torsions:
REMARK  status: ('A' for Active; 'I' for Inactive)
REMARK    1  A    between atoms: O_1  and  C_2 
REMARK    2  A    between atoms: C_2  and  C_3 
REMARK    3  A    between atoms: N_5  and  C_17 
REMARK    4  A    between atoms: C_20  and  C_23 
ROOT
HETATM    1  C   UNL     1      45.394  -9.795   9.097  1.00  0.00     0.060 C 
HETATM    2  C   UNL     1      45.358 -11.056   8.231  1.00  0.00     0.141 C 
HETATM    3  N   UNL     1      44.043 -11.065   7.623  1.00  0.00    -0.316 N 
HETATM    4  C   UNL     1      43.181 -10.189   8.301  1.00  0.00     0.248 C 
HETATM    5  O   UNL     1      42.029  -9.873   8.032  1.00  0.00    -0.271 OA
HETATM    6  C   UNL     1      43.929  -9.653   9.531  1.00  0.00     0.108 A 
HETATM    7  C   UNL     1      43.582 -10.539  10.759  1.00  0.00     0.076 A 
HETATM    8  C   UNL     1      43.139  -9.519  11.748  1.00  0.00    -0.035 A 
HETATM    9  C   UNL     1      42.723  -9.713  13.056  1.00  0.00     0.009 A 
HETATM   10  C   UNL     1      42.294  -8.602  13.785  1.00  0.00     0.001 A 
HETATM   11  C   UNL     1      42.282  -7.327  13.200  1.00  0.00     0.002 A 
HETATM   12  C   UNL     1      42.703  -7.151  11.879  1.00  0.00     0.024 A 
HETATM   13  C   UNL     1      43.140  -8.256  11.171  1.00  0.00     0.015 A 
HETATM   14  N   UNL     1      43.551  -8.234   9.814  1.00  0.00    -0.274 NA
HETATM   15  H   UNL     1      42.725  -7.979   9.259  1.00  0.00     0.129 HD
ENDROOT
BRANCH   3  16
HETATM   16  C   UNL     1      43.706 -11.899   6.520  1.00  0.00     0.037 A 
HETATM   17  C   UNL     1      43.396 -13.254   6.686  1.00  0.00     0.030 A 
HETATM   18  C   UNL     1      43.070 -14.071   5.593  1.00  0.00     0.014 A 
HETATM   19  C   UNL     1      43.038 -13.554   4.297  1.00  0.00    -0.023 A 
HETATM   20  C   UNL     1      43.346 -12.204   4.117  1.00  0.00     0.014 A 
HETATM   21  C   UNL     1      43.683 -11.392   5.212  1.00  0.00     0.030 A 
BRANCH  19  22
HETATM   22  C   UNL     1      42.686 -14.387   3.161  1.00  0.00     0.010 A 
HETATM   23  C   UNL     1      41.607 -15.281   2.967  1.00  0.00     0.152 A 
HETATM   24  N   UNL     1      41.622 -15.858   1.762  1.00  0.00    -0.187 NA
HETATM   25  N   UNL     1      42.712 -15.335   1.178  1.00  0.00    -0.289 N 
HETATM   26  H   UNL     1      42.939 -15.627   0.233  1.00  0.00     0.188 HD
HETATM   27  C   UNL     1      43.382 -14.449   1.972  1.00  0.00     0.123 A 
ENDBRANCH  19  22
ENDBRANCH   3  16
BRANCH   1  28
HETATM   28  C   UNL     1      45.926  -8.597   8.304  1.00  0.00     0.172 C 
BRANCH  28  29
HETATM   29  O   UNL     1      46.977  -9.038   7.447  1.00  0.00    -0.400 OA
HETATM   30  H   UNL     1      46.604  -9.075   6.547  1.00  0.00     0.209 HD
ENDBRANCH  28  29
ENDBRANCH   1  28
TORSDOF 4
ENDMDL
MODEL 5
REMARK VINA RESULT:      -8.3      4.376      5.887
REMARK  4 active torsions:
REMARK  status: ('A' for Active; 'I' for Inactive)
REMARK    1  A    between atoms: O_1  and  C_2 
REMARK    2  A    between atoms: C_2  and  C_3 
REMARK    3  A    between atoms: N_5  and  C_17 
REMARK    4  A    between atoms: C_20  and  C_23 
ROOT
HETATM    1  C   UNL     1      41.736 -13.689   6.005  1.00  0.00     0.060 C 
HETATM    2  C   UNL     1      40.663 -13.710   4.915  1.00  0.00     0.141 C 
HETATM    3  N   UNL     1      41.321 -13.217   3.721  1.00  0.00    -0.316 N 
HETATM    4  C   UNL     1      42.519 -12.564   4.054  1.00  0.00     0.248 C 
HETATM    5  O   UNL     1      43.375 -12.094   3.315  1.00  0.00    -0.271 OA
HETATM    6  C   UNL     1      42.607 -12.498   5.586  1.00  0.00     0.108 A 
HETATM    7  C   UNL     1      42.030 -11.138   6.066  1.00  0.00     0.076 A 
HETATM    8  C   UNL     1      43.140 -10.624   6.915  1.00  0.00    -0.035 A 
HETATM    9  C   UNL     1      43.194  -9.444   7.638  1.00  0.00     0.009 A 
HETATM   10  C   UNL     1      44.374  -9.141   8.322  1.00  0.00     0.001 A 
HETATM   11  C   UNL     1      45.473 -10.011   8.266  1.00  0.00     0.002 A 
HETATM   12  C   UNL     1      45.401 -11.196   7.529  1.00  0.00     0.024 A 
HETATM   13  C   UNL     1      44.223 -11.494   6.868  1.00  0.00     0.015 A 
HETATM   14  N   UNL     1      44.023 -12.632   6.049  1.00  0.00    -0.274 NA
HETATM   15  H   UNL     1      44.659 -12.536   5.248  1.00  0.00     0.129 HD
ENDROOT
BRANCH   3  16
HETATM   16  C   UNL     1      40.768 -13.357   2.418  1.00  0.00     0.037 A 
HETATM   17  C   UNL     1      40.836 -14.564   1.712  1.00  0.00     0.030 A 
HETATM   18  C   UNL     1      40.293 -14.694   0.425  1.00  0.00     0.014 A 
HETATM   19  C   UNL     1      39.656 -13.617  -0.195  1.00  0.00    -0.023 A 
HETATM   20  C   UNL     1      39.582 -12.407   0.498  1.00  0.00     0.014 A 
HETATM   21  C   UNL     1      40.137 -12.278   1.781  1.00  0.00     0.030 A 
BRANCH  19  22
HETATM   22  C   UNL     1      39.077 -13.744  -1.520  1.00  0.00     0.010 A 
HETATM   23  C   UNL     1      39.513 -14.465  -2.656  1.00  0.00     0.152 A 
HETATM   24  N   UNL     1      38.685 -14.340  -3.698  1.00  0.00    -0.187 NA
HETATM   25  N   UNL     1      37.715 -13.538  -3.233  1.00  0.00    -0.289 N 
HETATM   26  H   UNL     1      36.953 -13.294  -3.856  1.00  0.00     0.188 HD
HETATM   27  C   UNL     1      37.901 -13.155  -1.935  1.00  0.00     0.123 A 
ENDBRANCH  19  22
ENDBRANCH   3  16
BRANCH   1  28
HETATM   28  C   UNL     1      42.491 -15.020   6.061  1.00  0.00     0.172 C 
BRANCH  28  29
HETATM   29  O   UNL     1      43.036 -15.191   7.369  1.00  0.00    -0.400 OA
HETATM   30  H   UNL     1      43.619 -14.427   7.529  1.00  0.00     0.209 HD
ENDBRANCH  28  29
ENDBRANCH   1  28
TORSDOF 4
ENDMDL
MODEL 6
REMARK VINA RESULT:      -8.0      7.393     13.603
REMARK  4 active torsions:
REMARK  status: ('A' for Active; 'I' for Inactive)
REMARK    1  A    between atoms: O_1  and  C_2 
REMARK    2  A    between atoms: C_2  and  C_3 
REMARK    3  A    between atoms: N_5  and  C_17 
REMARK    4  A    between atoms: C_20  and  C_23 
ROOT
HETATM    1  C   UNL     1      41.044  -9.940  13.005  1.00  0.00     0.060 C 
HETATM    2  C   UNL     1      40.758  -8.995  14.174  1.00  0.00     0.141 C 
HETATM    3  N   UNL     1      40.504  -7.703  13.569  1.00  0.00    -0.316 N 
HETATM    4  C   UNL     1      40.966  -7.681  12.244  1.00  0.00     0.248 C 
HETATM    5  O   UNL     1      40.856  -6.800  11.400  1.00  0.00    -0.271 OA
HETATM    6  C   UNL     1      41.700  -9.004  11.981  1.00  0.00     0.108 A 
HETATM    7  C   UNL     1      43.217  -8.801  12.245  1.00  0.00     0.076 A 
HETATM    8  C   UNL     1      43.813  -9.301  10.976  1.00  0.00    -0.035 A 
HETATM    9  C   UNL     1      45.151  -9.390  10.630  1.00  0.00     0.009 A 
HETATM   10  C   UNL     1      45.474  -9.841   9.348  1.00  0.00     0.001 A 
HETATM   11  C   UNL     1      44.464 -10.187   8.439  1.00  0.00     0.002 A 
HETATM   12  C   UNL     1      43.119 -10.089   8.804  1.00  0.00     0.024 A 
HETATM   13  C   UNL     1      42.810  -9.654  10.081  1.00  0.00     0.015 A 
HETATM   14  N   UNL     1      41.495  -9.463  10.572  1.00  0.00    -0.274 NA
HETATM   15  H   UNL     1      41.080  -8.704  10.018  1.00  0.00     0.129 HD
ENDROOT
BRANCH   3  16
HETATM   16  C   UNL     1      39.907  -6.621  14.275  1.00  0.00     0.037 A 
HETATM   17  C   UNL     1      38.551  -6.303  14.132  1.00  0.00     0.030 A 
HETATM   18  C   UNL     1      37.972  -5.231  14.828  1.00  0.00     0.014 A 
HETATM   19  C   UNL     1      38.732  -4.446  15.696  1.00  0.00    -0.023 A 
HETATM   20  C   UNL     1      40.087  -4.752  15.846  1.00  0.00     0.014 A 
HETATM   21  C   UNL     1      40.666  -5.818  15.140  1.00  0.00     0.030 A 
BRANCH  19  22
HETATM   22  C   UNL     1      38.139  -3.345  16.433  1.00  0.00     0.010 A 
HETATM   23  C   UNL     1      38.389  -2.864  17.740  1.00  0.00     0.152 A 
HETATM   24  N   UNL     1      37.637  -1.806  18.055  1.00  0.00    -0.187 NA
HETATM   25  N   UNL     1      36.902  -1.604  16.951  1.00  0.00    -0.289 N 
HETATM   26  H   UNL     1      36.239  -0.836  16.948  1.00  0.00     0.188 HD
HETATM   27  C   UNL     1      37.165  -2.496  15.951  1.00  0.00     0.123 A 
ENDBRANCH  19  22
ENDBRANCH   3  16
BRANCH   1  28
HETATM   28  C   UNL     1      39.758 -10.603  12.504  1.00  0.00     0.172 C 
BRANCH  28  29
HETATM   29  O   UNL     1      39.410 -11.668  13.387  1.00  0.00    -0.400 OA
HETATM   30  H   UNL     1      40.244 -11.996  13.769  1.00  0.00     0.209 HD
ENDBRANCH  28  29
ENDBRANCH   1  28
TORSDOF 4
ENDMDL
MODEL 7
REMARK VINA RESULT:      -7.8      3.568      8.631
REMARK  4 active torsions:
REMARK  status: ('A' for Active; 'I' for Inactive)
REMARK    1  A    between atoms: O_1  and  C_2 
REMARK    2  A    between atoms: C_2  and  C_3 
REMARK    3  A    between atoms: N_5  and  C_17 
REMARK    4  A    between atoms: C_20  and  C_23 
ROOT
HETATM    1  C   UNL     1      43.661 -15.309   6.698  1.00  0.00     0.060 C 
HETATM    2  C   UNL     1      43.294 -13.996   6.005  1.00  0.00     0.141 C 
HETATM    3  N   UNL     1      41.985 -14.221   5.425  1.00  0.00    -0.316 N 
HETATM    4  C   UNL     1      41.703 -15.595   5.366  1.00  0.00     0.248 C 
HETATM    5  O   UNL     1      40.674 -16.160   5.017  1.00  0.00    -0.271 OA
HETATM    6  C   UNL     1      42.962 -16.352   5.815  1.00  0.00     0.108 A 
HETATM    7  C   UNL     1      43.798 -16.729   4.562  1.00  0.00     0.076 A 
HETATM    8  C   UNL     1      43.986 -18.193   4.756  1.00  0.00    -0.035 A 
HETATM    9  C   UNL     1      44.682 -19.085   3.956  1.00  0.00     0.009 A 
HETATM   10  C   UNL     1      44.674 -20.436   4.310  1.00  0.00     0.001 A 
HETATM   11  C   UNL     1      43.971 -20.871   5.443  1.00  0.00     0.002 A 
HETATM   12  C   UNL     1      43.273 -19.958   6.237  1.00  0.00     0.024 A 
HETATM   13  C   UNL     1      43.299 -18.620   5.886  1.00  0.00     0.015 A 
HETATM   14  N   UNL     1      42.602 -17.593   6.569  1.00  0.00    -0.274 NA
HETATM   15  H   UNL     1      41.601 -17.789   6.455  1.00  0.00     0.129 HD
ENDROOT
BRANCH   3  16
HETATM   16  C   UNL     1      41.156 -13.166   4.951  1.00  0.00     0.037 A 
HETATM   17  C   UNL     1      41.341 -12.590   3.689  1.00  0.00     0.030 A 
HETATM   18  C   UNL     1      40.523 -11.546   3.231  1.00  0.00     0.014 A 
HETATM   19  C   UNL     1      39.487 -11.048   4.023  1.00  0.00    -0.023 A 
HETATM   20  C   UNL     1      39.291 -11.614   5.285  1.00  0.00     0.014 A 
HETATM   21  C   UNL     1      40.119 -12.651   5.744  1.00  0.00     0.030 A 
BRANCH  19  22
HETATM   22  C   UNL     1      38.624  -9.980   3.554  1.00  0.00     0.010 A 
HETATM   23  C   UNL     1      38.092  -9.716   2.269  1.00  0.00     0.152 A 
HETATM   24  N   UNL     1      37.318  -8.627   2.243  1.00  0.00    -0.187 NA
HETATM   25  N   UNL     1      37.351  -8.189   3.511  1.00  0.00    -0.289 N 
HETATM   26  H   UNL     1      36.825  -7.353   3.745  1.00  0.00     0.188 HD
HETATM   27  C   UNL     1      38.117  -8.963   4.334  1.00  0.00     0.123 A 
ENDBRANCH  19  22
ENDBRANCH   3  16
BRANCH   1  28
HETATM   28  C   UNL     1      43.189 -15.314   8.155  1.00  0.00     0.172 C 
BRANCH  28  29
HETATM   29  O   UNL     1      43.791 -16.414   8.834  1.00  0.00    -0.400 OA
HETATM   30  H   UNL     1      43.893 -16.145   9.765  1.00  0.00     0.209 HD
ENDBRANCH  28  29
ENDBRANCH   1  28
TORSDOF 4
ENDMDL
MODEL 8
REMARK VINA RESULT:      -7.8      5.108      6.210
REMARK  4 active torsions:
REMARK  status: ('A' for Active; 'I' for Inactive)
REMARK    1  A    between atoms: O_1  and  C_2 
REMARK    2  A    between atoms: C_2  and  C_3 
REMARK    3  A    between atoms: N_5  and  C_17 
REMARK    4  A    between atoms: C_20  and  C_23 
ROOT
HETATM    1  C   UNL     1      39.421 -11.501   0.216  1.00  0.00     0.060 C 
HETATM    2  C   UNL     1      39.867 -12.963   0.165  1.00  0.00     0.141 C 
HETATM    3  N   UNL     1      41.015 -13.044   1.046  1.00  0.00    -0.316 N 
HETATM    4  C   UNL     1      41.523 -11.763   1.311  1.00  0.00     0.248 C 
HETATM    5  O   UNL     1      42.427 -11.430   2.067  1.00  0.00    -0.271 OA
HETATM    6  C   UNL     1      40.746 -10.762   0.444  1.00  0.00     0.108 A 
HETATM    7  C   UNL     1      41.529 -10.522  -0.875  1.00  0.00     0.076 A 
HETATM    8  C   UNL     1      41.628  -9.037  -0.900  1.00  0.00    -0.035 A 
HETATM    9  C   UNL     1      42.210  -8.229  -1.863  1.00  0.00     0.009 A 
HETATM   10  C   UNL     1      42.235  -6.849  -1.643  1.00  0.00     0.001 A 
HETATM   11  C   UNL     1      41.688  -6.306  -0.471  1.00  0.00     0.002 A 
HETATM   12  C   UNL     1      41.107  -7.136   0.491  1.00  0.00     0.024 A 
HETATM   13  C   UNL     1      41.075  -8.499   0.256  1.00  0.00     0.015 A 
HETATM   14  N   UNL     1      40.561  -9.461   1.160  1.00  0.00    -0.274 NA
HETATM   15  H   UNL     1      41.162  -9.436   1.992  1.00  0.00     0.129 HD
ENDROOT
BRANCH   3  16
HETATM   16  C   UNL     1      41.546 -14.279   1.514  1.00  0.00     0.037 A 
HETATM   17  C   UNL     1      40.724 -15.293   2.020  1.00  0.00     0.030 A 
HETATM   18  C   UNL     1      41.255 -16.505   2.485  1.00  0.00     0.014 A 
HETATM   19  C   UNL     1      42.630 -16.744   2.452  1.00  0.00    -0.023 A 
HETATM   20  C   UNL     1      43.462 -15.740   1.950  1.00  0.00     0.014 A 
HETATM   21  C   UNL     1      42.928 -14.524   1.497  1.00  0.00     0.030 A 
BRANCH  19  22
HETATM   22  C   UNL     1      43.189 -18.001   2.915  1.00  0.00     0.010 A 
HETATM   23  C   UNL     1      43.862 -18.329   4.116  1.00  0.00     0.152 A 
HETATM   24  N   UNL     1      44.216 -19.616   4.177  1.00  0.00    -0.187 NA
HETATM   25  N   UNL     1      43.772 -20.118   3.014  1.00  0.00    -0.289 N 
HETATM   26  H   UNL     1      43.926 -21.103   2.825  1.00  0.00     0.188 HD
HETATM   27  C   UNL     1      43.149 -19.194   2.225  1.00  0.00     0.123 A 
ENDBRANCH  19  22
ENDBRANCH   3  16
BRANCH   1  28
HETATM   28  C   UNL     1      38.388 -11.279   1.325  1.00  0.00     0.172 C 
BRANCH  28  29
HETATM   29  O   UNL     1      38.020 -12.542   1.878  1.00  0.00    -0.400 OA
HETATM   30  H   UNL     1      37.078 -12.478   2.114  1.00  0.00     0.209 HD
ENDBRANCH  28  29
ENDBRANCH   1  28
TORSDOF 4
ENDMDL
MODEL 9
REMARK VINA RESULT:      -7.7     16.327     18.608
REMARK  4 active torsions:
REMARK  status: ('A' for Active; 'I' for Inactive)
REMARK    1  A    between atoms: O_1  and  C_2 
REMARK    2  A    between atoms: C_2  and  C_3 
REMARK    3  A    between atoms: N_5  and  C_17 
REMARK    4  A    between atoms: C_20  and  C_23 
ROOT
HETATM    1  C   UNL     1      43.986 -29.286   0.657  1.00  0.00     0.060 C 
HETATM    2  C   UNL     1      43.841 -29.143  -0.859  1.00  0.00     0.141 C 
HETATM    3  N   UNL     1      44.572 -30.261  -1.420  1.00  0.00    -0.316 N 
HETATM    4  C   UNL     1      45.429 -30.820  -0.460  1.00  0.00     0.248 C 
HETATM    5  O   UNL     1      46.137 -31.816  -0.541  1.00  0.00    -0.271 OA
HETATM    6  C   UNL     1      45.368 -29.937   0.795  1.00  0.00     0.108 A 
HETATM    7  C   UNL     1      46.523 -28.900   0.738  1.00  0.00     0.076 A 
HETATM    8  C   UNL     1      47.179 -29.109   2.058  1.00  0.00    -0.035 A 
HETATM    9  C   UNL     1      48.270 -28.443   2.592  1.00  0.00     0.009 A 
HETATM   10  C   UNL     1      48.751 -28.853   3.838  1.00  0.00     0.001 A 
HETATM   11  C   UNL     1      48.143 -29.917   4.521  1.00  0.00     0.002 A 
HETATM   12  C   UNL     1      47.044 -30.579   3.966  1.00  0.00     0.024 A 
HETATM   13  C   UNL     1      46.567 -30.155   2.739  1.00  0.00     0.015 A 
HETATM   14  N   UNL     1      45.494 -30.759   2.038  1.00  0.00    -0.274 NA
HETATM   15  H   UNL     1      45.798 -31.710   1.794  1.00  0.00     0.129 HD
ENDROOT
BRANCH   3  16
HETATM   16  C   UNL     1      44.441 -30.668  -2.778  1.00  0.00     0.037 A 
HETATM   17  C   UNL     1      44.453 -29.746  -3.831  1.00  0.00     0.030 A 
HETATM   18  C   UNL     1      44.317 -30.156  -5.166  1.00  0.00     0.014 A 
HETATM   19  C   UNL     1      44.171 -31.505  -5.490  1.00  0.00    -0.023 A 
HETATM   20  C   UNL     1      44.156 -32.436  -4.449  1.00  0.00     0.014 A 
HETATM   21  C   UNL     1      44.281 -32.022  -3.113  1.00  0.00     0.030 A 
BRANCH  19  22
HETATM   22  C   UNL     1      44.046 -31.941  -6.869  1.00  0.00     0.010 A 
HETATM   23  C   UNL     1      43.930 -33.237  -7.424  1.00  0.00     0.152 A 
HETATM   24  N   UNL     1      43.820 -33.223  -8.755  1.00  0.00    -0.187 NA
HETATM   25  N   UNL     1      43.865 -31.917  -9.059  1.00  0.00    -0.289 N 
HETATM   26  H   UNL     1      43.798 -31.647 -10.035  1.00  0.00     0.188 HD
HETATM   27  C   UNL     1      43.998 -31.109  -7.967  1.00  0.00     0.123 A 
ENDBRANCH  19  22
ENDBRANCH   3  16
BRANCH   1  28
HETATM   28  C   UNL     1      42.845 -30.124   1.243  1.00  0.00     0.172 C 
BRANCH  28  29
HETATM   29  O   UNL     1      41.686 -29.303   1.375  1.00  0.00    -0.400 OA
HETATM   30  H   UNL     1      41.929 -28.572   1.971  1.00  0.00     0.209 HD
ENDBRANCH  28  29
ENDBRANCH   1  28
TORSDOF 4
ENDMDL
MODEL 10
REMARK VINA RESULT:      -7.6      8.300     13.637
REMARK  4 active torsions:
REMARK  status: ('A' for Active; 'I' for Inactive)
REMARK    1  A    between atoms: O_1  and  C_2 
REMARK    2  A    between atoms: C_2  and  C_3 
REMARK    3  A    between atoms: N_5  and  C_17 
REMARK    4  A    between atoms: C_20  and  C_23 
ROOT
HETATM    1  C   UNL     1      40.670  -8.867  12.301  1.00  0.00     0.060 C 
HETATM    2  C   UNL     1      40.486  -8.946  13.818  1.00  0.00     0.141 C 
HETATM    3  N   UNL     1      41.181  -7.790  14.349  1.00  0.00    -0.316 N 
HETATM    4  C   UNL     1      42.053  -7.256  13.388  1.00  0.00     0.248 C 
HETATM    5  O   UNL     1      42.740  -6.244  13.443  1.00  0.00    -0.271 OA
HETATM    6  C   UNL     1      42.044  -8.195  12.172  1.00  0.00     0.108 A 
HETATM    7  C   UNL     1      43.216  -9.205  12.305  1.00  0.00     0.076 A 
HETATM    8  C   UNL     1      43.903  -9.041  10.995  1.00  0.00    -0.035 A 
HETATM    9  C   UNL     1      45.021  -9.707  10.521  1.00  0.00     0.009 A 
HETATM   10  C   UNL     1      45.528  -9.342   9.271  1.00  0.00     0.001 A 
HETATM   11  C   UNL     1      44.919  -8.322   8.525  1.00  0.00     0.002 A 
HETATM   12  C   UNL     1      43.793  -7.659   9.021  1.00  0.00     0.024 A 
HETATM   13  C   UNL     1      43.291  -8.038  10.253  1.00  0.00     0.015 A 
HETATM   14  N   UNL     1      42.188  -7.426  10.898  1.00  0.00    -0.274 NA
HETATM   15  H   UNL     1      42.467  -6.459  11.106  1.00  0.00     0.129 HD
ENDROOT
BRANCH   3  16
HETATM   16  C   UNL     1      41.004  -7.326  15.682  1.00  0.00     0.037 A 
HETATM   17  C   UNL     1      40.035  -6.371  16.011  1.00  0.00     0.030 A 
HETATM   18  C   UNL     1      39.871  -5.914  17.328  1.00  0.00     0.014 A 
HETATM   19  C   UNL     1      40.671  -6.406  18.361  1.00  0.00    -0.023 A 
HETATM   20  C   UNL     1      41.642  -7.359  18.046  1.00  0.00     0.014 A 
HETATM   21  C   UNL     1      41.811  -7.805  16.726  1.00  0.00     0.030 A 
BRANCH  19  22
HETATM   22  C   UNL     1      40.499  -5.953  19.729  1.00  0.00     0.010 A 
HETATM   23  C   UNL     1      40.247  -6.675  20.919  1.00  0.00     0.152 A 
HETATM   24  N   UNL     1      40.166  -5.888  21.995  1.00  0.00    -0.187 NA
HETATM   25  N   UNL     1      40.365  -4.657  21.499  1.00  0.00    -0.289 N 
HETATM   26  H   UNL     1      40.350  -3.871  22.141  1.00  0.00     0.188 HD
HETATM   27  C   UNL     1      40.570  -4.642  20.149  1.00  0.00     0.123 A 
ENDBRANCH  19  22
ENDBRANCH   3  16
BRANCH   1  28
HETATM   28  C   UNL     1      39.530  -8.078  11.649  1.00  0.00     0.172 C 
BRANCH  28  29
HETATM   29  O   UNL     1      38.360  -8.199  12.456  1.00  0.00    -0.400 OA
HETATM   30  H   UNL     1      37.771  -8.826  11.999  1.00  0.00     0.209 HD
ENDBRANCH  28  29
ENDBRANCH   1  28
TORSDOF 4
ENDMDL
