MODEL 1
REMARK VINA RESULT:     -10.3      0.000      0.000
REMARK  9 active torsions:
REMARK  status: ('A' for Active; 'I' for Inactive)
REMARK    1  A    between atoms: O_2  and  C_3 
REMARK    2  A    between atoms: C_6  and  C_7 
REMARK    3  A    between atoms: C_7  and  C_8 
REMARK    4  A    between atoms: C_8  and  N_9 
REMARK       I    between atoms: N_9  and  C_10 
REMARK    5  A    between atoms: C_10  and  C_11 
REMARK    6  A    between atoms: C_12  and  N_13 
REMARK    7  A    between atoms: N_14  and  C_15 
REMARK    8  A    between atoms: C_18  and  S_19 
REMARK    9  A    between atoms: S_19  and  N_20 
ROOT
HETATM    1  C   UNL     1      42.054 -14.904   4.842  1.00  0.00     0.103 C 
HETATM    2  C   UNL     1      41.012 -14.504   4.011  1.00  0.00     0.105 C 
HETATM    3  N   UNL     1      41.244 -15.097   2.762  1.00  0.00    -0.284 N 
HETATM    4  C   UNL     1      41.917 -16.283   3.039  1.00  0.00     0.166 A 
HETATM    5  C   UNL     1      42.508 -16.129   4.294  1.00  0.00     0.123 A 
HETATM    6  N   UNL     1      43.353 -17.065   4.793  1.00  0.00    -0.242 NA
HETATM    7  C   UNL     1      43.491 -18.165   4.041  1.00  0.00     0.086 A 
HETATM    8  C   UNL     1      42.847 -18.323   2.789  1.00  0.00     0.088 A 
HETATM    9  N   UNL     1      42.066 -17.372   2.248  1.00  0.00    -0.226 NA
HETATM   10  C   UNL     1      44.286 -19.199   4.524  1.00  0.00     0.034 A 
HETATM   11  C   UNL     1      44.452 -20.387   3.811  1.00  0.00     0.002 A 
HETATM   12  C   UNL     1      43.816 -20.544   2.588  1.00  0.00     0.002 A 
HETATM   13  C   UNL     1      43.023 -19.509   2.088  1.00  0.00     0.034 A 
ENDROOT
BRANCH   3  14
HETATM   14  C   UNL     1      40.973 -14.523   1.467  1.00  0.00     0.042 A 
HETATM   15  C   UNL     1      41.453 -13.247   1.124  1.00  0.00     0.031 A 
HETATM   16  C   UNL     1      41.048 -12.619  -0.061  1.00  0.00     0.027 A 
HETATM   17  C   UNL     1      40.168 -13.272  -0.924  1.00  0.00     0.074 A 
HETATM   18  C   UNL     1      39.699 -14.545  -0.620  1.00  0.00     0.027 A 
HETATM   19  C   UNL     1      40.086 -15.155   0.575  1.00  0.00     0.031 A 
BRANCH  17  20
HETATM   20  S   UNL     1      39.591 -12.458  -2.389  1.00  0.00     0.243 S 
HETATM   21  O   UNL     1      40.516 -12.755  -3.462  1.00  0.00    -0.206 OA
HETATM   22  O   UNL     1      38.181 -12.755  -2.515  1.00  0.00    -0.206 OA
BRANCH  20  23
HETATM   23  N   UNL     1      39.752 -10.806  -2.019  1.00  0.00    -0.202 NA
HETATM   24  C   UNL     1      40.956 -10.096  -2.556  1.00  0.00     0.134 C 
HETATM   25  C   UNL     1      40.759  -9.628  -4.002  1.00  0.00     0.183 C 
HETATM   26  O   UNL     1      39.575  -8.832  -4.141  1.00  0.00    -0.389 OA
HETATM   27  C   UNL     1      38.417  -9.581  -3.748  1.00  0.00     0.183 C 
HETATM   28  C   UNL     1      38.517  -9.996  -2.276  1.00  0.00     0.134 C 
ENDBRANCH  20  23
ENDBRANCH  17  20
ENDBRANCH   3  14
BRANCH   2  29
HETATM   29  N   UNL     1      39.980 -13.654   4.282  1.00  0.00    -0.287 NA
HETATM   30  H   UNL     1      39.810 -12.897   3.615  1.00  0.00     0.125 HD
HETATM   31  H   UNL     1      39.907 -13.288   5.234  1.00  0.00     0.125 HD
ENDBRANCH   2  29
BRANCH   1  32
HETATM   32  C   UNL     1      42.513 -14.223   6.045  1.00  0.00     0.257 C 
HETATM   33  N   UNL     1      43.372 -13.171   5.777  1.00  0.00    -0.356 N 
HETATM   34  H   UNL     1      43.646 -13.056   4.806  1.00  0.00     0.162 HD
HETATM   35  O   UNL     1      42.259 -14.597   7.183  1.00  0.00    -0.267 OA
BRANCH  33  36
HETATM   36  C   UNL     1      44.308 -12.680   6.768  1.00  0.00     0.127 C 
BRANCH  36  37
HETATM   37  C   UNL     1      44.467 -11.154   6.726  1.00  0.00     0.058 C 
BRANCH  37  38
HETATM   38  C   UNL     1      44.342 -10.492   8.081  1.00  0.00    -0.057 A 
HETATM   39  C   UNL     1      45.460 -10.329   8.909  1.00  0.00     0.010 A 
HETATM   40  C   UNL     1      45.341  -9.699  10.156  1.00  0.00     0.037 A 
HETATM   41  C   UNL     1      44.101  -9.226  10.588  1.00  0.00     0.068 A 
HETATM   42  C   UNL     1      42.980  -9.415   9.780  1.00  0.00     0.037 A 
HETATM   43  C   UNL     1      43.098 -10.035   8.533  1.00  0.00     0.010 A 
BRANCH  41  44
HETATM   44  O   UNL     1      43.859  -8.586  11.772  1.00  0.00    -0.356 OA
HETATM   45  C   UNL     1      42.784  -9.091  12.554  1.00  0.00     0.210 C 
ENDBRANCH  41  44
ENDBRANCH  37  38
ENDBRANCH  36  37
ENDBRANCH  33  36
ENDBRANCH   1  32
TORSDOF 9
ENDMDL
MODEL 2
REMARK VINA RESULT:      -9.7      6.875     13.995
REMARK  9 active torsions:
REMARK  status: ('A' for Active; 'I' for Inactive)
REMARK    1  A    between atoms: O_2  and  C_3 
REMARK    2  A    between atoms: C_6  and  C_7 
REMARK    3  A    between atoms: C_7  and  C_8 
REMARK    4  A    between atoms: C_8  and  N_9 
REMARK       I    between atoms: N_9  and  C_10 
REMARK    5  A    between atoms: C_10  and  C_11 
REMARK    6  A    between atoms: C_12  and  N_13 
REMARK    7  A    between atoms: N_14  and  C_15 
REMARK    8  A    between atoms: C_18  and  S_19 
REMARK    9  A    between atoms: S_19  and  N_20 
ROOT
HETATM    1  C   UNL     1      43.590  -9.998  10.167  1.00  0.00     0.103 C 
HETATM    2  C   UNL     1      43.169 -10.338  11.449  1.00  0.00     0.105 C 
HETATM    3  N   UNL     1      42.241  -9.361  11.839  1.00  0.00    -0.284 N 
HETATM    4  C   UNL     1      41.642  -8.933  10.659  1.00  0.00     0.166 A 
HETATM    5  C   UNL     1      42.525  -9.238   9.623  1.00  0.00     0.123 A 
HETATM    6  N   UNL     1      42.292  -8.822   8.354  1.00  0.00    -0.242 NA
HETATM    7  C   UNL     1      41.122  -8.195   8.167  1.00  0.00     0.086 A 
HETATM    8  C   UNL     1      40.216  -7.933   9.225  1.00  0.00     0.088 A 
HETATM    9  N   UNL     1      40.470  -8.273  10.501  1.00  0.00    -0.226 NA
HETATM   10  C   UNL     1      40.782  -7.803   6.878  1.00  0.00     0.034 A 
HETATM   11  C   UNL     1      39.568  -7.172   6.602  1.00  0.00     0.002 A 
HETATM   12  C   UNL     1      38.678  -6.922   7.636  1.00  0.00     0.002 A 
HETATM   13  C   UNL     1      39.013  -7.301   8.938  1.00  0.00     0.034 A 
ENDROOT
BRANCH   3  14
HETATM   14  C   UNL     1      42.062  -8.818  13.164  1.00  0.00     0.042 A 
HETATM   15  C   UNL     1      40.965  -9.192  13.958  1.00  0.00     0.031 A 
HETATM   16  C   UNL     1      40.697  -8.539  15.169  1.00  0.00     0.027 A 
HETATM   17  C   UNL     1      41.538  -7.514  15.603  1.00  0.00     0.074 A 
HETATM   18  C   UNL     1      42.644  -7.144  14.848  1.00  0.00     0.027 A 
HETATM   19  C   UNL     1      42.892  -7.781  13.630  1.00  0.00     0.031 A 
BRANCH  17  20
HETATM   20  S   UNL     1      41.168  -6.632  17.096  1.00  0.00     0.243 S 
HETATM   21  O   UNL     1      41.983  -5.436  17.125  1.00  0.00    -0.206 OA
HETATM   22  O   UNL     1      39.727  -6.558  17.200  1.00  0.00    -0.206 OA
BRANCH  20  23
HETATM   23  N   UNL     1      41.734  -7.666  18.323  1.00  0.00    -0.202 NA
HETATM   24  C   UNL     1      42.854  -7.165  19.180  1.00  0.00     0.134 C 
HETATM   25  C   UNL     1      42.358  -6.276  20.326  1.00  0.00     0.183 C 
HETATM   26  O   UNL     1      41.355  -6.936  21.107  1.00  0.00    -0.389 OA
HETATM   27  C   UNL     1      40.230  -7.287  20.289  1.00  0.00     0.183 C 
HETATM   28  C   UNL     1      40.652  -8.254  19.178  1.00  0.00     0.134 C 
ENDBRANCH  20  23
ENDBRANCH  17  20
ENDBRANCH   3  14
BRANCH   2  29
HETATM   29  N   UNL     1      43.586 -11.366  12.242  1.00  0.00    -0.287 NA
HETATM   30  H   UNL     1      44.578 -11.614  12.204  1.00  0.00     0.125 HD
HETATM   31  H   UNL     1      43.025 -12.221  12.241  1.00  0.00     0.125 HD
ENDBRANCH   2  29
BRANCH   1  32
HETATM   32  C   UNL     1      44.833 -10.405   9.528  1.00  0.00     0.257 C 
HETATM   33  N   UNL     1      44.802 -10.276   8.150  1.00  0.00    -0.356 N 
HETATM   34  H   UNL     1      43.909 -10.005   7.748  1.00  0.00     0.162 HD
HETATM   35  O   UNL     1      45.777 -10.910  10.124  1.00  0.00    -0.267 OA
BRANCH  33  36
HETATM   36  C   UNL     1      45.683 -11.042   7.292  1.00  0.00     0.127 C 
BRANCH  36  37
HETATM   37  C   UNL     1      45.042 -11.382   5.939  1.00  0.00     0.058 C 
BRANCH  37  38
HETATM   38  C   UNL     1      43.792 -12.227   6.054  1.00  0.00    -0.057 A 
HETATM   39  C   UNL     1      43.850 -13.535   6.551  1.00  0.00     0.010 A 
HETATM   40  C   UNL     1      42.686 -14.307   6.672  1.00  0.00     0.037 A 
HETATM   41  C   UNL     1      41.451 -13.778   6.296  1.00  0.00     0.068 A 
HETATM   42  C   UNL     1      41.393 -12.488   5.769  1.00  0.00     0.037 A 
HETATM   43  C   UNL     1      42.551 -11.714   5.656  1.00  0.00     0.010 A 
BRANCH  41  44
HETATM   44  O   UNL     1      40.248 -14.423   6.378  1.00  0.00    -0.356 OA
HETATM   45  C   UNL     1      40.299 -15.842   6.482  1.00  0.00     0.210 C 
ENDBRANCH  41  44
ENDBRANCH  37  38
ENDBRANCH  36  37
ENDBRANCH  33  36
ENDBRANCH   1  32
TORSDOF 9
ENDMDL
MODEL 3
REMARK VINA RESULT:      -9.7      5.315     11.835
REMARK  9 active torsions:
REMARK  status: ('A' for Active; 'I' for Inactive)
REMARK    1  A    between atoms: O_2  and  C_3 
REMARK    2  A    between atoms: C_6  and  C_7 
REMARK    3  A    between atoms: C_7  and  C_8 
REMARK    4  A    between atoms: C_8  and  N_9 
REMARK       I    between atoms: N_9  and  C_10 
REMARK    5  A    between atoms: C_10  and  C_11 
REMARK    6  A    between atoms: C_12  and  N_13 
REMARK    7  A    between atoms: N_14  and  C_15 
REMARK    8  A    between atoms: C_18  and  S_19 
REMARK    9  A    between atoms: S_19  and  N_20 
ROOT
HETATM    1  C   UNL     1      40.584 -11.065   6.493  1.00  0.00     0.103 C 
HETATM    2  C   UNL     1      39.770  -9.973   6.776  1.00  0.00     0.105 C 
HETATM    3  N   UNL     1      40.370  -9.292   7.845  1.00  0.00    -0.284 N 
HETATM    4  C   UNL     1      41.735  -9.527   7.709  1.00  0.00     0.166 A 
HETATM    5  C   UNL     1      41.870 -10.689   6.949  1.00  0.00     0.123 A 
HETATM    6  N   UNL     1      43.083 -11.264   6.754  1.00  0.00    -0.242 NA
HETATM    7  C   UNL     1      44.122 -10.583   7.256  1.00  0.00     0.086 A 
HETATM    8  C   UNL     1      43.968  -9.379   7.987  1.00  0.00     0.088 A 
HETATM    9  N   UNL     1      42.766  -8.839   8.253  1.00  0.00    -0.226 NA
HETATM   10  C   UNL     1      45.403 -11.074   7.031  1.00  0.00     0.034 A 
HETATM   11  C   UNL     1      46.535 -10.404   7.498  1.00  0.00     0.002 A 
HETATM   12  C   UNL     1      46.385  -9.222   8.208  1.00  0.00     0.002 A 
HETATM   13  C   UNL     1      45.103  -8.724   8.449  1.00  0.00     0.034 A 
ENDROOT
BRANCH   3  14
HETATM   14  C   UNL     1      39.697  -8.621   8.931  1.00  0.00     0.042 A 
HETATM   15  C   UNL     1      39.157  -7.334   8.765  1.00  0.00     0.031 A 
HETATM   16  C   UNL     1      38.659  -6.615   9.860  1.00  0.00     0.027 A 
HETATM   17  C   UNL     1      38.684  -7.187  11.132  1.00  0.00     0.074 A 
HETATM   18  C   UNL     1      39.190  -8.468  11.318  1.00  0.00     0.027 A 
HETATM   19  C   UNL     1      39.708  -9.170  10.227  1.00  0.00     0.031 A 
BRANCH  17  20
HETATM   20  S   UNL     1      38.125  -6.259  12.535  1.00  0.00     0.243 S 
HETATM   21  O   UNL     1      37.523  -5.034  12.053  1.00  0.00    -0.206 OA
HETATM   22  O   UNL     1      37.390  -7.171  13.384  1.00  0.00    -0.206 OA
BRANCH  20  23
HETATM   23  N   UNL     1      39.566  -5.837  13.336  1.00  0.00    -0.202 NA
HETATM   24  C   UNL     1      39.902  -4.381  13.425  1.00  0.00     0.134 C 
HETATM   25  C   UNL     1      39.192  -3.690  14.595  1.00  0.00     0.183 C 
HETATM   26  O   UNL     1      39.444  -4.364  15.835  1.00  0.00    -0.389 OA
HETATM   27  C   UNL     1      38.990  -5.723  15.770  1.00  0.00     0.183 C 
HETATM   28  C   UNL     1      39.737  -6.490  14.674  1.00  0.00     0.134 C 
ENDBRANCH  20  23
ENDBRANCH  17  20
ENDBRANCH   3  14
BRANCH   2  29
HETATM   29  N   UNL     1      38.581  -9.621   6.207  1.00  0.00    -0.287 NA
HETATM   30  H   UNL     1      37.844  -9.284   6.833  1.00  0.00     0.125 HD
HETATM   31  H   UNL     1      38.175 -10.264   5.525  1.00  0.00     0.125 HD
ENDBRANCH   2  29
BRANCH   1  32
HETATM   32  C   UNL     1      40.184 -12.290   5.813  1.00  0.00     0.257 C 
HETATM   33  N   UNL     1      40.887 -13.402   6.242  1.00  0.00    -0.356 N 
HETATM   34  H   UNL     1      41.643 -13.225   6.897  1.00  0.00     0.162 HD
HETATM   35  O   UNL     1      39.386 -12.328   4.884  1.00  0.00    -0.267 OA
BRANCH  33  36
HETATM   36  C   UNL     1      41.021 -14.584   5.415  1.00  0.00     0.127 C 
BRANCH  36  37
HETATM   37  C   UNL     1      42.188 -14.483   4.422  1.00  0.00     0.058 C 
BRANCH  37  38
HETATM   38  C   UNL     1      42.704 -15.826   3.952  1.00  0.00    -0.057 A 
HETATM   39  C   UNL     1      42.530 -16.239   2.625  1.00  0.00     0.010 A 
HETATM   40  C   UNL     1      43.026 -17.477   2.191  1.00  0.00     0.037 A 
HETATM   41  C   UNL     1      43.701 -18.314   3.080  1.00  0.00     0.068 A 
HETATM   42  C   UNL     1      43.846 -17.920   4.411  1.00  0.00     0.037 A 
HETATM   43  C   UNL     1      43.360 -16.683   4.844  1.00  0.00     0.010 A 
BRANCH  41  44
HETATM   44  O   UNL     1      44.240 -19.533   2.777  1.00  0.00    -0.356 OA
HETATM   45  C   UNL     1      43.479 -20.359   1.902  1.00  0.00     0.210 C 
ENDBRANCH  41  44
ENDBRANCH  37  38
ENDBRANCH  36  37
ENDBRANCH  33  36
ENDBRANCH   1  32
TORSDOF 9
ENDMDL
MODEL 4
REMARK VINA RESULT:      -9.5      3.586      8.411
REMARK  9 active torsions:
REMARK  status: ('A' for Active; 'I' for Inactive)
REMARK    1  A    between atoms: O_2  and  C_3 
REMARK    2  A    between atoms: C_6  and  C_7 
REMARK    3  A    between atoms: C_7  and  C_8 
REMARK    4  A    between atoms: C_8  and  N_9 
REMARK       I    between atoms: N_9  and  C_10 
REMARK    5  A    between atoms: C_10  and  C_11 
REMARK    6  A    between atoms: C_12  and  N_13 
REMARK    7  A    between atoms: N_14  and  C_15 
REMARK    8  A    between atoms: C_18  and  S_19 
REMARK    9  A    between atoms: S_19  and  N_20 
ROOT
HETATM    1  C   UNL     1      41.298 -13.918   1.431  1.00  0.00     0.103 C 
HETATM    2  C   UNL     1      41.479 -12.741   2.151  1.00  0.00     0.105 C 
HETATM    3  N   UNL     1      41.612 -13.111   3.498  1.00  0.00    -0.284 N 
HETATM    4  C   UNL     1      42.183 -14.380   3.474  1.00  0.00     0.166 A 
HETATM    5  C   UNL     1      41.902 -14.926   2.221  1.00  0.00     0.123 A 
HETATM    6  N   UNL     1      42.207 -16.215   1.931  1.00  0.00    -0.242 NA
HETATM    7  C   UNL     1      42.872 -16.872   2.891  1.00  0.00     0.086 A 
HETATM    8  C   UNL     1      43.188 -16.286   4.142  1.00  0.00     0.088 A 
HETATM    9  N   UNL     1      42.825 -15.034   4.471  1.00  0.00    -0.226 NA
HETATM   10  C   UNL     1      43.282 -18.176   2.637  1.00  0.00     0.034 A 
HETATM   11  C   UNL     1      44.004 -18.912   3.577  1.00  0.00     0.002 A 
HETATM   12  C   UNL     1      44.319 -18.335   4.800  1.00  0.00     0.002 A 
HETATM   13  C   UNL     1      43.904 -17.030   5.071  1.00  0.00     0.034 A 
ENDROOT
BRANCH   3  14
HETATM   14  C   UNL     1      41.122 -12.389   4.646  1.00  0.00     0.042 A 
HETATM   15  C   UNL     1      39.762 -12.424   4.999  1.00  0.00     0.031 A 
HETATM   16  C   UNL     1      39.258 -11.589   6.006  1.00  0.00     0.027 A 
HETATM   17  C   UNL     1      40.117 -10.723   6.681  1.00  0.00     0.074 A 
HETATM   18  C   UNL     1      41.471 -10.689   6.368  1.00  0.00     0.027 A 
HETATM   19  C   UNL     1      41.963 -11.504   5.346  1.00  0.00     0.031 A 
BRANCH  17  20
HETATM   20  S   UNL     1      39.477  -9.611   7.905  1.00  0.00     0.243 S 
HETATM   21  O   UNL     1      38.816  -8.521   7.220  1.00  0.00    -0.206 OA
HETATM   22  O   UNL     1      38.778 -10.413   8.884  1.00  0.00    -0.206 OA
BRANCH  20  23
HETATM   23  N   UNL     1      40.874  -8.978   8.640  1.00  0.00    -0.202 NA
HETATM   24  C   UNL     1      41.193  -7.538   8.385  1.00  0.00     0.134 C 
HETATM   25  C   UNL     1      40.423  -6.597   9.318  1.00  0.00     0.183 C 
HETATM   26  O   UNL     1      40.622  -6.942  10.695  1.00  0.00    -0.389 OA
HETATM   27  C   UNL     1      40.183  -8.285  10.945  1.00  0.00     0.183 C 
HETATM   28  C   UNL     1      40.988  -9.282  10.104  1.00  0.00     0.134 C 
ENDBRANCH  20  23
ENDBRANCH  17  20
ENDBRANCH   3  14
BRANCH   2  29
HETATM   29  N   UNL     1      41.473 -11.453   1.703  1.00  0.00    -0.287 NA
HETATM   30  H   UNL     1      41.196 -10.727   2.368  1.00  0.00     0.125 HD
HETATM   31  H   UNL     1      41.029 -11.270   0.800  1.00  0.00     0.125 HD
ENDBRANCH   2  29
BRANCH   1  32
HETATM   32  C   UNL     1      40.675 -14.043   0.120  1.00  0.00     0.257 C 
HETATM   33  N   UNL     1      40.923 -12.959  -0.703  1.00  0.00    -0.356 N 
HETATM   34  H   UNL     1      41.422 -12.182  -0.279  1.00  0.00     0.162 HD
HETATM   35  O   UNL     1      39.921 -14.956  -0.196  1.00  0.00    -0.267 OA
BRANCH  33  36
HETATM   36  C   UNL     1      40.053 -12.629  -1.813  1.00  0.00     0.127 C 
BRANCH  36  37
HETATM   37  C   UNL     1      38.620 -12.307  -1.365  1.00  0.00     0.058 C 
BRANCH  37  38
HETATM   38  C   UNL     1      38.547 -11.280  -0.255  1.00  0.00    -0.057 A 
HETATM   39  C   UNL     1      37.993 -11.604   0.990  1.00  0.00     0.010 A 
HETATM   40  C   UNL     1      37.945 -10.654   2.020  1.00  0.00     0.037 A 
HETATM   41  C   UNL     1      38.451  -9.370   1.815  1.00  0.00     0.068 A 
HETATM   42  C   UNL     1      38.973  -9.034   0.565  1.00  0.00     0.037 A 
HETATM   43  C   UNL     1      39.029  -9.982  -0.460  1.00  0.00     0.010 A 
BRANCH  41  44
HETATM   44  O   UNL     1      38.473  -8.363   2.740  1.00  0.00    -0.356 OA
HETATM   45  C   UNL     1      39.497  -8.434   3.725  1.00  0.00     0.210 C 
ENDBRANCH  41  44
ENDBRANCH  37  38
ENDBRANCH  36  37
ENDBRANCH  33  36
ENDBRANCH   1  32
TORSDOF 9
ENDMDL
MODEL 5
REMARK VINA RESULT:      -9.4      2.754      9.518
REMARK  9 active torsions:
REMARK  status: ('A' for Active; 'I' for Inactive)
REMARK    1  A    between atoms: O_2  and  C_3 
REMARK    2  A    between atoms: C_6  and  C_7 
REMARK    3  A    between atoms: C_7  and  C_8 
REMARK    4  A    between atoms: C_8  and  N_9 
REMARK       I    between atoms: N_9  and  C_10 
REMARK    5  A    between atoms: C_10  and  C_11 
REMARK    6  A    between atoms: C_12  and  N_13 
REMARK    7  A    between atoms: N_14  and  C_15 
REMARK    8  A    between atoms: C_18  and  S_19 
REMARK    9  A    between atoms: S_19  and  N_20 
ROOT
HETATM    1  C   UNL     1      41.292 -13.815   1.997  1.00  0.00     0.103 C 
HETATM    2  C   UNL     1      42.042 -12.800   2.584  1.00  0.00     0.105 C 
HETATM    3  N   UNL     1      42.617 -13.344   3.741  1.00  0.00    -0.284 N 
HETATM    4  C   UNL     1      42.789 -14.697   3.464  1.00  0.00     0.166 A 
HETATM    5  C   UNL     1      41.893 -15.017   2.443  1.00  0.00     0.123 A 
HETATM    6  N   UNL     1      41.718 -16.299   2.038  1.00  0.00    -0.242 NA
HETATM    7  C   UNL     1      42.529 -17.194   2.617  1.00  0.00     0.086 A 
HETATM    8  C   UNL     1      43.466 -16.843   3.620  1.00  0.00     0.088 A 
HETATM    9  N   UNL     1      43.597 -15.588   4.085  1.00  0.00    -0.226 NA
HETATM   10  C   UNL     1      42.457 -18.518   2.199  1.00  0.00     0.034 A 
HETATM   11  C   UNL     1      43.291 -19.501   2.734  1.00  0.00     0.002 A 
HETATM   12  C   UNL     1      44.213 -19.155   3.712  1.00  0.00     0.002 A 
HETATM   13  C   UNL     1      44.288 -17.831   4.148  1.00  0.00     0.034 A 
ENDROOT
BRANCH   3  14
HETATM   14  C   UNL     1      42.840 -12.669   4.997  1.00  0.00     0.042 A 
HETATM   15  C   UNL     1      41.921 -11.726   5.486  1.00  0.00     0.031 A 
HETATM   16  C   UNL     1      42.218 -10.948   6.613  1.00  0.00     0.027 A 
HETATM   17  C   UNL     1      43.436 -11.120   7.271  1.00  0.00     0.074 A 
HETATM   18  C   UNL     1      44.351 -12.065   6.822  1.00  0.00     0.027 A 
HETATM   19  C   UNL     1      44.060 -12.819   5.683  1.00  0.00     0.031 A 
BRANCH  17  20
HETATM   20  S   UNL     1      43.854 -10.090   8.652  1.00  0.00     0.243 S 
HETATM   21  O   UNL     1      43.996 -10.938   9.817  1.00  0.00    -0.206 OA
HETATM   22  O   UNL     1      44.927  -9.220   8.226  1.00  0.00    -0.206 OA
BRANCH  20  23
HETATM   23  N   UNL     1      42.461  -9.140   8.879  1.00  0.00    -0.202 NA
HETATM   24  C   UNL     1      41.805  -9.193  10.224  1.00  0.00     0.134 C 
HETATM   25  C   UNL     1      42.467  -8.246  11.232  1.00  0.00     0.183 C 
HETATM   26  O   UNL     1      42.530  -6.905  10.731  1.00  0.00    -0.389 OA
HETATM   27  C   UNL     1      43.281  -6.860   9.509  1.00  0.00     0.183 C 
HETATM   28  C   UNL     1      42.609  -7.717   8.431  1.00  0.00     0.134 C 
ENDBRANCH  20  23
ENDBRANCH  17  20
ENDBRANCH   3  14
BRANCH   2  29
HETATM   29  N   UNL     1      42.176 -11.500   2.194  1.00  0.00    -0.287 NA
HETATM   30  H   UNL     1      42.476 -11.328   1.231  1.00  0.00     0.125 HD
HETATM   31  H   UNL     1      42.680 -10.868   2.821  1.00  0.00     0.125 HD
ENDBRANCH   2  29
BRANCH   1  32
HETATM   32  C   UNL     1      40.177 -13.645   1.075  1.00  0.00     0.257 C 
HETATM   33  N   UNL     1      40.092 -14.658   0.135  1.00  0.00    -0.356 N 
HETATM   34  H   UNL     1      40.849 -15.335   0.141  1.00  0.00     0.162 HD
HETATM   35  O   UNL     1      39.449 -12.661   1.056  1.00  0.00    -0.267 OA
BRANCH  33  36
HETATM   36  C   UNL     1      39.413 -14.468  -1.130  1.00  0.00     0.127 C 
BRANCH  36  37
HETATM   37  C   UNL     1      40.345 -13.931  -2.226  1.00  0.00     0.058 C 
BRANCH  37  38
HETATM   38  C   UNL     1      40.265 -12.430  -2.409  1.00  0.00    -0.057 A 
HETATM   39  C   UNL     1      39.151 -11.837  -3.016  1.00  0.00     0.010 A 
HETATM   40  C   UNL     1      39.075 -10.445  -3.165  1.00  0.00     0.037 A 
HETATM   41  C   UNL     1      40.113  -9.632  -2.710  1.00  0.00     0.068 A 
HETATM   42  C   UNL     1      41.239 -10.222  -2.136  1.00  0.00     0.037 A 
HETATM   43  C   UNL     1      41.314 -11.608  -1.977  1.00  0.00     0.010 A 
BRANCH  41  44
HETATM   44  O   UNL     1      40.152  -8.267  -2.787  1.00  0.00    -0.356 OA
HETATM   45  C   UNL     1      41.327  -7.700  -3.353  1.00  0.00     0.210 C 
ENDBRANCH  41  44
ENDBRANCH  37  38
ENDBRANCH  36  37
ENDBRANCH  33  36
ENDBRANCH   1  32
TORSDOF 9
ENDMDL
MODEL 6
REMARK VINA RESULT:      -9.4      3.282      9.298
REMARK  9 active torsions:
REMARK  status: ('A' for Active; 'I' for Inactive)
REMARK    1  A    between atoms: O_2  and  C_3 
REMARK    2  A    between atoms: C_6  and  C_7 
REMARK    3  A    between atoms: C_7  and  C_8 
REMARK    4  A    between atoms: C_8  and  N_9 
REMARK       I    between atoms: N_9  and  C_10 
REMARK    5  A    between atoms: C_10  and  C_11 
REMARK    6  A    between atoms: C_12  and  N_13 
REMARK    7  A    between atoms: N_14  and  C_15 
REMARK    8  A    between atoms: C_18  and  S_19 
REMARK    9  A    between atoms: S_19  and  N_20 
ROOT
HETATM    1  C   UNL     1      41.366 -13.674   1.431  1.00  0.00     0.103 C 
HETATM    2  C   UNL     1      41.546 -12.520   2.186  1.00  0.00     0.105 C 
HETATM    3  N   UNL     1      41.672 -12.930   3.522  1.00  0.00    -0.284 N 
HETATM    4  C   UNL     1      42.241 -14.198   3.463  1.00  0.00     0.166 A 
HETATM    5  C   UNL     1      41.965 -14.706   2.193  1.00  0.00     0.123 A 
HETATM    6  N   UNL     1      42.270 -15.987   1.866  1.00  0.00    -0.242 NA
HETATM    7  C   UNL     1      42.929 -16.673   2.810  1.00  0.00     0.086 A 
HETATM    8  C   UNL     1      43.240 -16.124   4.079  1.00  0.00     0.088 A 
HETATM    9  N   UNL     1      42.877 -14.882   4.443  1.00  0.00    -0.226 NA
HETATM   10  C   UNL     1      43.338 -17.969   2.519  1.00  0.00     0.034 A 
HETATM   11  C   UNL     1      44.055 -18.734   3.441  1.00  0.00     0.002 A 
HETATM   12  C   UNL     1      44.365 -18.194   4.681  1.00  0.00     0.002 A 
HETATM   13  C   UNL     1      43.951 -16.897   4.989  1.00  0.00     0.034 A 
ENDROOT
BRANCH   3  14
HETATM   14  C   UNL     1      41.177 -12.241   4.689  1.00  0.00     0.042 A 
HETATM   15  C   UNL     1      39.842 -12.381   5.102  1.00  0.00     0.031 A 
HETATM   16  C   UNL     1      39.318 -11.583   6.128  1.00  0.00     0.027 A 
HETATM   17  C   UNL     1      40.135 -10.646   6.762  1.00  0.00     0.074 A 
HETATM   18  C   UNL     1      41.466 -10.507   6.388  1.00  0.00     0.027 A 
HETATM   19  C   UNL     1      41.976 -11.287   5.348  1.00  0.00     0.031 A 
BRANCH  17  20
HETATM   20  S   UNL     1      39.463  -9.581   8.010  1.00  0.00     0.243 S 
HETATM   21  O   UNL     1      38.808  -8.472   7.349  1.00  0.00    -0.206 OA
HETATM   22  O   UNL     1      38.751 -10.420   8.948  1.00  0.00    -0.206 OA
BRANCH  20  23
HETATM   23  N   UNL     1      40.842  -8.964   8.793  1.00  0.00    -0.202 NA
HETATM   24  C   UNL     1      41.154  -7.514   8.593  1.00  0.00     0.134 C 
HETATM   25  C   UNL     1      40.360  -6.610   9.544  1.00  0.00     0.183 C 
HETATM   26  O   UNL     1      40.536  -7.002  10.911  1.00  0.00    -0.389 OA
HETATM   27  C   UNL     1      40.102  -8.355  11.106  1.00  0.00     0.183 C 
HETATM   28  C   UNL     1      40.930  -9.317  10.247  1.00  0.00     0.134 C 
ENDBRANCH  20  23
ENDBRANCH  17  20
ENDBRANCH   3  14
BRANCH   2  29
HETATM   29  N   UNL     1      41.543 -11.219   1.776  1.00  0.00    -0.287 NA
HETATM   30  H   UNL     1      42.289 -10.928   1.138  1.00  0.00     0.125 HD
HETATM   31  H   UNL     1      41.410 -10.499   2.489  1.00  0.00     0.125 HD
ENDBRANCH   2  29
BRANCH   1  32
HETATM   32  C   UNL     1      40.749 -13.759   0.114  1.00  0.00     0.257 C 
HETATM   33  N   UNL     1      41.279 -12.857  -0.792  1.00  0.00    -0.356 N 
HETATM   34  H   UNL     1      41.955 -12.197  -0.419  1.00  0.00     0.162 HD
HETATM   35  O   UNL     1      39.790 -14.475  -0.148  1.00  0.00    -0.267 OA
BRANCH  33  36
HETATM   36  C   UNL     1      40.537 -12.423  -1.958  1.00  0.00     0.127 C 
BRANCH  36  37
HETATM   37  C   UNL     1      39.884 -11.046  -1.764  1.00  0.00     0.058 C 
BRANCH  37  38
HETATM   38  C   UNL     1      40.744  -9.894  -2.238  1.00  0.00    -0.057 A 
HETATM   39  C   UNL     1      41.699  -9.314  -1.394  1.00  0.00     0.010 A 
HETATM   40  C   UNL     1      42.505  -8.259  -1.845  1.00  0.00     0.037 A 
HETATM   41  C   UNL     1      42.363  -7.774  -3.145  1.00  0.00     0.068 A 
HETATM   42  C   UNL     1      41.390  -8.326  -3.978  1.00  0.00     0.037 A 
HETATM   43  C   UNL     1      40.591  -9.384  -3.533  1.00  0.00     0.010 A 
BRANCH  41  44
HETATM   44  O   UNL     1      43.094  -6.762  -3.704  1.00  0.00    -0.356 OA
HETATM   45  C   UNL     1      42.356  -5.663  -4.225  1.00  0.00     0.210 C 
ENDBRANCH  41  44
ENDBRANCH  37  38
ENDBRANCH  36  37
ENDBRANCH  33  36
ENDBRANCH   1  32
TORSDOF 9
ENDMDL
MODEL 7
REMARK VINA RESULT:      -9.3      3.852     10.214
REMARK  9 active torsions:
REMARK  status: ('A' for Active; 'I' for Inactive)
REMARK    1  A    between atoms: O_2  and  C_3 
REMARK    2  A    between atoms: C_6  and  C_7 
REMARK    3  A    between atoms: C_7  and  C_8 
REMARK    4  A    between atoms: C_8  and  N_9 
REMARK       I    between atoms: N_9  and  C_10 
REMARK    5  A    between atoms: C_10  and  C_11 
REMARK    6  A    between atoms: C_12  and  N_13 
REMARK    7  A    between atoms: N_14  and  C_15 
REMARK    8  A    between atoms: C_18  and  S_19 
REMARK    9  A    between atoms: S_19  and  N_20 
ROOT
HETATM    1  C   UNL     1      41.205 -11.946   4.285  1.00  0.00     0.103 C 
HETATM    2  C   UNL     1      41.960 -10.863   4.724  1.00  0.00     0.105 C 
HETATM    3  N   UNL     1      42.358 -11.158   6.036  1.00  0.00    -0.284 N 
HETATM    4  C   UNL     1      42.456 -12.545   6.087  1.00  0.00     0.166 A 
HETATM    5  C   UNL     1      41.657 -13.044   5.057  1.00  0.00     0.123 A 
HETATM    6  N   UNL     1      41.430 -14.374   4.925  1.00  0.00    -0.242 NA
HETATM    7  C   UNL     1      42.101 -15.154   5.784  1.00  0.00     0.086 A 
HETATM    8  C   UNL     1      42.943 -14.630   6.796  1.00  0.00     0.088 A 
HETATM    9  N   UNL     1      43.117 -13.310   6.986  1.00  0.00    -0.226 NA
HETATM   10  C   UNL     1      41.974 -16.532   5.662  1.00  0.00     0.034 A 
HETATM   11  C   UNL     1      42.664 -17.408   6.501  1.00  0.00     0.002 A 
HETATM   12  C   UNL     1      43.495 -16.895   7.488  1.00  0.00     0.002 A 
HETATM   13  C   UNL     1      43.623 -15.512   7.627  1.00  0.00     0.034 A 
ENDROOT
BRANCH   3  14
HETATM   14  C   UNL     1      42.490 -10.227   7.131  1.00  0.00     0.042 A 
HETATM   15  C   UNL     1      43.695 -10.112   7.844  1.00  0.00     0.031 A 
HETATM   16  C   UNL     1      43.771  -9.338   9.010  1.00  0.00     0.027 A 
HETATM   17  C   UNL     1      42.641  -8.657   9.463  1.00  0.00     0.074 A 
HETATM   18  C   UNL     1      41.444  -8.734   8.761  1.00  0.00     0.027 A 
HETATM   19  C   UNL     1      41.367  -9.528   7.614  1.00  0.00     0.031 A 
BRANCH  17  20
HETATM   20  S   UNL     1      42.706  -7.735  10.976  1.00  0.00     0.243 S 
HETATM   21  O   UNL     1      43.668  -8.372  11.850  1.00  0.00    -0.206 OA
HETATM   22  O   UNL     1      42.829  -6.339  10.619  1.00  0.00    -0.206 OA
BRANCH  20  23
HETATM   23  N   UNL     1      41.164  -7.972  11.656  1.00  0.00    -0.202 NA
HETATM   24  C   UNL     1      40.860  -9.328  12.213  1.00  0.00     0.134 C 
HETATM   25  C   UNL     1      41.383  -9.501  13.643  1.00  0.00     0.183 C 
HETATM   26  O   UNL     1      40.908  -8.461  14.506  1.00  0.00    -0.389 OA
HETATM   27  C   UNL     1      41.328  -7.177  14.024  1.00  0.00     0.183 C 
HETATM   28  C   UNL     1      40.753  -6.909  12.629  1.00  0.00     0.134 C 
ENDBRANCH  20  23
ENDBRANCH  17  20
ENDBRANCH   3  14
BRANCH   2  29
HETATM   29  N   UNL     1      42.237  -9.694   4.078  1.00  0.00    -0.287 NA
HETATM   30  H   UNL     1      43.022  -9.140   4.429  1.00  0.00     0.125 HD
HETATM   31  H   UNL     1      41.452  -9.072   3.871  1.00  0.00     0.125 HD
ENDBRANCH   2  29
BRANCH   1  32
HETATM   32  C   UNL     1      40.217 -11.935   3.215  1.00  0.00     0.257 C 
HETATM   33  N   UNL     1      39.786 -13.203   2.863  1.00  0.00    -0.356 N 
HETATM   34  H   UNL     1      40.262 -13.977   3.316  1.00  0.00     0.162 HD
HETATM   35  O   UNL     1      39.873 -10.927   2.610  1.00  0.00    -0.267 OA
BRANCH  33  36
HETATM   36  C   UNL     1      39.213 -13.478   1.561  1.00  0.00     0.127 C 
BRANCH  36  37
HETATM   37  C   UNL     1      40.244 -14.030   0.566  1.00  0.00     0.058 C 
BRANCH  37  38
HETATM   38  C   UNL     1      41.245 -14.978   1.192  1.00  0.00    -0.057 A 
HETATM   39  C   UNL     1      42.592 -14.617   1.326  1.00  0.00     0.010 A 
HETATM   40  C   UNL     1      43.510 -15.492   1.923  1.00  0.00     0.037 A 
HETATM   41  C   UNL     1      43.091 -16.737   2.391  1.00  0.00     0.068 A 
HETATM   42  C   UNL     1      41.757 -17.114   2.229  1.00  0.00     0.037 A 
HETATM   43  C   UNL     1      40.838 -16.240   1.642  1.00  0.00     0.010 A 
BRANCH  41  44
HETATM   44  O   UNL     1      43.884 -17.670   3.001  1.00  0.00    -0.356 OA
HETATM   45  C   UNL     1      43.581 -19.033   2.726  1.00  0.00     0.210 C 
ENDBRANCH  41  44
ENDBRANCH  37  38
ENDBRANCH  36  37
ENDBRANCH  33  36
ENDBRANCH   1  32
TORSDOF 9
ENDMDL
MODEL 8
REMARK VINA RESULT:      -9.1      4.179      6.218
REMARK  9 active torsions:
REMARK  status: ('A' for Active; 'I' for Inactive)
REMARK    1  A    between atoms: O_2  and  C_3 
REMARK    2  A    between atoms: C_6  and  C_7 
REMARK    3  A    between atoms: C_7  and  C_8 
REMARK    4  A    between atoms: C_8  and  N_9 
REMARK       I    between atoms: N_9  and  C_10 
REMARK    5  A    between atoms: C_10  and  C_11 
REMARK    6  A    between atoms: C_12  and  N_13 
REMARK    7  A    between atoms: N_14  and  C_15 
REMARK    8  A    between atoms: C_18  and  S_19 
REMARK    9  A    between atoms: S_19  and  N_20 
ROOT
HETATM    1  C   UNL     1      40.123  -9.761   7.662  1.00  0.00     0.103 C 
HETATM    2  C   UNL     1      39.403 -10.573   6.790  1.00  0.00     0.105 C 
HETATM    3  N   UNL     1      40.235 -10.816   5.688  1.00  0.00    -0.284 N 
HETATM    4  C   UNL     1      41.532 -10.773   6.192  1.00  0.00     0.166 A 
HETATM    5  C   UNL     1      41.483 -10.030   7.372  1.00  0.00     0.123 A 
HETATM    6  N   UNL     1      42.615  -9.689   8.036  1.00  0.00    -0.242 NA
HETATM    7  C   UNL     1      43.746 -10.197   7.529  1.00  0.00     0.086 A 
HETATM    8  C   UNL     1      43.771 -10.988   6.353  1.00  0.00     0.088 A 
HETATM    9  N   UNL     1      42.665 -11.270   5.643  1.00  0.00    -0.226 NA
HETATM   10  C   UNL     1      44.939  -9.950   8.198  1.00  0.00     0.034 A 
HETATM   11  C   UNL     1      46.153 -10.470   7.746  1.00  0.00     0.002 A 
HETATM   12  C   UNL     1      46.176 -11.250   6.599  1.00  0.00     0.002 A 
HETATM   13  C   UNL     1      44.986 -11.497   5.911  1.00  0.00     0.034 A 
ENDROOT
BRANCH   3  14
HETATM   14  C   UNL     1      39.832 -10.934   4.308  1.00  0.00     0.042 A 
HETATM   15  C   UNL     1      39.505 -12.182   3.752  1.00  0.00     0.031 A 
HETATM   16  C   UNL     1      39.281 -12.321   2.375  1.00  0.00     0.027 A 
HETATM   17  C   UNL     1      39.367 -11.204   1.544  1.00  0.00     0.074 A 
HETATM   18  C   UNL     1      39.664  -9.954   2.074  1.00  0.00     0.027 A 
HETATM   19  C   UNL     1      39.911  -9.826   3.443  1.00  0.00     0.031 A 
BRANCH  17  20
HETATM   20  S   UNL     1      39.159 -11.381  -0.207  1.00  0.00     0.243 S 
HETATM   21  O   UNL     1      37.940 -12.126  -0.442  1.00  0.00    -0.206 OA
HETATM   22  O   UNL     1      39.362 -10.075  -0.794  1.00  0.00    -0.206 OA
BRANCH  20  23
HETATM   23  N   UNL     1      40.461 -12.375  -0.667  1.00  0.00    -0.202 NA
HETATM   24  C   UNL     1      40.166 -13.821  -0.917  1.00  0.00     0.134 C 
HETATM   25  C   UNL     1      39.634 -14.071  -2.333  1.00  0.00     0.183 C 
HETATM   26  O   UNL     1      40.516 -13.535  -3.328  1.00  0.00    -0.389 OA
HETATM   27  C   UNL     1      40.676 -12.121  -3.149  1.00  0.00     0.183 C 
HETATM   28  C   UNL     1      41.296 -11.818  -1.780  1.00  0.00     0.134 C 
ENDBRANCH  20  23
ENDBRANCH  17  20
ENDBRANCH   3  14
BRANCH   2  29
HETATM   29  N   UNL     1      38.119 -11.021   6.901  1.00  0.00    -0.287 NA
HETATM   30  H   UNL     1      37.397 -10.502   6.396  1.00  0.00     0.125 HD
HETATM   31  H   UNL     1      37.778 -11.249   7.838  1.00  0.00     0.125 HD
ENDBRANCH   2  29
BRANCH   1  32
HETATM   32  C   UNL     1      39.569  -8.884   8.684  1.00  0.00     0.257 C 
HETATM   33  N   UNL     1      40.405  -7.827   9.002  1.00  0.00    -0.356 N 
HETATM   34  H   UNL     1      41.321  -7.837   8.563  1.00  0.00     0.162 HD
HETATM   35  O   UNL     1      38.524  -9.105   9.283  1.00  0.00    -0.267 OA
BRANCH  33  36
HETATM   36  C   UNL     1      40.312  -7.137  10.272  1.00  0.00     0.127 C 
BRANCH  36  37
HETATM   37  C   UNL     1      41.632  -7.161  11.056  1.00  0.00     0.058 C 
BRANCH  37  38
HETATM   38  C   UNL     1      41.456  -7.445  12.533  1.00  0.00    -0.057 A 
HETATM   39  C   UNL     1      42.160  -8.484  13.154  1.00  0.00     0.010 A 
HETATM   40  C   UNL     1      42.006  -8.731  14.526  1.00  0.00     0.037 A 
HETATM   41  C   UNL     1      41.147  -7.940  15.290  1.00  0.00     0.068 A 
HETATM   42  C   UNL     1      40.420  -6.926  14.667  1.00  0.00     0.037 A 
HETATM   43  C   UNL     1      40.578  -6.672  13.302  1.00  0.00     0.010 A 
BRANCH  41  44
HETATM   44  O   UNL     1      40.923  -8.072  16.632  1.00  0.00    -0.356 OA
HETATM   45  C   UNL     1      41.049  -6.889  17.412  1.00  0.00     0.210 C 
ENDBRANCH  41  44
ENDBRANCH  37  38
ENDBRANCH  36  37
ENDBRANCH  33  36
ENDBRANCH   1  32
TORSDOF 9
ENDMDL
MODEL 9
REMARK VINA RESULT:      -9.1      1.678      2.269
REMARK  9 active torsions:
REMARK  status: ('A' for Active; 'I' for Inactive)
REMARK    1  A    between atoms: O_2  and  C_3 
REMARK    2  A    between atoms: C_6  and  C_7 
REMARK    3  A    between atoms: C_7  and  C_8 
REMARK    4  A    between atoms: C_8  and  N_9 
REMARK       I    between atoms: N_9  and  C_10 
REMARK    5  A    between atoms: C_10  and  C_11 
REMARK    6  A    between atoms: C_12  and  N_13 
REMARK    7  A    between atoms: N_14  and  C_15 
REMARK    8  A    between atoms: C_18  and  S_19 
REMARK    9  A    between atoms: S_19  and  N_20 
ROOT
HETATM    1  C   UNL     1      42.512 -13.957   5.743  1.00  0.00     0.103 C 
HETATM    2  C   UNL     1      41.466 -13.324   5.080  1.00  0.00     0.105 C 
HETATM    3  N   UNL     1      41.542 -13.723   3.737  1.00  0.00    -0.284 N 
HETATM    4  C   UNL     1      42.096 -14.999   3.766  1.00  0.00     0.166 A 
HETATM    5  C   UNL     1      42.786 -15.114   4.973  1.00  0.00     0.123 A 
HETATM    6  N   UNL     1      43.554 -16.198   5.244  1.00  0.00    -0.242 NA
HETATM    7  C   UNL     1      43.514 -17.168   4.320  1.00  0.00     0.086 A 
HETATM    8  C   UNL     1      42.771 -17.052   3.120  1.00  0.00     0.088 A 
HETATM    9  N   UNL     1      42.066 -15.951   2.804  1.00  0.00    -0.226 NA
HETATM   10  C   UNL     1      44.220 -18.340   4.564  1.00  0.00     0.034 A 
HETATM   11  C   UNL     1      44.202 -19.405   3.662  1.00  0.00     0.002 A 
HETATM   12  C   UNL     1      43.469 -19.295   2.489  1.00  0.00     0.002 A 
HETATM   13  C   UNL     1      42.764 -18.118   2.228  1.00  0.00     0.034 A 
ENDROOT
BRANCH   3  14
HETATM   14  C   UNL     1      41.248 -12.918   2.577  1.00  0.00     0.042 A 
HETATM   15  C   UNL     1      42.012 -11.779   2.272  1.00  0.00     0.031 A 
HETATM   16  C   UNL     1      41.623 -10.903   1.248  1.00  0.00     0.027 A 
HETATM   17  C   UNL     1      40.471 -11.171   0.510  1.00  0.00     0.074 A 
HETATM   18  C   UNL     1      39.712 -12.305   0.775  1.00  0.00     0.027 A 
HETATM   19  C   UNL     1      40.090 -13.160   1.813  1.00  0.00     0.031 A 
BRANCH  17  20
HETATM   20  S   UNL     1      39.929 -10.033  -0.737  1.00  0.00     0.243 S 
HETATM   21  O   UNL     1      39.301  -8.908  -0.076  1.00  0.00    -0.206 OA
HETATM   22  O   UNL     1      41.034  -9.843  -1.649  1.00  0.00    -0.206 OA
BRANCH  20  23
HETATM   23  N   UNL     1      38.708 -10.889  -1.557  1.00  0.00    -0.202 NA
HETATM   24  C   UNL     1      37.291 -10.483  -1.296  1.00  0.00     0.134 C 
HETATM   25  C   UNL     1      36.860  -9.288  -2.154  1.00  0.00     0.183 C 
HETATM   26  O   UNL     1      37.089  -9.531  -3.548  1.00  0.00    -0.389 OA
HETATM   27  C   UNL     1      38.479  -9.785  -3.792  1.00  0.00     0.183 C 
HETATM   28  C   UNL     1      38.942 -11.031  -3.030  1.00  0.00     0.134 C 
ENDBRANCH  20  23
ENDBRANCH  17  20
ENDBRANCH   3  14
BRANCH   2  29
HETATM   29  N   UNL     1      40.557 -12.432   5.569  1.00  0.00    -0.287 NA
HETATM   30  H   UNL     1      39.673 -12.340   5.063  1.00  0.00     0.125 HD
HETATM   31  H   UNL     1      40.898 -11.502   5.823  1.00  0.00     0.125 HD
ENDBRANCH   2  29
BRANCH   1  32
HETATM   32  C   UNL     1      43.127 -13.533   6.994  1.00  0.00     0.257 C 
HETATM   33  N   UNL     1      43.348 -12.168   7.053  1.00  0.00    -0.356 N 
HETATM   34  H   UNL     1      43.145 -11.647   6.205  1.00  0.00     0.162 HD
HETATM   35  O   UNL     1      43.510 -14.304   7.865  1.00  0.00    -0.267 OA
BRANCH  33  36
HETATM   36  C   UNL     1      44.348 -11.595   7.931  1.00  0.00     0.127 C 
BRANCH  36  37
HETATM   37  C   UNL     1      44.264 -10.064   8.003  1.00  0.00     0.058 C 
BRANCH  37  38
HETATM   38  C   UNL     1      43.604  -9.550   9.266  1.00  0.00    -0.057 A 
HETATM   39  C   UNL     1      42.652  -8.525   9.214  1.00  0.00     0.010 A 
HETATM   40  C   UNL     1      42.031  -8.067  10.384  1.00  0.00     0.037 A 
HETATM   41  C   UNL     1      42.357  -8.629  11.619  1.00  0.00     0.068 A 
HETATM   42  C   UNL     1      43.330  -9.627  11.678  1.00  0.00     0.037 A 
HETATM   43  C   UNL     1      43.944 -10.092  10.511  1.00  0.00     0.010 A 
BRANCH  41  44
HETATM   44  O   UNL     1      41.815  -8.279  12.824  1.00  0.00    -0.356 OA
HETATM   45  C   UNL     1      42.221  -9.053  13.947  1.00  0.00     0.210 C 
ENDBRANCH  41  44
ENDBRANCH  37  38
ENDBRANCH  36  37
ENDBRANCH  33  36
ENDBRANCH   1  32
TORSDOF 9
ENDMDL
MODEL 10
REMARK VINA RESULT:      -8.9     17.067     20.027
REMARK  9 active torsions:
REMARK  status: ('A' for Active; 'I' for Inactive)
REMARK    1  A    between atoms: O_2  and  C_3 
REMARK    2  A    between atoms: C_6  and  C_7 
REMARK    3  A    between atoms: C_7  and  C_8 
REMARK    4  A    between atoms: C_8  and  N_9 
REMARK       I    between atoms: N_9  and  C_10 
REMARK    5  A    between atoms: C_10  and  C_11 
REMARK    6  A    between atoms: C_12  and  N_13 
REMARK    7  A    between atoms: N_14  and  C_15 
REMARK    8  A    between atoms: C_18  and  S_19 
REMARK    9  A    between atoms: S_19  and  N_20 
ROOT
HETATM    1  C   UNL     1      44.338 -29.330   0.598  1.00  0.00     0.103 C 
HETATM    2  C   UNL     1      43.207 -29.484   1.393  1.00  0.00     0.105 C 
HETATM    3  N   UNL     1      43.545 -30.398   2.400  1.00  0.00    -0.284 N 
HETATM    4  C   UNL     1      44.910 -30.225   2.608  1.00  0.00     0.166 A 
HETATM    5  C   UNL     1      45.426 -29.650   1.446  1.00  0.00     0.123 A 
HETATM    6  N   UNL     1      46.761 -29.480   1.278  1.00  0.00    -0.242 NA
HETATM    7  C   UNL     1      47.514 -29.812   2.335  1.00  0.00     0.086 A 
HETATM    8  C   UNL     1      46.967 -30.353   3.525  1.00  0.00     0.088 A 
HETATM    9  N   UNL     1      45.654 -30.598   3.676  1.00  0.00    -0.226 NA
HETATM   10  C   UNL     1      48.885 -29.597   2.263  1.00  0.00     0.034 A 
HETATM   11  C   UNL     1      49.729 -29.890   3.335  1.00  0.00     0.002 A 
HETATM   12  C   UNL     1      49.193 -30.414   4.502  1.00  0.00     0.002 A 
HETATM   13  C   UNL     1      47.818 -30.644   4.584  1.00  0.00     0.034 A 
ENDROOT
BRANCH   3  14
HETATM   14  C   UNL     1      42.688 -31.401   2.983  1.00  0.00     0.042 A 
HETATM   15  C   UNL     1      42.141 -32.432   2.200  1.00  0.00     0.031 A 
HETATM   16  C   UNL     1      41.175 -33.301   2.726  1.00  0.00     0.027 A 
HETATM   17  C   UNL     1      40.760 -33.155   4.049  1.00  0.00     0.074 A 
HETATM   18  C   UNL     1      41.304 -32.159   4.852  1.00  0.00     0.027 A 
HETATM   19  C   UNL     1      42.247 -31.279   4.315  1.00  0.00     0.031 A 
BRANCH  17  20
HETATM   20  S   UNL     1      39.486 -34.201   4.702  1.00  0.00     0.243 S 
HETATM   21  O   UNL     1      38.823 -34.849   3.591  1.00  0.00    -0.206 OA
HETATM   22  O   UNL     1      40.077 -34.972   5.774  1.00  0.00    -0.206 OA
BRANCH  20  23
HETATM   23  N   UNL     1      38.380 -33.105   5.387  1.00  0.00    -0.202 NA
HETATM   24  C   UNL     1      36.954 -33.199   4.940  1.00  0.00     0.134 C 
HETATM   25  C   UNL     1      36.174 -34.275   5.703  1.00  0.00     0.183 C 
HETATM   26  O   UNL     1      36.268 -34.087   7.121  1.00  0.00    -0.389 OA
HETATM   27  C   UNL     1      37.638 -34.136   7.545  1.00  0.00     0.183 C 
HETATM   28  C   UNL     1      38.448 -33.017   6.882  1.00  0.00     0.134 C 
ENDBRANCH  20  23
ENDBRANCH  17  20
ENDBRANCH   3  14
BRANCH   2  29
HETATM   29  N   UNL     1      41.968 -28.933   1.236  1.00  0.00    -0.287 NA
HETATM   30  H   UNL     1      41.915 -27.914   1.163  1.00  0.00     0.125 HD
HETATM   31  H   UNL     1      41.222 -29.266   1.850  1.00  0.00     0.125 HD
ENDBRANCH   2  29
BRANCH   1  32
HETATM   32  C   UNL     1      44.369 -28.872  -0.785  1.00  0.00     0.257 C 
HETATM   33  N   UNL     1      44.092 -29.879  -1.694  1.00  0.00    -0.356 N 
HETATM   34  H   UNL     1      43.991 -30.812  -1.308  1.00  0.00     0.162 HD
HETATM   35  O   UNL     1      44.707 -27.746  -1.126  1.00  0.00    -0.267 OA
BRANCH  33  36
HETATM   36  C   UNL     1      44.529 -29.800  -3.073  1.00  0.00     0.127 C 
BRANCH  36  37
HETATM   37  C   UNL     1      45.631 -30.818  -3.403  1.00  0.00     0.058 C 
BRANCH  37  38
HETATM   38  C   UNL     1      46.945 -30.536  -2.707  1.00  0.00    -0.057 A 
HETATM   39  C   UNL     1      47.395 -29.223  -2.521  1.00  0.00     0.010 A 
HETATM   40  C   UNL     1      48.604 -28.968  -1.860  1.00  0.00     0.037 A 
HETATM   41  C   UNL     1      49.376 -30.025  -1.377  1.00  0.00     0.068 A 
HETATM   42  C   UNL     1      48.948 -31.335  -1.590  1.00  0.00     0.037 A 
HETATM   43  C   UNL     1      47.739 -31.592  -2.241  1.00  0.00     0.010 A 
BRANCH  41  44
HETATM   44  O   UNL     1      50.563 -29.906  -0.707  1.00  0.00    -0.356 OA
HETATM   45  C   UNL     1      51.179 -31.121  -0.295  1.00  0.00     0.210 C 
ENDBRANCH  41  44
ENDBRANCH  37  38
ENDBRANCH  36  37
ENDBRANCH  33  36
ENDBRANCH   1  32
TORSDOF 9
ENDMDL
