MODEL 1
REMARK VINA RESULT:      -8.1      0.000      0.000
REMARK  5 active torsions:
REMARK  status: ('A' for Active; 'I' for Inactive)
REMARK    1  A    between atoms: C_6  and  S_7 
REMARK    2  A    between atoms: S_7  and  C_8 
REMARK    3  A    between atoms: C_8  and  C_9 
REMARK       I    between atoms: C_9  and  N_10 
REMARK    4  A    between atoms: N_10  and  C_11 
REMARK    5  A    between atoms: C_14  and  C_15 
ROOT
HETATM    1  C   UNL     1      42.388 -10.947   4.493  1.00  0.00     0.233 C 
HETATM    2  N   UNL     1      42.038 -11.891   5.435  1.00  0.00    -0.305 N 
HETATM    3  O   UNL     1      43.303 -11.041   3.678  1.00  0.00    -0.272 OA
HETATM    4  H   UNL     1      41.329 -11.681   6.122  1.00  0.00     0.171 HD
ENDROOT
BRANCH   2   5
HETATM    5  C   UNL     1      42.668 -13.099   5.529  1.00  0.00     0.173 A 
HETATM    6  S   UNL     1      43.616 -13.292   6.933  1.00  0.00    -0.061 SA
HETATM    7  C   UNL     1      44.011 -14.886   6.418  1.00  0.00     0.085 A 
HETATM    8  C   UNL     1      43.387 -15.164   5.215  1.00  0.00     0.076 A 
HETATM    9  N   UNL     1      42.625 -14.118   4.717  1.00  0.00    -0.223 NA
BRANCH   8  10
HETATM   10  C   UNL     1      43.485 -16.425   4.478  1.00  0.00    -0.007 A 
HETATM   11  C   UNL     1      43.972 -17.606   5.057  1.00  0.00     0.015 A 
HETATM   12  C   UNL     1      44.038 -18.792   4.314  1.00  0.00     0.020 A 
HETATM   13  C   UNL     1      43.615 -18.806   2.987  1.00  0.00     0.011 A 
HETATM   14 BR   UNL     1      43.701 -20.409   1.991  1.00  0.00    -0.051 Br
HETATM   15  C   UNL     1      43.127 -17.647   2.394  1.00  0.00     0.020 A 
HETATM   16  C   UNL     1      43.063 -16.465   3.138  1.00  0.00     0.015 A 
ENDBRANCH   8  10
ENDBRANCH   2   5
BRANCH   1  17
HETATM   17  C   UNL     1      41.455  -9.749   4.446  1.00  0.00     0.184 C 
BRANCH  17  18
HETATM   18  S   UNL     1      39.707 -10.241   4.390  1.00  0.00    -0.094 SA
BRANCH  18  19
HETATM   19  C   UNL     1      39.798 -11.521   3.195  1.00  0.00     0.136 A 
HETATM   20  S   UNL     1      39.972 -11.199   1.524  1.00  0.00    -0.061 SA
HETATM   21  C   UNL     1      39.959 -12.890   1.201  1.00  0.00     0.036 A 
HETATM   22  C   UNL     1      39.821 -13.580   2.408  1.00  0.00     0.075 A 
HETATM   23  C   UNL     1      40.063 -13.563  -0.029  1.00  0.00     0.021 A 
HETATM   24  C   UNL     1      39.791 -14.989   2.386  1.00  0.00     0.033 A 
HETATM   25  N   UNL     1      39.722 -12.784   3.537  1.00  0.00    -0.233 NA
HETATM   26  C   UNL     1      39.894 -15.667   1.167  1.00  0.00     0.002 A 
HETATM   27  C   UNL     1      40.028 -14.960  -0.024  1.00  0.00     0.002 A 
ENDBRANCH  18  19
ENDBRANCH  17  18
ENDBRANCH   1  17
TORSDOF 5
ENDMDL
MODEL 2
REMARK VINA RESULT:      -8.0      4.602      7.000
REMARK  5 active torsions:
REMARK  status: ('A' for Active; 'I' for Inactive)
REMARK    1  A    between atoms: C_6  and  S_7 
REMARK    2  A    between atoms: S_7  and  C_8 
REMARK    3  A    between atoms: C_8  and  C_9 
REMARK       I    between atoms: C_9  and  N_10 
REMARK    4  A    between atoms: N_10  and  C_11 
REMARK    5  A    between atoms: C_14  and  C_15 
ROOT
HETATM    1  C   UNL     1      44.695 -11.657   7.208  1.00  0.00     0.233 C 
HETATM    2  N   UNL     1      43.630 -12.500   7.447  1.00  0.00    -0.305 N 
HETATM    3  O   UNL     1      45.314 -11.553   6.151  1.00  0.00    -0.272 OA
HETATM    4  H   UNL     1      43.248 -12.580   8.377  1.00  0.00     0.171 HD
ENDROOT
BRANCH   2   5
HETATM    5  C   UNL     1      43.099 -13.302   6.477  1.00  0.00     0.173 A 
HETATM    6  S   UNL     1      41.699 -12.676   5.733  1.00  0.00    -0.061 SA
HETATM    7  C   UNL     1      41.646 -14.065   4.718  1.00  0.00     0.085 A 
HETATM    8  C   UNL     1      42.704 -14.907   5.012  1.00  0.00     0.076 A 
HETATM    9  N   UNL     1      43.525 -14.452   6.033  1.00  0.00    -0.223 NA
BRANCH   8  10
HETATM   10  C   UNL     1      42.988 -16.179   4.346  1.00  0.00    -0.007 A 
HETATM   11  C   UNL     1      43.872 -17.132   4.876  1.00  0.00     0.015 A 
HETATM   12  C   UNL     1      44.105 -18.340   4.208  1.00  0.00     0.020 A 
HETATM   13  C   UNL     1      43.455 -18.607   3.006  1.00  0.00     0.011 A 
HETATM   14 BR   UNL     1      43.768 -20.242   2.111  1.00  0.00    -0.051 Br
HETATM   15  C   UNL     1      42.573 -17.679   2.464  1.00  0.00     0.020 A 
HETATM   16  C   UNL     1      42.342 -16.473   3.134  1.00  0.00     0.015 A 
ENDBRANCH   8  10
ENDBRANCH   2   5
BRANCH   1  17
HETATM   17  C   UNL     1      45.019 -10.731   8.367  1.00  0.00     0.184 C 
BRANCH  17  18
HETATM   18  S   UNL     1      44.115  -9.158   8.263  1.00  0.00    -0.094 SA
BRANCH  18  19
HETATM   19  C   UNL     1      43.176  -9.257   9.741  1.00  0.00     0.136 A 
HETATM   20  S   UNL     1      43.905  -9.236  11.288  1.00  0.00    -0.061 SA
HETATM   21  C   UNL     1      42.351  -9.373  12.017  1.00  0.00     0.036 A 
HETATM   22  C   UNL     1      41.382  -9.425  11.011  1.00  0.00     0.075 A 
HETATM   23  C   UNL     1      42.008  -9.431  13.379  1.00  0.00     0.021 A 
HETATM   24  C   UNL     1      40.026  -9.532  11.379  1.00  0.00     0.033 A 
HETATM   25  N   UNL     1      41.870  -9.365   9.717  1.00  0.00    -0.233 NA
HETATM   26  C   UNL     1      39.675  -9.590  12.732  1.00  0.00     0.002 A 
HETATM   27  C   UNL     1      40.656  -9.540  13.717  1.00  0.00     0.002 A 
ENDBRANCH  18  19
ENDBRANCH  17  18
ENDBRANCH   1  17
TORSDOF 5
ENDMDL
MODEL 3
REMARK VINA RESULT:      -7.9      5.681      8.578
REMARK  5 active torsions:
REMARK  status: ('A' for Active; 'I' for Inactive)
REMARK    1  A    between atoms: C_6  and  S_7 
REMARK    2  A    between atoms: S_7  and  C_8 
REMARK    3  A    between atoms: C_8  and  C_9 
REMARK       I    between atoms: C_9  and  N_10 
REMARK    4  A    between atoms: N_10  and  C_11 
REMARK    5  A    between atoms: C_14  and  C_15 
ROOT
HETATM    1  C   UNL     1      43.322 -12.395   6.114  1.00  0.00     0.233 C 
HETATM    2  N   UNL     1      44.129 -12.392   7.231  1.00  0.00    -0.305 N 
HETATM    3  O   UNL     1      42.742 -11.423   5.635  1.00  0.00    -0.272 OA
HETATM    4  H   UNL     1      44.486 -13.262   7.599  1.00  0.00     0.171 HD
ENDROOT
BRANCH   2   5
HETATM    5  C   UNL     1      44.419 -11.250   7.921  1.00  0.00     0.173 A 
HETATM    6  S   UNL     1      45.897 -10.520   7.486  1.00  0.00    -0.061 SA
HETATM    7  C   UNL     1      45.584  -9.266   8.622  1.00  0.00     0.085 A 
HETATM    8  C   UNL     1      44.371  -9.486   9.250  1.00  0.00     0.076 A 
HETATM    9  N   UNL     1      43.720 -10.639   8.837  1.00  0.00    -0.223 NA
BRANCH   8  10
HETATM   10  C   UNL     1      43.773  -8.624  10.270  1.00  0.00    -0.007 A 
HETATM   11  C   UNL     1      43.775  -8.950  11.635  1.00  0.00     0.015 A 
HETATM   12  C   UNL     1      43.198  -8.088  12.576  1.00  0.00     0.020 A 
HETATM   13  C   UNL     1      42.616  -6.893  12.160  1.00  0.00     0.011 A 
HETATM   14 BR   UNL     1      41.843  -5.731  13.435  1.00  0.00    -0.051 Br
HETATM   15  C   UNL     1      42.605  -6.549  10.813  1.00  0.00     0.020 A 
HETATM   16  C   UNL     1      43.182  -7.411   9.876  1.00  0.00     0.015 A 
ENDBRANCH   8  10
ENDBRANCH   2   5
BRANCH   1  17
HETATM   17  C   UNL     1      43.265 -13.734   5.398  1.00  0.00     0.184 C 
BRANCH  17  18
HETATM   18  S   UNL     1      43.685 -15.119   6.499  1.00  0.00    -0.094 SA
BRANCH  18  19
HETATM   19  C   UNL     1      43.622 -16.441   5.349  1.00  0.00     0.136 A 
HETATM   20  S   UNL     1      43.080 -16.227   3.741  1.00  0.00    -0.061 SA
HETATM   21  C   UNL     1      43.347 -17.901   3.433  1.00  0.00     0.036 A 
HETATM   22  C   UNL     1      43.835 -18.502   4.596  1.00  0.00     0.075 A 
HETATM   23  C   UNL     1      43.140 -18.633   2.251  1.00  0.00     0.021 A 
HETATM   24  C   UNL     1      44.132 -19.880   4.575  1.00  0.00     0.033 A 
HETATM   25  N   UNL     1      43.980 -17.657   5.683  1.00  0.00    -0.233 NA
HETATM   26  C   UNL     1      43.930 -20.616   3.404  1.00  0.00     0.002 A 
HETATM   27  C   UNL     1      43.439 -19.998   2.257  1.00  0.00     0.002 A 
ENDBRANCH  18  19
ENDBRANCH  17  18
ENDBRANCH   1  17
TORSDOF 5
ENDMDL
MODEL 4
REMARK VINA RESULT:      -7.9      3.305      5.792
REMARK  5 active torsions:
REMARK  status: ('A' for Active; 'I' for Inactive)
REMARK    1  A    between atoms: C_6  and  S_7 
REMARK    2  A    between atoms: S_7  and  C_8 
REMARK    3  A    between atoms: C_8  and  C_9 
REMARK       I    between atoms: C_9  and  N_10 
REMARK    4  A    between atoms: N_10  and  C_11 
REMARK    5  A    between atoms: C_14  and  C_15 
ROOT
HETATM    1  C   UNL     1      40.266 -12.230   5.993  1.00  0.00     0.233 C 
HETATM    2  N   UNL     1      41.573 -12.267   5.555  1.00  0.00    -0.305 N 
HETATM    3  O   UNL     1      39.610 -13.186   6.399  1.00  0.00    -0.272 OA
HETATM    4  H   UNL     1      41.995 -11.443   5.153  1.00  0.00     0.171 HD
ENDROOT
BRANCH   2   5
HETATM    5  C   UNL     1      42.320 -13.410   5.577  1.00  0.00     0.173 A 
HETATM    6  S   UNL     1      43.383 -13.532   6.905  1.00  0.00    -0.061 SA
HETATM    7  C   UNL     1      43.889 -15.072   6.327  1.00  0.00     0.085 A 
HETATM    8  C   UNL     1      43.208 -15.390   5.165  1.00  0.00     0.076 A 
HETATM    9  N   UNL     1      42.315 -14.415   4.747  1.00  0.00    -0.223 NA
BRANCH   8  10
HETATM   10  C   UNL     1      43.371 -16.623   4.394  1.00  0.00    -0.007 A 
HETATM   11  C   UNL     1      44.151 -17.701   4.843  1.00  0.00     0.015 A 
HETATM   12  C   UNL     1      44.270 -18.865   4.074  1.00  0.00     0.020 A 
HETATM   13  C   UNL     1      43.608 -18.963   2.852  1.00  0.00     0.011 A 
HETATM   14 BR   UNL     1      43.767 -20.539   1.821  1.00  0.00    -0.051 Br
HETATM   15  C   UNL     1      42.829 -17.908   2.390  1.00  0.00     0.020 A 
HETATM   16  C   UNL     1      42.712 -16.747   3.159  1.00  0.00     0.015 A 
ENDBRANCH   8  10
ENDBRANCH   2   5
BRANCH   1  17
HETATM   17  C   UNL     1      39.673 -10.832   6.044  1.00  0.00     0.184 C 
BRANCH  17  18
HETATM   18  S   UNL     1      40.897  -9.552   5.633  1.00  0.00    -0.094 SA
BRANCH  18  19
HETATM   19  C   UNL     1      41.783  -9.493   7.145  1.00  0.00     0.136 A 
HETATM   20  S   UNL     1      41.067  -8.951   8.602  1.00  0.00    -0.061 SA
HETATM   21  C   UNL     1      42.555  -9.221   9.428  1.00  0.00     0.036 A 
HETATM   22  C   UNL     1      43.495  -9.709   8.516  1.00  0.00     0.075 A 
HETATM   23  C   UNL     1      42.872  -9.017  10.781  1.00  0.00     0.021 A 
HETATM   24  C   UNL     1      44.794 -10.009   8.976  1.00  0.00     0.033 A 
HETATM   25  N   UNL     1      43.042  -9.852   7.216  1.00  0.00    -0.233 NA
HETATM   26  C   UNL     1      45.118  -9.809  10.322  1.00  0.00     0.002 A 
HETATM   27  C   UNL     1      44.167  -9.318  11.211  1.00  0.00     0.002 A 
ENDBRANCH  18  19
ENDBRANCH  17  18
ENDBRANCH   1  17
TORSDOF 5
ENDMDL
MODEL 5
REMARK VINA RESULT:      -7.9      5.137      7.610
REMARK  5 active torsions:
REMARK  status: ('A' for Active; 'I' for Inactive)
REMARK    1  A    between atoms: C_6  and  S_7 
REMARK    2  A    between atoms: S_7  and  C_8 
REMARK    3  A    between atoms: C_8  and  C_9 
REMARK       I    between atoms: C_9  and  N_10 
REMARK    4  A    between atoms: N_10  and  C_11 
REMARK    5  A    between atoms: C_14  and  C_15 
ROOT
HETATM    1  C   UNL     1      44.342 -11.655   7.440  1.00  0.00     0.233 C 
HETATM    2  N   UNL     1      43.192 -12.393   7.258  1.00  0.00    -0.305 N 
HETATM    3  O   UNL     1      45.291 -11.587   6.662  1.00  0.00    -0.272 OA
HETATM    4  H   UNL     1      42.509 -12.458   7.998  1.00  0.00     0.171 HD
ENDROOT
BRANCH   2   5
HETATM    5  C   UNL     1      42.958 -13.115   6.122  1.00  0.00     0.173 A 
HETATM    6  S   UNL     1      42.185 -12.242   4.878  1.00  0.00    -0.061 SA
HETATM    7  C   UNL     1      42.258 -13.644   3.882  1.00  0.00     0.085 A 
HETATM    8  C   UNL     1      42.873 -14.678   4.564  1.00  0.00     0.076 A 
HETATM    9  N   UNL     1      43.262 -14.355   5.855  1.00  0.00    -0.223 NA
BRANCH   8  10
HETATM   10  C   UNL     1      43.119 -16.020   4.032  1.00  0.00    -0.007 A 
HETATM   11  C   UNL     1      43.805 -17.008   4.754  1.00  0.00     0.015 A 
HETATM   12  C   UNL     1      44.008 -18.282   4.207  1.00  0.00     0.020 A 
HETATM   13  C   UNL     1      43.525 -18.577   2.935  1.00  0.00     0.011 A 
HETATM   14 BR   UNL     1      43.797 -20.298   2.203  1.00  0.00    -0.051 Br
HETATM   15  C   UNL     1      42.840 -17.613   2.203  1.00  0.00     0.020 A 
HETATM   16  C   UNL     1      42.639 -16.343   2.752  1.00  0.00     0.015 A 
ENDBRANCH   8  10
ENDBRANCH   2   5
BRANCH   1  17
HETATM   17  C   UNL     1      44.328 -10.793   8.692  1.00  0.00     0.184 C 
BRANCH  17  18
HETATM   18  S   UNL     1      43.485  -9.206   8.423  1.00  0.00    -0.094 SA
BRANCH  18  19
HETATM   19  C   UNL     1      42.855  -8.928  10.035  1.00  0.00     0.136 A 
HETATM   20  S   UNL     1      41.245  -9.314  10.465  1.00  0.00    -0.061 SA
HETATM   21  C   UNL     1      41.538  -8.739  12.062  1.00  0.00     0.036 A 
HETATM   22  C   UNL     1      42.859  -8.290  12.145  1.00  0.00     0.075 A 
HETATM   23  C   UNL     1      40.667  -8.685  13.164  1.00  0.00     0.021 A 
HETATM   24  C   UNL     1      43.326  -7.777  13.372  1.00  0.00     0.033 A 
HETATM   25  N   UNL     1      43.596  -8.398  10.978  1.00  0.00    -0.233 NA
HETATM   26  C   UNL     1      42.466  -7.720  14.474  1.00  0.00     0.002 A 
HETATM   27  C   UNL     1      41.153  -8.169  14.368  1.00  0.00     0.002 A 
ENDBRANCH  18  19
ENDBRANCH  17  18
ENDBRANCH   1  17
TORSDOF 5
ENDMDL
MODEL 6
REMARK VINA RESULT:      -7.6      6.546      9.087
REMARK  5 active torsions:
REMARK  status: ('A' for Active; 'I' for Inactive)
REMARK    1  A    between atoms: C_6  and  S_7 
REMARK    2  A    between atoms: S_7  and  C_8 
REMARK    3  A    between atoms: C_8  and  C_9 
REMARK       I    between atoms: C_9  and  N_10 
REMARK    4  A    between atoms: N_10  and  C_11 
REMARK    5  A    between atoms: C_14  and  C_15 
ROOT
HETATM    1  C   UNL     1      44.735 -11.388   7.588  1.00  0.00     0.233 C 
HETATM    2  N   UNL     1      43.520 -10.955   8.075  1.00  0.00    -0.305 N 
HETATM    3  O   UNL     1      45.835 -10.909   7.854  1.00  0.00    -0.272 OA
HETATM    4  H   UNL     1      42.662 -11.355   7.723  1.00  0.00     0.171 HD
ENDROOT
BRANCH   2   5
HETATM    5  C   UNL     1      43.414  -9.939   8.981  1.00  0.00     0.173 A 
HETATM    6  S   UNL     1      43.806  -8.399   8.361  1.00  0.00    -0.061 SA
HETATM    7  C   UNL     1      43.442  -7.715   9.898  1.00  0.00     0.085 A 
HETATM    8  C   UNL     1      43.040  -8.706  10.775  1.00  0.00     0.076 A 
HETATM    9  N   UNL     1      43.038  -9.981  10.229  1.00  0.00    -0.223 NA
BRANCH   8  10
HETATM   10  C   UNL     1      42.643  -8.499  12.169  1.00  0.00    -0.007 A 
HETATM   11  C   UNL     1      43.305  -7.602  13.021  1.00  0.00     0.015 A 
HETATM   12  C   UNL     1      42.883  -7.430  14.345  1.00  0.00     0.020 A 
HETATM   13  C   UNL     1      41.794  -8.152  14.827  1.00  0.00     0.011 A 
HETATM   14 BR   UNL     1      41.224  -7.912  16.613  1.00  0.00    -0.051 Br
HETATM   15  C   UNL     1      41.121  -9.044  13.999  1.00  0.00     0.020 A 
HETATM   16  C   UNL     1      41.545  -9.213  12.678  1.00  0.00     0.015 A 
ENDBRANCH   8  10
ENDBRANCH   2   5
BRANCH   1  17
HETATM   17  C   UNL     1      44.643 -12.636   6.726  1.00  0.00     0.184 C 
BRANCH  17  18
HETATM   18  S   UNL     1      42.933 -13.230   6.557  1.00  0.00    -0.094 SA
BRANCH  18  19
HETATM   19  C   UNL     1      43.224 -14.726   5.690  1.00  0.00     0.136 A 
HETATM   20  S   UNL     1      44.041 -16.049   6.402  1.00  0.00    -0.061 SA
HETATM   21  C   UNL     1      43.864 -16.940   4.939  1.00  0.00     0.036 A 
HETATM   22  C   UNL     1      43.187 -16.149   4.007  1.00  0.00     0.075 A 
HETATM   23  C   UNL     1      44.292 -18.243   4.632  1.00  0.00     0.021 A 
HETATM   24  C   UNL     1      42.924 -16.680   2.728  1.00  0.00     0.033 A 
HETATM   25  N   UNL     1      42.835 -14.884   4.448  1.00  0.00    -0.233 NA
HETATM   26  C   UNL     1      43.345 -17.976   2.414  1.00  0.00     0.002 A 
HETATM   27  C   UNL     1      44.021 -18.746   3.356  1.00  0.00     0.002 A 
ENDBRANCH  18  19
ENDBRANCH  17  18
ENDBRANCH   1  17
TORSDOF 5
ENDMDL
MODEL 7
REMARK VINA RESULT:      -7.5      1.542      2.160
REMARK  5 active torsions:
REMARK  status: ('A' for Active; 'I' for Inactive)
REMARK    1  A    between atoms: C_6  and  S_7 
REMARK    2  A    between atoms: S_7  and  C_8 
REMARK    3  A    between atoms: C_8  and  C_9 
REMARK       I    between atoms: C_9  and  N_10 
REMARK    4  A    between atoms: N_10  and  C_11 
REMARK    5  A    between atoms: C_14  and  C_15 
ROOT
HETATM    1  C   UNL     1      42.020 -10.889   3.479  1.00  0.00     0.233 C 
HETATM    2  N   UNL     1      41.469 -11.844   4.306  1.00  0.00    -0.305 N 
HETATM    3  O   UNL     1      43.126 -10.943   2.945  1.00  0.00    -0.272 OA
HETATM    4  H   UNL     1      40.591 -11.665   4.771  1.00  0.00     0.171 HD
ENDROOT
BRANCH   2   5
HETATM    5  C   UNL     1      42.101 -13.021   4.588  1.00  0.00     0.173 A 
HETATM    6  S   UNL     1      42.864 -13.064   6.112  1.00  0.00    -0.061 SA
HETATM    7  C   UNL     1      43.349 -14.685   5.797  1.00  0.00     0.085 A 
HETATM    8  C   UNL     1      42.889 -15.084   4.555  1.00  0.00     0.076 A 
HETATM    9  N   UNL     1      42.180 -14.108   3.872  1.00  0.00    -0.223 NA
BRANCH   8  10
HETATM   10  C   UNL     1      43.102 -16.402   3.953  1.00  0.00    -0.007 A 
HETATM   11  C   UNL     1      42.584 -16.754   2.697  1.00  0.00     0.015 A 
HETATM   12  C   UNL     1      42.822 -18.024   2.157  1.00  0.00     0.020 A 
HETATM   13  C   UNL     1      43.581 -18.951   2.868  1.00  0.00     0.011 A 
HETATM   14 BR   UNL     1      43.903 -20.662   2.132  1.00  0.00    -0.051 Br
HETATM   15  C   UNL     1      44.105 -18.622   4.112  1.00  0.00     0.020 A 
HETATM   16  C   UNL     1      43.866 -17.353   4.649  1.00  0.00     0.015 A 
ENDBRANCH   8  10
ENDBRANCH   2   5
BRANCH   1  17
HETATM   17  C   UNL     1      41.084  -9.735   3.160  1.00  0.00     0.184 C 
BRANCH  17  18
HETATM   18  S   UNL     1      39.431 -10.308   2.667  1.00  0.00    -0.094 SA
BRANCH  18  19
HETATM   19  C   UNL     1      39.824 -11.059   1.132  1.00  0.00     0.136 A 
HETATM   20  S   UNL     1      40.783 -10.276  -0.048  1.00  0.00    -0.061 SA
HETATM   21  C   UNL     1      40.621 -11.645  -1.081  1.00  0.00     0.036 A 
HETATM   22  C   UNL     1      39.837 -12.607  -0.438  1.00  0.00     0.075 A 
HETATM   23  C   UNL     1      41.147 -11.857  -2.367  1.00  0.00     0.021 A 
HETATM   24  C   UNL     1      39.576 -13.823  -1.101  1.00  0.00     0.033 A 
HETATM   25  N   UNL     1      39.383 -12.254   0.822  1.00  0.00    -0.233 NA
HETATM   26  C   UNL     1      40.094 -14.043  -2.381  1.00  0.00     0.002 A 
HETATM   27  C   UNL     1      40.870 -13.070  -3.004  1.00  0.00     0.002 A 
ENDBRANCH  18  19
ENDBRANCH  17  18
ENDBRANCH   1  17
TORSDOF 5
ENDMDL
MODEL 8
REMARK VINA RESULT:      -7.4      2.528      3.261
REMARK  5 active torsions:
REMARK  status: ('A' for Active; 'I' for Inactive)
REMARK    1  A    between atoms: C_6  and  S_7 
REMARK    2  A    between atoms: S_7  and  C_8 
REMARK    3  A    between atoms: C_8  and  C_9 
REMARK       I    between atoms: C_9  and  N_10 
REMARK    4  A    between atoms: N_10  and  C_11 
REMARK    5  A    between atoms: C_14  and  C_15 
ROOT
HETATM    1  C   UNL     1      40.933 -10.773   2.103  1.00  0.00     0.233 C 
HETATM    2  N   UNL     1      42.224 -11.229   2.265  1.00  0.00    -0.305 N 
HETATM    3  O   UNL     1      39.914 -11.316   2.523  1.00  0.00    -0.272 OA
HETATM    4  H   UNL     1      42.988 -10.759   1.802  1.00  0.00     0.171 HD
ENDROOT
BRANCH   2   5
HETATM    5  C   UNL     1      42.519 -12.353   2.981  1.00  0.00     0.173 A 
HETATM    6  S   UNL     1      42.702 -12.094   4.656  1.00  0.00    -0.061 SA
HETATM    7  C   UNL     1      42.988 -13.779   4.861  1.00  0.00     0.085 A 
HETATM    8  C   UNL     1      42.918 -14.424   3.639  1.00  0.00     0.076 A 
HETATM    9  N   UNL     1      42.654 -13.583   2.569  1.00  0.00    -0.223 NA
BRANCH   8  10
HETATM   10  C   UNL     1      43.100 -15.860   3.424  1.00  0.00    -0.007 A 
HETATM   11  C   UNL     1      42.784 -16.492   2.212  1.00  0.00     0.015 A 
HETATM   12  C   UNL     1      42.984 -17.868   2.049  1.00  0.00     0.020 A 
HETATM   13  C   UNL     1      43.504 -18.624   3.097  1.00  0.00     0.011 A 
HETATM   14 BR   UNL     1      43.777 -20.480   2.872  1.00  0.00    -0.051 Br
HETATM   15  C   UNL     1      43.826 -18.018   4.307  1.00  0.00     0.020 A 
HETATM   16  C   UNL     1      43.625 -16.644   4.466  1.00  0.00     0.015 A 
ENDBRANCH   8  10
ENDBRANCH   2   5
BRANCH   1  17
HETATM   17  C   UNL     1      40.840  -9.418   1.421  1.00  0.00     0.184 C 
BRANCH  17  18
HETATM   18  S   UNL     1      41.536  -9.447  -0.258  1.00  0.00    -0.094 SA
BRANCH  18  19
HETATM   19  C   UNL     1      40.527 -10.687  -0.976  1.00  0.00     0.136 A 
HETATM   20  S   UNL     1      38.834 -10.506  -1.139  1.00  0.00    -0.061 SA
HETATM   21  C   UNL     1      38.741 -12.067  -1.863  1.00  0.00     0.036 A 
HETATM   22  C   UNL     1      40.026 -12.614  -1.925  1.00  0.00     0.075 A 
HETATM   23  C   UNL     1      37.616 -12.761  -2.341  1.00  0.00     0.021 A 
HETATM   24  C   UNL     1      40.192 -13.894  -2.489  1.00  0.00     0.033 A 
HETATM   25  N   UNL     1      41.033 -11.817  -1.408  1.00  0.00    -0.233 NA
HETATM   26  C   UNL     1      39.079 -14.593  -2.968  1.00  0.00     0.002 A 
HETATM   27  C   UNL     1      37.808 -14.031  -2.893  1.00  0.00     0.002 A 
ENDBRANCH  18  19
ENDBRANCH  17  18
ENDBRANCH   1  17
TORSDOF 5
ENDMDL
MODEL 9
REMARK VINA RESULT:      -7.2      4.582      7.187
REMARK  5 active torsions:
REMARK  status: ('A' for Active; 'I' for Inactive)
REMARK    1  A    between atoms: C_6  and  S_7 
REMARK    2  A    between atoms: S_7  and  C_8 
REMARK    3  A    between atoms: C_8  and  C_9 
REMARK       I    between atoms: C_9  and  N_10 
REMARK    4  A    between atoms: N_10  and  C_11 
REMARK    5  A    between atoms: C_14  and  C_15 
ROOT
HETATM    1  C   UNL     1      42.157 -11.247   6.010  1.00  0.00     0.233 C 
HETATM    2  N   UNL     1      43.050 -11.534   5.000  1.00  0.00    -0.305 N 
HETATM    3  O   UNL     1      41.137 -11.878   6.277  1.00  0.00    -0.272 OA
HETATM    4  H   UNL     1      43.810 -10.901   4.801  1.00  0.00     0.171 HD
ENDROOT
BRANCH   2   5
HETATM    5  C   UNL     1      42.913 -12.626   4.190  1.00  0.00     0.173 A 
HETATM    6  S   UNL     1      42.317 -12.277   2.632  1.00  0.00    -0.061 SA
HETATM    7  C   UNL     1      42.442 -13.947   2.236  1.00  0.00     0.085 A 
HETATM    8  C   UNL     1      42.937 -14.655   3.318  1.00  0.00     0.076 A 
HETATM    9  N   UNL     1      43.194 -13.876   4.435  1.00  0.00    -0.223 NA
BRANCH   8  10
HETATM   10  C   UNL     1      43.185 -16.097   3.348  1.00  0.00    -0.007 A 
HETATM   11  C   UNL     1      43.665 -16.760   4.489  1.00  0.00     0.015 A 
HETATM   12  C   UNL     1      43.878 -18.144   4.474  1.00  0.00     0.020 A 
HETATM   13  C   UNL     1      43.612 -18.876   3.319  1.00  0.00     0.011 A 
HETATM   14 BR   UNL     1      43.897 -20.745   3.305  1.00  0.00    -0.051 Br
HETATM   15  C   UNL     1      43.135 -18.240   2.179  1.00  0.00     0.020 A 
HETATM   16  C   UNL     1      42.922 -16.858   2.197  1.00  0.00     0.015 A 
ENDBRANCH   8  10
ENDBRANCH   2   5
BRANCH   1  17
HETATM   17  C   UNL     1      42.584 -10.090   6.898  1.00  0.00     0.184 C 
BRANCH  17  18
HETATM   18  S   UNL     1      44.066 -10.484   7.874  1.00  0.00    -0.094 SA
BRANCH  18  19
HETATM   19  C   UNL     1      43.605  -9.776   9.410  1.00  0.00     0.136 A 
HETATM   20  S   UNL     1      43.560  -8.084   9.658  1.00  0.00    -0.061 SA
HETATM   21  C   UNL     1      43.061  -8.341  11.287  1.00  0.00     0.036 A 
HETATM   22  C   UNL     1      42.967  -9.716  11.520  1.00  0.00     0.075 A 
HETATM   23  C   UNL     1      42.774  -7.399  12.290  1.00  0.00     0.021 A 
HETATM   24  C   UNL     1      42.567 -10.163  12.795  1.00  0.00     0.033 A 
HETATM   25  N   UNL     1      43.288 -10.522  10.441  1.00  0.00    -0.233 NA
HETATM   26  C   UNL     1      42.278  -9.233  13.799  1.00  0.00     0.002 A 
HETATM   27  C   UNL     1      42.382  -7.868  13.547  1.00  0.00     0.002 A 
ENDBRANCH  18  19
ENDBRANCH  17  18
ENDBRANCH   1  17
TORSDOF 5
ENDMDL
MODEL 10
REMARK VINA RESULT:      -7.0      2.570      5.174
REMARK  5 active torsions:
REMARK  status: ('A' for Active; 'I' for Inactive)
REMARK    1  A    between atoms: C_6  and  S_7 
REMARK    2  A    between atoms: S_7  and  C_8 
REMARK    3  A    between atoms: C_8  and  C_9 
REMARK       I    between atoms: C_9  and  N_10 
REMARK    4  A    between atoms: N_10  and  C_11 
REMARK    5  A    between atoms: C_14  and  C_15 
ROOT
HETATM    1  C   UNL     1      40.066 -11.238   3.939  1.00  0.00     0.233 C 
HETATM    2  N   UNL     1      41.210 -11.507   3.217  1.00  0.00    -0.305 N 
HETATM    3  O   UNL     1      39.195 -12.049   4.245  1.00  0.00    -0.272 OA
HETATM    4  H   UNL     1      41.819 -10.754   2.936  1.00  0.00     0.171 HD
ENDROOT
BRANCH   2   5
HETATM    5  C   UNL     1      41.529 -12.766   2.794  1.00  0.00     0.173 A 
HETATM    6  S   UNL     1      41.329 -13.020   1.121  1.00  0.00    -0.061 SA
HETATM    7  C   UNL     1      41.899 -14.631   1.321  1.00  0.00     0.085 A 
HETATM    8  C   UNL     1      42.210 -14.862   2.649  1.00  0.00     0.076 A 
HETATM    9  N   UNL     1      41.982 -13.778   3.482  1.00  0.00    -0.223 NA
BRANCH   8  10
HETATM   10  C   UNL     1      42.731 -16.117   3.195  1.00  0.00    -0.007 A 
HETATM   11  C   UNL     1      43.028 -16.287   4.555  1.00  0.00     0.015 A 
HETATM   12  C   UNL     1      43.516 -17.510   5.033  1.00  0.00     0.020 A 
HETATM   13  C   UNL     1      43.708 -18.573   4.154  1.00  0.00     0.011 A 
HETATM   14 BR   UNL     1      44.362 -20.223   4.804  1.00  0.00    -0.051 Br
HETATM   15  C   UNL     1      43.417 -18.427   2.802  1.00  0.00     0.020 A 
HETATM   16  C   UNL     1      42.931 -17.205   2.329  1.00  0.00     0.015 A 
ENDBRANCH   8  10
ENDBRANCH   2   5
BRANCH   1  17
HETATM   17  C   UNL     1      39.986  -9.812   4.455  1.00  0.00     0.184 C 
BRANCH  17  18
HETATM   18  S   UNL     1      39.854  -9.744   6.267  1.00  0.00    -0.094 SA
BRANCH  18  19
HETATM   19  C   UNL     1      41.537  -9.980   6.696  1.00  0.00     0.136 A 
HETATM   20  S   UNL     1      42.232  -9.274   8.090  1.00  0.00    -0.061 SA
HETATM   21  C   UNL     1      43.747  -9.992   7.694  1.00  0.00     0.036 A 
HETATM   22  C   UNL     1      43.604 -10.725   6.513  1.00  0.00     0.075 A 
HETATM   23  C   UNL     1      44.974  -9.915   8.375  1.00  0.00     0.021 A 
HETATM   24  C   UNL     1      44.725 -11.408   5.999  1.00  0.00     0.033 A 
HETATM   25  N   UNL     1      42.339 -10.702   5.951  1.00  0.00    -0.233 NA
HETATM   26  C   UNL     1      45.950 -11.338   6.669  1.00  0.00     0.002 A 
HETATM   27  C   UNL     1      46.070 -10.599   7.843  1.00  0.00     0.002 A 
ENDBRANCH  18  19
ENDBRANCH  17  18
ENDBRANCH   1  17
TORSDOF 5
ENDMDL
