MODEL 1
REMARK VINA RESULT:      -8.1      0.000      0.000
REMARK  5 active torsions:
REMARK  status: ('A' for Active; 'I' for Inactive)
REMARK    1  A    between atoms: C_8  and  C_9 
REMARK    2  A    between atoms: C_9  and  N_10 
REMARK    3  A    between atoms: N_10  and  C_13 
REMARK    4  A    between atoms: C_16  and  O_17 
REMARK    5  A    between atoms: O_17  and  C_18 
ROOT
HETATM    1  C   UNL     1      43.121 -12.457   6.087  1.00  0.00     0.164 A 
HETATM    2  N   UNL     1      44.396 -12.689   6.460  1.00  0.00    -0.236 NA
HETATM    3  C   UNL     1      45.045 -11.673   7.084  1.00  0.00     0.142 A 
HETATM    4  C   UNL     1      44.477 -10.435   7.342  1.00  0.00     0.062 A 
HETATM    5  C   UNL     1      45.226  -9.416   8.003  1.00  0.00     0.101 C 
HETATM    6  N   UNL     1      45.841  -8.589   8.537  1.00  0.00    -0.191 NA
HETATM    7  C   UNL     1      43.161 -10.223   6.931  1.00  0.00     0.028 A 
HETATM    8  C   UNL     1      42.472 -11.249   6.284  1.00  0.00     0.059 A 
ENDROOT
BRANCH   1   9
HETATM    9  O   UNL     1      42.419 -13.443   5.419  1.00  0.00    -0.329 OA
BRANCH   9  10
HETATM   10  C   UNL     1      41.739 -12.969   4.246  1.00  0.00     0.130 C 
HETATM   11  C   UNL     1      42.713 -13.127   3.068  1.00  0.00     0.034 C 
HETATM   12  C   UNL     1      43.002 -14.592   2.729  1.00  0.00     0.035 C 
HETATM   13  C   UNL     1      41.705 -15.365   2.479  1.00  0.00     0.186 C 
HETATM   14  C   UNL     1      40.764 -15.258   3.677  1.00  0.00     0.035 C 
HETATM   15  C   UNL     1      40.464 -13.791   3.997  1.00  0.00     0.034 C 
BRANCH  13  16
HETATM   16  N   UNL     1      42.052 -16.793   2.197  1.00  0.00    -0.067 N 
HETATM   17  H   UNL     1      41.794 -17.058   1.238  1.00  0.00     0.277 HD
HETATM   18  H   UNL     1      41.480 -17.390   2.814  1.00  0.00     0.277 HD
BRANCH  16  19
HETATM   19  C   UNL     1      43.474 -17.187   2.445  1.00  0.00     0.274 C 
BRANCH  19  20
HETATM   20  C   UNL     1      43.591 -18.304   3.433  1.00  0.00     0.004 A 
HETATM   21  C   UNL     1      43.468 -18.069   4.794  1.00  0.00     0.113 A 
HETATM   22  C   UNL     1      43.621 -19.065   5.730  1.00  0.00     0.105 A 
HETATM   23  O   UNL     1      43.173 -16.865   5.364  1.00  0.00    -0.322 OA
HETATM   24  C   UNL     1      43.899 -20.363   5.365  1.00  0.00     0.040 A 
HETATM   25  O   UNL     1      43.465 -18.612   7.000  1.00  0.00    -0.323 OA
HETATM   26  C   UNL     1      44.026 -20.641   4.003  1.00  0.00     0.003 A 
HETATM   27  C   UNL     1      43.878 -19.622   3.042  1.00  0.00     0.012 A 
HETATM   28  C   UNL     1      43.259 -17.206   6.774  1.00  0.00     0.352 A 
ENDBRANCH  19  20
ENDBRANCH  16  19
ENDBRANCH  13  16
ENDBRANCH   9  10
ENDBRANCH   1   9
TORSDOF 5
ENDMDL
MODEL 2
REMARK VINA RESULT:      -8.0      2.849      8.554
REMARK  5 active torsions:
REMARK  status: ('A' for Active; 'I' for Inactive)
REMARK    1  A    between atoms: C_8  and  C_9 
REMARK    2  A    between atoms: C_9  and  N_10 
REMARK    3  A    between atoms: N_10  and  C_13 
REMARK    4  A    between atoms: C_16  and  O_17 
REMARK    5  A    between atoms: O_17  and  C_18 
ROOT
HETATM    1  C   UNL     1      43.212 -16.239   4.098  1.00  0.00     0.164 A 
HETATM    2  N   UNL     1      43.852 -17.202   4.793  1.00  0.00    -0.236 NA
HETATM    3  C   UNL     1      44.007 -18.401   4.177  1.00  0.00     0.142 A 
HETATM    4  C   UNL     1      43.542 -18.680   2.900  1.00  0.00     0.062 A 
HETATM    5  C   UNL     1      43.745 -19.968   2.320  1.00  0.00     0.101 C 
HETATM    6  N   UNL     1      43.907 -21.018   1.854  1.00  0.00    -0.191 NA
HETATM    7  C   UNL     1      42.874 -17.667   2.214  1.00  0.00     0.028 A 
HETATM    8  C   UNL     1      42.697 -16.426   2.826  1.00  0.00     0.059 A 
ENDROOT
BRANCH   1   9
HETATM    9  O   UNL     1      42.996 -15.007   4.687  1.00  0.00    -0.329 OA
BRANCH   9  10
HETATM   10  C   UNL     1      42.264 -14.093   3.855  1.00  0.00     0.130 C 
HETATM   11  C   UNL     1      40.923 -13.824   4.557  1.00  0.00     0.034 C 
HETATM   12  C   UNL     1      41.085 -13.043   5.864  1.00  0.00     0.035 C 
HETATM   13  C   UNL     1      41.859 -11.743   5.636  1.00  0.00     0.186 C 
HETATM   14  C   UNL     1      43.217 -12.020   4.996  1.00  0.00     0.035 C 
HETATM   15  C   UNL     1      43.047 -12.783   3.680  1.00  0.00     0.034 C 
BRANCH  13  16
HETATM   16  N   UNL     1      42.019 -11.051   6.954  1.00  0.00    -0.067 N 
HETATM   17  H   UNL     1      42.006 -11.722   7.733  1.00  0.00     0.277 HD
HETATM   18  H   UNL     1      41.199 -10.442   7.098  1.00  0.00     0.277 HD
BRANCH  16  19
HETATM   19  C   UNL     1      43.218 -10.167   7.092  1.00  0.00     0.274 C 
BRANCH  19  20
HETATM   20  C   UNL     1      43.562  -9.894   8.523  1.00  0.00     0.004 A 
HETATM   21  C   UNL     1      42.596  -9.461   9.419  1.00  0.00     0.113 A 
HETATM   22  C   UNL     1      42.890  -9.152  10.726  1.00  0.00     0.105 A 
HETATM   23  O   UNL     1      41.271  -9.304   9.136  1.00  0.00    -0.322 OA
HETATM   24  C   UNL     1      44.167  -9.265  11.225  1.00  0.00     0.040 A 
HETATM   25  O   UNL     1      41.798  -8.744  11.421  1.00  0.00    -0.323 OA
HETATM   26  C   UNL     1      45.168  -9.703  10.355  1.00  0.00     0.003 A 
HETATM   27  C   UNL     1      44.872 -10.012   9.014  1.00  0.00     0.012 A 
HETATM   28  C   UNL     1      40.788  -8.765  10.396  1.00  0.00     0.352 A 
ENDBRANCH  19  20
ENDBRANCH  16  19
ENDBRANCH  13  16
ENDBRANCH   9  10
ENDBRANCH   1   9
TORSDOF 5
ENDMDL
MODEL 3
REMARK VINA RESULT:      -7.8      1.751      2.458
REMARK  5 active torsions:
REMARK  status: ('A' for Active; 'I' for Inactive)
REMARK    1  A    between atoms: C_8  and  C_9 
REMARK    2  A    between atoms: C_9  and  N_10 
REMARK    3  A    between atoms: N_10  and  C_13 
REMARK    4  A    between atoms: C_16  and  O_17 
REMARK    5  A    between atoms: O_17  and  C_18 
ROOT
HETATM    1  C   UNL     1      43.601 -11.359   5.867  1.00  0.00     0.164 A 
HETATM    2  N   UNL     1      42.823 -10.543   6.608  1.00  0.00    -0.236 NA
HETATM    3  C   UNL     1      43.358 -10.067   7.760  1.00  0.00     0.142 A 
HETATM    4  C   UNL     1      44.633 -10.379   8.207  1.00  0.00     0.062 A 
HETATM    5  C   UNL     1      45.125  -9.837   9.433  1.00  0.00     0.101 C 
HETATM    6  N   UNL     1      45.519  -9.399  10.432  1.00  0.00    -0.191 NA
HETATM    7  C   UNL     1      45.407 -11.235   7.425  1.00  0.00     0.028 A 
HETATM    8  C   UNL     1      44.880 -11.742   6.237  1.00  0.00     0.059 A 
ENDROOT
BRANCH   1   9
HETATM    9  O   UNL     1      43.098 -11.900   4.699  1.00  0.00    -0.329 OA
BRANCH   9  10
HETATM   10  C   UNL     1      41.703 -12.231   4.772  1.00  0.00     0.130 C 
HETATM   11  C   UNL     1      41.271 -12.672   3.364  1.00  0.00     0.034 C 
HETATM   12  C   UNL     1      41.915 -13.993   2.934  1.00  0.00     0.035 C 
HETATM   13  C   UNL     1      41.650 -15.095   3.963  1.00  0.00     0.186 C 
HETATM   14  C   UNL     1      42.136 -14.678   5.349  1.00  0.00     0.035 C 
HETATM   15  C   UNL     1      41.474 -13.367   5.781  1.00  0.00     0.034 C 
BRANCH  13  16
HETATM   16  N   UNL     1      42.337 -16.343   3.507  1.00  0.00    -0.067 N 
HETATM   17  H   UNL     1      42.484 -16.339   2.490  1.00  0.00     0.277 HD
HETATM   18  H   UNL     1      41.711 -17.141   3.694  1.00  0.00     0.277 HD
BRANCH  16  19
HETATM   19  C   UNL     1      43.631 -16.668   4.185  1.00  0.00     0.274 C 
BRANCH  19  20
HETATM   20  C   UNL     1      43.725 -18.110   4.571  1.00  0.00     0.004 A 
HETATM   21  C   UNL     1      43.791 -19.105   3.607  1.00  0.00     0.113 A 
HETATM   22  C   UNL     1      43.826 -20.441   3.929  1.00  0.00     0.105 A 
HETATM   23  O   UNL     1      43.846 -18.896   2.260  1.00  0.00    -0.322 OA
HETATM   24  C   UNL     1      43.805 -20.870   5.237  1.00  0.00     0.040 A 
HETATM   25  O   UNL     1      43.884 -21.238   2.832  1.00  0.00    -0.323 OA
HETATM   26  C   UNL     1      43.742 -19.898   6.237  1.00  0.00     0.003 A 
HETATM   27  C   UNL     1      43.698 -18.529   5.911  1.00  0.00     0.012 A 
HETATM   28  C   UNL     1      43.819 -20.265   1.773  1.00  0.00     0.352 A 
ENDBRANCH  19  20
ENDBRANCH  16  19
ENDBRANCH  13  16
ENDBRANCH   9  10
ENDBRANCH   1   9
TORSDOF 5
ENDMDL
MODEL 4
REMARK VINA RESULT:      -7.8      2.254      8.028
REMARK  5 active torsions:
REMARK  status: ('A' for Active; 'I' for Inactive)
REMARK    1  A    between atoms: C_8  and  C_9 
REMARK    2  A    between atoms: C_9  and  N_10 
REMARK    3  A    between atoms: N_10  and  C_13 
REMARK    4  A    between atoms: C_16  and  O_17 
REMARK    5  A    between atoms: O_17  and  C_18 
ROOT
HETATM    1  C   UNL     1      43.169 -15.753   3.516  1.00  0.00     0.164 A 
HETATM    2  N   UNL     1      43.545 -16.587   4.508  1.00  0.00    -0.236 NA
HETATM    3  C   UNL     1      43.714 -17.892   4.179  1.00  0.00     0.142 A 
HETATM    4  C   UNL     1      43.516 -18.401   2.904  1.00  0.00     0.062 A 
HETATM    5  C   UNL     1      43.715 -19.789   2.638  1.00  0.00     0.101 C 
HETATM    6  N   UNL     1      43.873 -20.919   2.427  1.00  0.00    -0.191 NA
HETATM    7  C   UNL     1      43.115 -17.515   1.904  1.00  0.00     0.028 A 
HETATM    8  C   UNL     1      42.930 -16.168   2.216  1.00  0.00     0.059 A 
ENDROOT
BRANCH   1   9
HETATM    9  O   UNL     1      42.950 -14.418   3.798  1.00  0.00    -0.329 OA
BRANCH   9  10
HETATM   10  C   UNL     1      41.633 -13.965   3.447  1.00  0.00     0.130 C 
HETATM   11  C   UNL     1      40.704 -14.343   4.612  1.00  0.00     0.034 C 
HETATM   12  C   UNL     1      41.008 -13.557   5.891  1.00  0.00     0.035 C 
HETATM   13  C   UNL     1      40.980 -12.049   5.629  1.00  0.00     0.186 C 
HETATM   14  C   UNL     1      41.950 -11.669   4.513  1.00  0.00     0.035 C 
HETATM   15  C   UNL     1      41.628 -12.444   3.233  1.00  0.00     0.034 C 
BRANCH  13  16
HETATM   16  N   UNL     1      41.325 -11.342   6.902  1.00  0.00    -0.067 N 
HETATM   17  H   UNL     1      41.974 -11.898   7.475  1.00  0.00     0.277 HD
HETATM   18  H   UNL     1      40.464 -11.255   7.464  1.00  0.00     0.277 HD
BRANCH  16  19
HETATM   19  C   UNL     1      41.867  -9.955   6.760  1.00  0.00     0.274 C 
BRANCH  19  20
HETATM   20  C   UNL     1      43.042  -9.708   7.652  1.00  0.00     0.004 A 
HETATM   21  C   UNL     1      44.280 -10.266   7.373  1.00  0.00     0.113 A 
HETATM   22  C   UNL     1      45.366 -10.101   8.199  1.00  0.00     0.105 A 
HETATM   23  O   UNL     1      44.579 -11.012   6.270  1.00  0.00    -0.322 OA
HETATM   24  C   UNL     1      45.287  -9.360   9.357  1.00  0.00     0.040 A 
HETATM   25  O   UNL     1      46.472 -10.737   7.737  1.00  0.00    -0.323 OA
HETATM   26  C   UNL     1      44.057  -8.778   9.672  1.00  0.00     0.003 A 
HETATM   27  C   UNL     1      42.941  -8.952   8.831  1.00  0.00     0.012 A 
HETATM   28  C   UNL     1      45.956 -11.378   6.557  1.00  0.00     0.352 A 
ENDBRANCH  19  20
ENDBRANCH  16  19
ENDBRANCH  13  16
ENDBRANCH   9  10
ENDBRANCH   1   9
TORSDOF 5
ENDMDL
MODEL 5
REMARK VINA RESULT:      -7.7      4.206      8.148
REMARK  5 active torsions:
REMARK  status: ('A' for Active; 'I' for Inactive)
REMARK    1  A    between atoms: C_8  and  C_9 
REMARK    2  A    between atoms: C_9  and  N_10 
REMARK    3  A    between atoms: N_10  and  C_13 
REMARK    4  A    between atoms: C_16  and  O_17 
REMARK    5  A    between atoms: O_17  and  C_18 
ROOT
HETATM    1  C   UNL     1      43.299 -16.073   3.604  1.00  0.00     0.164 A 
HETATM    2  N   UNL     1      43.731 -16.804   4.652  1.00  0.00    -0.236 NA
HETATM    3  C   UNL     1      43.900 -18.134   4.442  1.00  0.00     0.142 A 
HETATM    4  C   UNL     1      43.646 -18.764   3.233  1.00  0.00     0.062 A 
HETATM    5  C   UNL     1      43.847 -20.170   3.092  1.00  0.00     0.101 C 
HETATM    6  N   UNL     1      44.008 -21.314   2.982  1.00  0.00    -0.191 NA
HETATM    7  C   UNL     1      43.187 -17.982   2.173  1.00  0.00     0.028 A 
HETATM    8  C   UNL     1      43.002 -16.613   2.363  1.00  0.00     0.059 A 
ENDROOT
BRANCH   1   9
HETATM    9  O   UNL     1      43.079 -14.718   3.767  1.00  0.00    -0.329 OA
BRANCH   9  10
HETATM   10  C   UNL     1      42.098 -14.412   4.770  1.00  0.00     0.130 C 
HETATM   11  C   UNL     1      42.063 -12.881   4.911  1.00  0.00     0.034 C 
HETATM   12  C   UNL     1      41.509 -12.184   3.666  1.00  0.00     0.035 C 
HETATM   13  C   UNL     1      40.130 -12.735   3.295  1.00  0.00     0.186 C 
HETATM   14  C   UNL     1      40.181 -14.248   3.094  1.00  0.00     0.035 C 
HETATM   15  C   UNL     1      40.718 -14.940   4.350  1.00  0.00     0.034 C 
BRANCH  13  16
HETATM   16  N   UNL     1      39.665 -12.046   2.051  1.00  0.00    -0.067 N 
HETATM   17  H   UNL     1      39.537 -11.038   2.207  1.00  0.00     0.277 HD
HETATM   18  H   UNL     1      38.730 -12.410   1.813  1.00  0.00     0.277 HD
BRANCH  16  19
HETATM   19  C   UNL     1      40.508 -12.247   0.831  1.00  0.00     0.274 C 
BRANCH  19  20
HETATM   20  C   UNL     1      39.733 -12.839  -0.304  1.00  0.00     0.004 A 
HETATM   21  C   UNL     1      38.709 -12.132  -0.915  1.00  0.00     0.113 A 
HETATM   22  C   UNL     1      37.945 -12.667  -1.925  1.00  0.00     0.105 A 
HETATM   23  O   UNL     1      38.346 -10.852  -0.616  1.00  0.00    -0.322 OA
HETATM   24  C   UNL     1      38.162 -13.942  -2.397  1.00  0.00     0.040 A 
HETATM   25  O   UNL     1      36.997 -11.805  -2.372  1.00  0.00    -0.323 OA
HETATM   26  C   UNL     1      39.188 -14.686  -1.810  1.00  0.00     0.003 A 
HETATM   27  C   UNL     1      39.967 -14.143  -0.770  1.00  0.00     0.012 A 
HETATM   28  C   UNL     1      37.198 -10.685  -1.493  1.00  0.00     0.352 A 
ENDBRANCH  19  20
ENDBRANCH  16  19
ENDBRANCH  13  16
ENDBRANCH   9  10
ENDBRANCH   1   9
TORSDOF 5
ENDMDL
MODEL 6
REMARK VINA RESULT:      -7.5     15.276     18.279
REMARK  5 active torsions:
REMARK  status: ('A' for Active; 'I' for Inactive)
REMARK    1  A    between atoms: C_8  and  C_9 
REMARK    2  A    between atoms: C_9  and  N_10 
REMARK    3  A    between atoms: N_10  and  C_13 
REMARK    4  A    between atoms: C_16  and  O_17 
REMARK    5  A    between atoms: O_17  and  C_18 
ROOT
HETATM    1  C   UNL     1      45.171 -30.673  -3.911  1.00  0.00     0.164 A 
HETATM    2  N   UNL     1      46.201 -31.378  -4.422  1.00  0.00    -0.236 NA
HETATM    3  C   UNL     1      46.107 -31.740  -5.727  1.00  0.00     0.142 A 
HETATM    4  C   UNL     1      45.025 -31.433  -6.538  1.00  0.00     0.062 A 
HETATM    5  C   UNL     1      45.001 -31.851  -7.903  1.00  0.00     0.101 C 
HETATM    6  N   UNL     1      44.983 -32.196  -9.011  1.00  0.00    -0.191 NA
HETATM    7  C   UNL     1      43.971 -30.714  -5.976  1.00  0.00     0.028 A 
HETATM    8  C   UNL     1      44.040 -30.334  -4.636  1.00  0.00     0.059 A 
ENDROOT
BRANCH   1   9
HETATM    9  O   UNL     1      45.195 -30.304  -2.579  1.00  0.00    -0.329 OA
BRANCH   9  10
HETATM   10  C   UNL     1      44.647 -28.999  -2.334  1.00  0.00     0.130 C 
HETATM   11  C   UNL     1      44.256 -28.949  -0.848  1.00  0.00     0.034 C 
HETATM   12  C   UNL     1      45.469 -28.992   0.086  1.00  0.00     0.035 C 
HETATM   13  C   UNL     1      46.469 -27.887  -0.260  1.00  0.00     0.186 C 
HETATM   14  C   UNL     1      46.903 -27.977  -1.720  1.00  0.00     0.035 C 
HETATM   15  C   UNL     1      45.687 -27.913  -2.648  1.00  0.00     0.034 C 
BRANCH  13  16
HETATM   16  N   UNL     1      47.645 -28.010   0.657  1.00  0.00    -0.067 N 
HETATM   17  H   UNL     1      48.074 -27.094   0.842  1.00  0.00     0.277 HD
HETATM   18  H   UNL     1      48.370 -28.564   0.176  1.00  0.00     0.277 HD
BRANCH  16  19
HETATM   19  C   UNL     1      47.396 -28.702   1.960  1.00  0.00     0.274 C 
BRANCH  19  20
HETATM   20  C   UNL     1      48.623 -29.371   2.494  1.00  0.00     0.004 A 
HETATM   21  C   UNL     1      49.456 -30.104   1.661  1.00  0.00     0.113 A 
HETATM   22  C   UNL     1      50.562 -30.773   2.129  1.00  0.00     0.105 A 
HETATM   23  O   UNL     1      49.302 -30.240   0.312  1.00  0.00    -0.322 OA
HETATM   24  C   UNL     1      50.913 -30.746   3.460  1.00  0.00     0.040 A 
HETATM   25  O   UNL     1      51.227 -31.428   1.144  1.00  0.00    -0.323 OA
HETATM   26  C   UNL     1      50.102 -30.015   4.330  1.00  0.00     0.003 A 
HETATM   27  C   UNL     1      48.964 -29.335   3.855  1.00  0.00     0.012 A 
HETATM   28  C   UNL     1      50.388 -31.156   0.008  1.00  0.00     0.352 A 
ENDBRANCH  19  20
ENDBRANCH  16  19
ENDBRANCH  13  16
ENDBRANCH   9  10
ENDBRANCH   1   9
TORSDOF 5
ENDMDL
MODEL 7
REMARK VINA RESULT:      -7.3      4.683      5.893
REMARK  5 active torsions:
REMARK  status: ('A' for Active; 'I' for Inactive)
REMARK    1  A    between atoms: C_8  and  C_9 
REMARK    2  A    between atoms: C_9  and  N_10 
REMARK    3  A    between atoms: N_10  and  C_13 
REMARK    4  A    between atoms: C_16  and  O_17 
REMARK    5  A    between atoms: O_17  and  C_18 
ROOT
HETATM    1  C   UNL     1      41.220 -10.773  -0.737  1.00  0.00     0.164 A 
HETATM    2  N   UNL     1      41.945  -9.780  -0.181  1.00  0.00    -0.236 NA
HETATM    3  C   UNL     1      42.055  -8.631  -0.895  1.00  0.00     0.142 A 
HETATM    4  C   UNL     1      41.480  -8.436  -2.142  1.00  0.00     0.062 A 
HETATM    5  C   UNL     1      41.643  -7.197  -2.830  1.00  0.00     0.101 C 
HETATM    6  N   UNL     1      41.782  -6.189  -3.388  1.00  0.00    -0.191 NA
HETATM    7  C   UNL     1      40.749  -9.487  -2.693  1.00  0.00     0.028 A 
HETATM    8  C   UNL     1      40.622 -10.681  -1.983  1.00  0.00     0.059 A 
ENDROOT
BRANCH   1   9
HETATM    9  O   UNL     1      41.099 -11.979  -0.071  1.00  0.00    -0.329 OA
BRANCH   9  10
HETATM   10  C   UNL     1      39.740 -12.420   0.076  1.00  0.00     0.130 C 
HETATM   11  C   UNL     1      39.671 -13.852  -0.479  1.00  0.00     0.034 C 
HETATM   12  C   UNL     1      40.452 -14.856   0.373  1.00  0.00     0.035 C 
HETATM   13  C   UNL     1      39.998 -14.808   1.833  1.00  0.00     0.186 C 
HETATM   14  C   UNL     1      40.128 -13.397   2.401  1.00  0.00     0.035 C 
HETATM   15  C   UNL     1      39.329 -12.402   1.556  1.00  0.00     0.034 C 
BRANCH  13  16
HETATM   16  N   UNL     1      40.825 -15.778   2.617  1.00  0.00    -0.067 N 
HETATM   17  H   UNL     1      40.267 -16.586   2.922  1.00  0.00     0.277 HD
HETATM   18  H   UNL     1      41.134 -15.311   3.483  1.00  0.00     0.277 HD
BRANCH  16  19
HETATM   19  C   UNL     1      42.071 -16.272   1.950  1.00  0.00     0.274 C 
BRANCH  19  20
HETATM   20  C   UNL     1      42.818 -17.255   2.796  1.00  0.00     0.004 A 
HETATM   21  C   UNL     1      43.252 -16.918   4.068  1.00  0.00     0.113 A 
HETATM   22  C   UNL     1      43.985 -17.780   4.849  1.00  0.00     0.105 A 
HETATM   23  O   UNL     1      43.006 -15.733   4.698  1.00  0.00    -0.322 OA
HETATM   24  C   UNL     1      44.323 -19.041   4.411  1.00  0.00     0.040 A 
HETATM   25  O   UNL     1      44.309 -17.243   6.053  1.00  0.00    -0.323 OA
HETATM   26  C   UNL     1      43.900 -19.420   3.136  1.00  0.00     0.003 A 
HETATM   27  C   UNL     1      43.157 -18.536   2.331  1.00  0.00     0.012 A 
HETATM   28  C   UNL     1      43.757 -15.920   5.929  1.00  0.00     0.352 A 
ENDBRANCH  19  20
ENDBRANCH  16  19
ENDBRANCH  13  16
ENDBRANCH   9  10
ENDBRANCH   1   9
TORSDOF 5
ENDMDL
MODEL 8
REMARK VINA RESULT:      -7.3      3.005      5.769
REMARK  5 active torsions:
REMARK  status: ('A' for Active; 'I' for Inactive)
REMARK    1  A    between atoms: C_8  and  C_9 
REMARK    2  A    between atoms: C_9  and  N_10 
REMARK    3  A    between atoms: N_10  and  C_13 
REMARK    4  A    between atoms: C_16  and  O_17 
REMARK    5  A    between atoms: O_17  and  C_18 
ROOT
HETATM    1  C   UNL     1      39.959 -13.820   2.101  1.00  0.00     0.164 A 
HETATM    2  N   UNL     1      39.339 -12.658   1.811  1.00  0.00    -0.236 NA
HETATM    3  C   UNL     1      39.223 -12.338   0.498  1.00  0.00     0.142 A 
HETATM    4  C   UNL     1      39.708 -13.125  -0.536  1.00  0.00     0.062 A 
HETATM    5  C   UNL     1      39.546 -12.718  -1.895  1.00  0.00     0.101 C 
HETATM    6  N   UNL     1      39.417 -12.381  -2.997  1.00  0.00    -0.191 NA
HETATM    7  C   UNL     1      40.355 -14.314  -0.202  1.00  0.00     0.028 A 
HETATM    8  C   UNL     1      40.491 -14.665   1.141  1.00  0.00     0.059 A 
ENDROOT
BRANCH   1   9
HETATM    9  O   UNL     1      40.135 -14.185   3.423  1.00  0.00    -0.329 OA
BRANCH   9  10
HETATM   10  C   UNL     1      40.582 -13.107   4.261  1.00  0.00     0.130 C 
HETATM   11  C   UNL     1      40.271 -13.509   5.712  1.00  0.00     0.034 C 
HETATM   12  C   UNL     1      41.115 -14.692   6.194  1.00  0.00     0.035 C 
HETATM   13  C   UNL     1      42.609 -14.414   6.006  1.00  0.00     0.186 C 
HETATM   14  C   UNL     1      42.925 -14.077   4.551  1.00  0.00     0.035 C 
HETATM   15  C   UNL     1      42.092 -12.881   4.083  1.00  0.00     0.034 C 
BRANCH  13  16
HETATM   16  N   UNL     1      43.373 -15.620   6.455  1.00  0.00    -0.067 N 
HETATM   17  H   UNL     1      43.890 -15.434   7.324  1.00  0.00     0.277 HD
HETATM   18  H   UNL     1      44.091 -15.827   5.744  1.00  0.00     0.277 HD
BRANCH  16  19
HETATM   19  C   UNL     1      42.581 -16.879   6.619  1.00  0.00     0.274 C 
BRANCH  19  20
HETATM   20  C   UNL     1      43.177 -18.028   5.867  1.00  0.00     0.004 A 
HETATM   21  C   UNL     1      43.385 -17.954   4.499  1.00  0.00     0.113 A 
HETATM   22  C   UNL     1      43.882 -19.010   3.771  1.00  0.00     0.105 A 
HETATM   23  O   UNL     1      43.148 -16.858   3.722  1.00  0.00    -0.322 OA
HETATM   24  C   UNL     1      44.211 -20.206   4.367  1.00  0.00     0.040 A 
HETATM   25  O   UNL     1      43.999 -18.721   2.450  1.00  0.00    -0.323 OA
HETATM   26  C   UNL     1      44.020 -20.319   5.746  1.00  0.00     0.003 A 
HETATM   27  C   UNL     1      43.504 -19.242   6.492  1.00  0.00     0.012 A 
HETATM   28  C   UNL     1      43.462 -17.387   2.405  1.00  0.00     0.352 A 
ENDBRANCH  19  20
ENDBRANCH  16  19
ENDBRANCH  13  16
ENDBRANCH   9  10
ENDBRANCH   1   9
TORSDOF 5
ENDMDL
MODEL 9
REMARK VINA RESULT:      -7.3      3.990      6.426
REMARK  5 active torsions:
REMARK  status: ('A' for Active; 'I' for Inactive)
REMARK    1  A    between atoms: C_8  and  C_9 
REMARK    2  A    between atoms: C_9  and  N_10 
REMARK    3  A    between atoms: N_10  and  C_13 
REMARK    4  A    between atoms: C_16  and  O_17 
REMARK    5  A    between atoms: O_17  and  C_18 
ROOT
HETATM    1  C   UNL     1      42.733 -13.364   5.521  1.00  0.00     0.164 A 
HETATM    2  N   UNL     1      43.085 -12.272   4.812  1.00  0.00    -0.236 NA
HETATM    3  C   UNL     1      44.034 -11.469   5.356  1.00  0.00     0.142 A 
HETATM    4  C   UNL     1      44.638 -11.707   6.582  1.00  0.00     0.062 A 
HETATM    5  C   UNL     1      45.630 -10.813   7.087  1.00  0.00     0.101 C 
HETATM    6  N   UNL     1      46.432 -10.082   7.496  1.00  0.00    -0.191 NA
HETATM    7  C   UNL     1      44.243 -12.838   7.295  1.00  0.00     0.028 A 
HETATM    8  C   UNL     1      43.266 -13.678   6.761  1.00  0.00     0.059 A 
ENDROOT
BRANCH   1   9
HETATM    9  O   UNL     1      41.748 -14.202   5.033  1.00  0.00    -0.329 OA
BRANCH   9  10
HETATM   10  C   UNL     1      42.230 -15.506   4.671  1.00  0.00     0.130 C 
HETATM   11  C   UNL     1      40.996 -16.397   4.454  1.00  0.00     0.034 C 
HETATM   12  C   UNL     1      40.174 -15.983   3.231  1.00  0.00     0.035 C 
HETATM   13  C   UNL     1      41.046 -15.933   1.974  1.00  0.00     0.186 C 
HETATM   14  C   UNL     1      42.237 -14.999   2.170  1.00  0.00     0.035 C 
HETATM   15  C   UNL     1      43.065 -15.430   3.384  1.00  0.00     0.034 C 
BRANCH  13  16
HETATM   16  N   UNL     1      40.196 -15.484   0.827  1.00  0.00    -0.067 N 
HETATM   17  H   UNL     1      39.359 -16.072   0.729  1.00  0.00     0.277 HD
HETATM   18  H   UNL     1      40.734 -15.618  -0.043  1.00  0.00     0.277 HD
BRANCH  16  19
HETATM   19  C   UNL     1      39.783 -14.045   0.837  1.00  0.00     0.274 C 
BRANCH  19  20
HETATM   20  C   UNL     1      40.062 -13.364  -0.466  1.00  0.00     0.004 A 
HETATM   21  C   UNL     1      39.499 -13.824  -1.647  1.00  0.00     0.113 A 
HETATM   22  C   UNL     1      39.776 -13.253  -2.866  1.00  0.00     0.105 A 
HETATM   23  O   UNL     1      38.614 -14.857  -1.749  1.00  0.00    -0.322 OA
HETATM   24  C   UNL     1      40.628 -12.178  -2.984  1.00  0.00     0.040 A 
HETATM   25  O   UNL     1      39.122 -13.864  -3.887  1.00  0.00    -0.323 OA
HETATM   26  C   UNL     1      41.213 -11.683  -1.816  1.00  0.00     0.003 A 
HETATM   27  C   UNL     1      40.937 -12.271  -0.567  1.00  0.00     0.012 A 
HETATM   28  C   UNL     1      38.447 -14.928  -3.192  1.00  0.00     0.352 A 
ENDBRANCH  19  20
ENDBRANCH  16  19
ENDBRANCH  13  16
ENDBRANCH   9  10
ENDBRANCH   1   9
TORSDOF 5
ENDMDL
MODEL 10
REMARK VINA RESULT:      -7.2     15.301     17.966
REMARK  5 active torsions:
REMARK  status: ('A' for Active; 'I' for Inactive)
REMARK    1  A    between atoms: C_8  and  C_9 
REMARK    2  A    between atoms: C_9  and  N_10 
REMARK    3  A    between atoms: N_10  and  C_13 
REMARK    4  A    between atoms: C_16  and  O_17 
REMARK    5  A    between atoms: O_17  and  C_18 
ROOT
HETATM    1  C   UNL     1      45.283 -30.454  -3.577  1.00  0.00     0.164 A 
HETATM    2  N   UNL     1      46.163 -31.207  -4.269  1.00  0.00    -0.236 NA
HETATM    3  C   UNL     1      45.859 -31.466  -5.566  1.00  0.00     0.142 A 
HETATM    4  C   UNL     1      44.710 -31.012  -6.196  1.00  0.00     0.062 A 
HETATM    5  C   UNL     1      44.461 -31.328  -7.566  1.00  0.00     0.101 C 
HETATM    6  N   UNL     1      44.260 -31.591  -8.678  1.00  0.00    -0.191 NA
HETATM    7  C   UNL     1      43.815 -30.247  -5.449  1.00  0.00     0.028 A 
HETATM    8  C   UNL     1      44.101 -29.970  -4.112  1.00  0.00     0.059 A 
ENDROOT
BRANCH   1   9
HETATM    9  O   UNL     1      45.524 -30.184  -2.242  1.00  0.00    -0.329 OA
BRANCH   9  10
HETATM   10  C   UNL     1      45.122 -28.865  -1.842  1.00  0.00     0.130 C 
HETATM   11  C   UNL     1      44.738 -28.945  -0.355  1.00  0.00     0.034 C 
HETATM   12  C   UNL     1      45.939 -29.228   0.552  1.00  0.00     0.035 C 
HETATM   13  C   UNL     1      47.054 -28.206   0.324  1.00  0.00     0.186 C 
HETATM   14  C   UNL     1      47.476 -28.173  -1.143  1.00  0.00     0.035 C 
HETATM   15  C   UNL     1      46.275 -27.870  -2.042  1.00  0.00     0.034 C 
BRANCH  13  16
HETATM   16  N   UNL     1      48.209 -28.562   1.206  1.00  0.00    -0.067 N 
HETATM   17  H   UNL     1      48.998 -27.917   1.068  1.00  0.00     0.277 HD
HETATM   18  H   UNL     1      48.556 -29.490   0.921  1.00  0.00     0.277 HD
BRANCH  16  19
HETATM   19  C   UNL     1      47.914 -28.665   2.669  1.00  0.00     0.274 C 
BRANCH  19  20
HETATM   20  C   UNL     1      48.799 -29.654   3.360  1.00  0.00     0.004 A 
HETATM   21  C   UNL     1      48.293 -30.517   4.319  1.00  0.00     0.113 A 
HETATM   22  C   UNL     1      49.088 -31.402   5.009  1.00  0.00     0.105 A 
HETATM   23  O   UNL     1      46.981 -30.612   4.682  1.00  0.00    -0.322 OA
HETATM   24  C   UNL     1      50.443 -31.486   4.777  1.00  0.00     0.040 A 
HETATM   25  O   UNL     1      48.387 -32.144   5.902  1.00  0.00    -0.323 OA
HETATM   26  C   UNL     1      50.991 -30.635   3.815  1.00  0.00     0.003 A 
HETATM   27  C   UNL     1      50.180 -29.723   3.113  1.00  0.00     0.012 A 
HETATM   28  C   UNL     1      47.067 -31.592   5.752  1.00  0.00     0.352 A 
ENDBRANCH  19  20
ENDBRANCH  16  19
ENDBRANCH  13  16
ENDBRANCH   9  10
ENDBRANCH   1   9
TORSDOF 5
ENDMDL
