MODEL 1
REMARK VINA RESULT:      -8.4      0.000      0.000
REMARK  8 active torsions:
REMARK  status: ('A' for Active; 'I' for Inactive)
REMARK    1  A    between atoms: C_2  and  O_3 
REMARK    2  A    between atoms: O_3  and  C_4 
REMARK    3  A    between atoms: C_4  and  C_5 
REMARK    4  A    between atoms: C_6  and  C_7 
REMARK    5  A    between atoms: C_7  and  N_8 
REMARK    6  A    between atoms: C_12  and  N_13 
REMARK    7  A    between atoms: C_12  and  C_20 
REMARK       I    between atoms: C_20  and  N_21 
REMARK    8  A    between atoms: N_25  and  C_26 
ROOT
HETATM    1  N   UNL     1      41.537 -14.291   5.368  1.00  0.00    -0.066 N 
HETATM    2  H   UNL     1      40.899 -14.428   4.558  1.00  0.00     0.280 HD
HETATM    3  C   UNL     1      42.957 -14.321   4.894  1.00  0.00     0.238 C 
HETATM    4  C   UNL     1      43.240 -15.664   4.216  1.00  0.00     0.077 C 
HETATM    5  C   UNL     1      42.956 -16.868   5.142  1.00  0.00     0.210 C 
HETATM    6  C   UNL     1      41.498 -16.735   5.666  1.00  0.00     0.077 C 
HETATM    7  C   UNL     1      41.230 -15.391   6.341  1.00  0.00     0.238 C 
ENDROOT
BRANCH   1   8
HETATM    8  C   UNL     1      41.112 -12.927   5.914  1.00  0.00     0.294 C 
BRANCH   8   9
HETATM    9  C   UNL     1      41.346 -11.793   4.979  1.00  0.00     0.080 C 
HETATM   10  C   UNL     1      40.678 -11.388   3.820  1.00  0.00     0.085 C 
HETATM   11  C   UNL     1      41.476 -10.354   3.298  1.00  0.00     0.159 C 
HETATM   12  N   UNL     1      42.570 -10.156   4.022  1.00  0.00    -0.178 NA
HETATM   13  N   UNL     1      42.389 -10.877   5.149  1.00  0.00    -0.235 N 
BRANCH  10  14
HETATM   14  C   UNL     1      39.487 -11.969   3.231  1.00  0.00     0.296 C 
HETATM   15  O   UNL     1      38.568 -11.258   2.829  1.00  0.00    -0.259 OA
BRANCH  14  16
HETATM   16  O   UNL     1      39.482 -13.322   3.262  1.00  0.00    -0.318 OA
BRANCH  16  17
HETATM   17  C   UNL     1      39.981 -14.000   2.097  1.00  0.00     0.174 C 
HETATM   18  C   UNL     1      39.965 -15.504   2.312  1.00  0.00     0.034 C 
ENDBRANCH  16  17
ENDBRANCH  14  16
ENDBRANCH  10  14
BRANCH  13  19
HETATM   19  C   UNL     1      43.319 -10.753   6.218  1.00  0.00     0.064 A 
HETATM   20  C   UNL     1      43.017 -10.124   7.442  1.00  0.00    -0.033 A 
HETATM   21  C   UNL     1      41.792  -9.298   7.717  1.00  0.00     0.050 C 
HETATM   22  C   UNL     1      43.989 -10.154   8.463  1.00  0.00     0.009 A 
HETATM   23  C   UNL     1      45.244 -10.725   8.254  1.00  0.00     0.001 A 
HETATM   24  C   UNL     1      45.562 -11.266   7.014  1.00  0.00     0.002 A 
HETATM   25  C   UNL     1      44.609 -11.274   5.997  1.00  0.00     0.032 A 
ENDBRANCH  13  19
ENDBRANCH   8   9
ENDBRANCH   1   8
BRANCH   5  26
HETATM   26  N   UNL     1      43.029 -18.225   4.296  1.00  0.00    -0.053 N 
HETATM   27  H   UNL     1      42.132 -18.713   4.433  1.00  0.00     0.281 HD
HETATM   28  C   UNL     1      43.190 -18.058   2.790  1.00  0.00     0.236 C 
HETATM   29  C   UNL     1      43.027 -19.405   2.096  1.00  0.00     0.028 C 
HETATM   30  C   UNL     1      44.026 -20.430   2.612  1.00  0.00     0.003 C 
HETATM   31  C   UNL     1      43.946 -20.547   4.126  1.00  0.00     0.028 C 
HETATM   32  C   UNL     1      44.110 -19.194   4.807  1.00  0.00     0.236 C 
ENDBRANCH   5  26
BRANCH   5  33
HETATM   33  C   UNL     1      43.935 -16.905   6.353  1.00  0.00     0.252 C 
HETATM   34  N   UNL     1      43.514 -17.434   7.531  1.00  0.00    -0.368 N 
HETATM   35  H   UNL     1      42.617 -17.847   7.753  1.00  0.00     0.159 HD
HETATM   36  H   UNL     1      44.178 -17.411   8.306  1.00  0.00     0.159 HD
HETATM   37  O   UNL     1      45.064 -16.429   6.269  1.00  0.00    -0.271 OA
ENDBRANCH   5  33
TORSDOF 8
ENDMDL
MODEL 2
REMARK VINA RESULT:      -8.0      2.582      7.412
REMARK  8 active torsions:
REMARK  status: ('A' for Active; 'I' for Inactive)
REMARK    1  A    between atoms: C_2  and  O_3 
REMARK    2  A    between atoms: O_3  and  C_4 
REMARK    3  A    between atoms: C_4  and  C_5 
REMARK    4  A    between atoms: C_6  and  C_7 
REMARK    5  A    between atoms: C_7  and  N_8 
REMARK    6  A    between atoms: C_12  and  N_13 
REMARK    7  A    between atoms: C_12  and  C_20 
REMARK       I    between atoms: C_20  and  N_21 
REMARK    8  A    between atoms: N_25  and  C_26 
ROOT
HETATM    1  N   UNL     1      41.311 -15.850   3.266  1.00  0.00    -0.066 N 
HETATM    2  H   UNL     1      41.800 -16.525   2.643  1.00  0.00     0.280 HD
HETATM    3  C   UNL     1      39.904 -15.661   2.788  1.00  0.00     0.238 C 
HETATM    4  C   UNL     1      39.920 -15.139   1.349  1.00  0.00     0.077 C 
HETATM    5  C   UNL     1      40.720 -13.826   1.202  1.00  0.00     0.210 C 
HETATM    6  C   UNL     1      42.140 -14.061   1.790  1.00  0.00     0.077 C 
HETATM    7  C   UNL     1      42.109 -14.581   3.226  1.00  0.00     0.238 C 
ENDROOT
BRANCH   1   8
HETATM    8  C   UNL     1      41.397 -16.523   4.637  1.00  0.00     0.294 C 
BRANCH   8   9
HETATM    9  C   UNL     1      42.694 -16.320   5.337  1.00  0.00     0.080 C 
HETATM   10  C   UNL     1      43.171 -15.271   6.128  1.00  0.00     0.085 C 
HETATM   11  C   UNL     1      44.520 -15.591   6.358  1.00  0.00     0.159 C 
HETATM   12  N   UNL     1      44.882 -16.704   5.733  1.00  0.00    -0.178 NA
HETATM   13  N   UNL     1      43.731 -17.255   5.291  1.00  0.00    -0.235 N 
BRANCH  10  14
HETATM   14  C   UNL     1      42.464 -14.071   6.535  1.00  0.00     0.296 C 
HETATM   15  O   UNL     1      41.240 -14.065   6.650  1.00  0.00    -0.259 OA
BRANCH  14  16
HETATM   16  O   UNL     1      43.275 -12.996   6.679  1.00  0.00    -0.318 OA
BRANCH  16  17
HETATM   17  C   UNL     1      42.871 -11.785   6.020  1.00  0.00     0.174 C 
HETATM   18  C   UNL     1      43.774 -11.501   4.833  1.00  0.00     0.034 C 
ENDBRANCH  16  17
ENDBRANCH  14  16
ENDBRANCH  10  14
BRANCH  13  19
HETATM   19  C   UNL     1      43.754 -18.554   4.712  1.00  0.00     0.064 A 
HETATM   20  C   UNL     1      43.816 -18.784   3.323  1.00  0.00    -0.033 A 
HETATM   21  C   UNL     1      43.626 -17.740   2.259  1.00  0.00     0.050 C 
HETATM   22  C   UNL     1      43.937 -20.115   2.874  1.00  0.00     0.009 A 
HETATM   23  C   UNL     1      43.926 -21.186   3.767  1.00  0.00     0.001 A 
HETATM   24  C   UNL     1      43.778 -20.953   5.128  1.00  0.00     0.002 A 
HETATM   25  C   UNL     1      43.684 -19.644   5.600  1.00  0.00     0.032 A 
ENDBRANCH  13  19
ENDBRANCH   8   9
ENDBRANCH   1   8
BRANCH   5  26
HETATM   26  N   UNL     1      40.906 -13.480  -0.349  1.00  0.00    -0.053 N 
HETATM   27  H   UNL     1      41.832 -13.833  -0.627  1.00  0.00     0.281 HD
HETATM   28  C   UNL     1      39.906 -14.133  -1.297  1.00  0.00     0.236 C 
HETATM   29  C   UNL     1      40.326 -13.896  -2.742  1.00  0.00     0.028 C 
HETATM   30  C   UNL     1      40.447 -12.413  -3.060  1.00  0.00     0.003 C 
HETATM   31  C   UNL     1      41.371 -11.723  -2.069  1.00  0.00     0.028 C 
HETATM   32  C   UNL     1      40.939 -11.966  -0.628  1.00  0.00     0.236 C 
ENDBRANCH   5  26
BRANCH   5  33
HETATM   33  C   UNL     1      40.039 -12.650   1.964  1.00  0.00     0.252 C 
HETATM   34  N   UNL     1      40.807 -11.786   2.677  1.00  0.00    -0.368 N 
HETATM   35  H   UNL     1      41.814 -11.778   2.783  1.00  0.00     0.159 HD
HETATM   36  H   UNL     1      40.317 -11.049   3.185  1.00  0.00     0.159 HD
HETATM   37  O   UNL     1      38.818 -12.517   1.960  1.00  0.00    -0.271 OA
ENDBRANCH   5  33
TORSDOF 8
ENDMDL
MODEL 3
REMARK VINA RESULT:      -7.9      2.121      5.169
REMARK  8 active torsions:
REMARK  status: ('A' for Active; 'I' for Inactive)
REMARK    1  A    between atoms: C_2  and  O_3 
REMARK    2  A    between atoms: O_3  and  C_4 
REMARK    3  A    between atoms: C_4  and  C_5 
REMARK    4  A    between atoms: C_6  and  C_7 
REMARK    5  A    between atoms: C_7  and  N_8 
REMARK    6  A    between atoms: C_12  and  N_13 
REMARK    7  A    between atoms: C_12  and  C_20 
REMARK       I    between atoms: C_20  and  N_21 
REMARK    8  A    between atoms: N_25  and  C_26 
ROOT
HETATM    1  N   UNL     1      43.308 -13.078   3.235  1.00  0.00    -0.066 N 
HETATM    2  H   UNL     1      44.344 -13.161   3.282  1.00  0.00     0.280 HD
HETATM    3  C   UNL     1      42.701 -13.722   4.442  1.00  0.00     0.238 C 
HETATM    4  C   UNL     1      43.114 -15.196   4.495  1.00  0.00     0.077 C 
HETATM    5  C   UNL     1      42.720 -15.969   3.217  1.00  0.00     0.210 C 
HETATM    6  C   UNL     1      43.308 -15.207   1.996  1.00  0.00     0.077 C 
HETATM    7  C   UNL     1      42.887 -13.738   1.955  1.00  0.00     0.238 C 
ENDROOT
BRANCH   1   8
HETATM    8  C   UNL     1      43.087 -11.565   3.182  1.00  0.00     0.294 C 
BRANCH   8   9
HETATM    9  C   UNL     1      42.618 -10.971   4.463  1.00  0.00     0.080 C 
HETATM   10  C   UNL     1      43.251 -10.799   5.698  1.00  0.00     0.085 C 
HETATM   11  C   UNL     1      42.236 -10.333   6.551  1.00  0.00     0.159 C 
HETATM   12  N   UNL     1      41.061 -10.265   5.936  1.00  0.00    -0.178 NA
HETATM   13  N   UNL     1      41.332 -10.448   4.626  1.00  0.00    -0.235 N 
BRANCH  10  14
HETATM   14  C   UNL     1      44.620 -11.124   6.047  1.00  0.00     0.296 C 
HETATM   15  O   UNL     1      45.470 -11.307   5.177  1.00  0.00    -0.259 OA
BRANCH  14  16
HETATM   16  O   UNL     1      44.810 -11.278   7.379  1.00  0.00    -0.318 OA
BRANCH  16  17
HETATM   17  C   UNL     1      45.973 -10.654   7.946  1.00  0.00     0.174 C 
HETATM   18  C   UNL     1      45.689  -9.198   8.271  1.00  0.00     0.034 C 
ENDBRANCH  16  17
ENDBRANCH  14  16
ENDBRANCH  10  14
BRANCH  13  19
HETATM   19  C   UNL     1      40.297 -10.272   3.666  1.00  0.00     0.064 A 
HETATM   20  C   UNL     1      39.360 -11.273   3.341  1.00  0.00    -0.033 A 
HETATM   21  C   UNL     1      39.448 -12.714   3.758  1.00  0.00     0.050 C 
HETATM   22  C   UNL     1      38.319 -10.945   2.449  1.00  0.00     0.009 A 
HETATM   23  C   UNL     1      38.249  -9.690   1.845  1.00  0.00     0.001 A 
HETATM   24  C   UNL     1      39.227  -8.739   2.106  1.00  0.00     0.002 A 
HETATM   25  C   UNL     1      40.252  -9.029   3.006  1.00  0.00     0.032 A 
ENDBRANCH  13  19
ENDBRANCH   8   9
ENDBRANCH   1   8
BRANCH   5  26
HETATM   26  N   UNL     1      43.398 -17.419   3.236  1.00  0.00    -0.053 N 
HETATM   27  H   UNL     1      44.347 -17.312   2.850  1.00  0.00     0.281 HD
HETATM   28  C   UNL     1      43.574 -18.049   4.613  1.00  0.00     0.236 C 
HETATM   29  C   UNL     1      44.418 -19.312   4.504  1.00  0.00     0.028 C 
HETATM   30  C   UNL     1      43.801 -20.323   3.548  1.00  0.00     0.003 C 
HETATM   31  C   UNL     1      43.532 -19.688   2.192  1.00  0.00     0.028 C 
HETATM   32  C   UNL     1      42.687 -18.427   2.316  1.00  0.00     0.236 C 
ENDBRANCH   5  26
BRANCH   5  33
HETATM   33  C   UNL     1      41.173 -16.073   3.061  1.00  0.00     0.252 C 
HETATM   34  N   UNL     1      40.404 -16.247   4.168  1.00  0.00    -0.368 N 
HETATM   35  H   UNL     1      40.696 -16.306   5.136  1.00  0.00     0.159 HD
HETATM   36  H   UNL     1      39.399 -16.340   4.017  1.00  0.00     0.159 HD
HETATM   37  O   UNL     1      40.646 -16.040   1.953  1.00  0.00    -0.271 OA
ENDBRANCH   5  33
TORSDOF 8
ENDMDL
MODEL 4
REMARK VINA RESULT:      -7.6     15.823     18.094
REMARK  8 active torsions:
REMARK  status: ('A' for Active; 'I' for Inactive)
REMARK    1  A    between atoms: C_2  and  O_3 
REMARK    2  A    between atoms: O_3  and  C_4 
REMARK    3  A    between atoms: C_4  and  C_5 
REMARK    4  A    between atoms: C_6  and  C_7 
REMARK    5  A    between atoms: C_7  and  N_8 
REMARK    6  A    between atoms: C_12  and  N_13 
REMARK    7  A    between atoms: C_12  and  C_20 
REMARK       I    between atoms: C_20  and  N_21 
REMARK    8  A    between atoms: N_25  and  C_26 
ROOT
HETATM    1  N   UNL     1      43.774 -29.558   0.986  1.00  0.00    -0.066 N 
HETATM    2  H   UNL     1      44.417 -29.283   1.756  1.00  0.00     0.280 HD
HETATM    3  C   UNL     1      42.376 -29.145   1.332  1.00  0.00     0.238 C 
HETATM    4  C   UNL     1      41.956 -29.818   2.642  1.00  0.00     0.077 C 
HETATM    5  C   UNL     1      42.062 -31.357   2.578  1.00  0.00     0.210 C 
HETATM    6  C   UNL     1      43.507 -31.720   2.134  1.00  0.00     0.077 C 
HETATM    7  C   UNL     1      43.913 -31.043   0.826  1.00  0.00     0.238 C 
ENDROOT
BRANCH   1   8
HETATM    8  C   UNL     1      44.342 -28.810  -0.221  1.00  0.00     0.294 C 
BRANCH   8   9
HETATM    9  C   UNL     1      45.781 -29.079  -0.486  1.00  0.00     0.080 C 
HETATM   10  C   UNL     1      46.924 -28.891   0.297  1.00  0.00     0.085 C 
HETATM   11  C   UNL     1      47.994 -29.177  -0.568  1.00  0.00     0.159 C 
HETATM   12  N   UNL     1      47.578 -29.466  -1.795  1.00  0.00    -0.178 NA
HETATM   13  N   UNL     1      46.240 -29.613  -1.693  1.00  0.00    -0.235 N 
BRANCH  10  14
HETATM   14  C   UNL     1      46.995 -28.410   1.664  1.00  0.00     0.296 C 
HETATM   15  O   UNL     1      47.651 -27.411   1.951  1.00  0.00    -0.259 OA
BRANCH  14  16
HETATM   16  O   UNL     1      46.352 -29.211   2.546  1.00  0.00    -0.318 OA
BRANCH  16  17
HETATM   17  C   UNL     1      47.055 -30.380   2.996  1.00  0.00     0.174 C 
HETATM   18  C   UNL     1      47.877 -30.060   4.233  1.00  0.00     0.034 C 
ENDBRANCH  16  17
ENDBRANCH  14  16
ENDBRANCH  10  14
BRANCH  13  19
HETATM   19  C   UNL     1      45.501 -30.089  -2.812  1.00  0.00     0.064 A 
HETATM   20  C   UNL     1      45.091 -29.265  -3.879  1.00  0.00    -0.033 A 
HETATM   21  C   UNL     1      45.150 -27.763  -3.891  1.00  0.00     0.050 C 
HETATM   22  C   UNL     1      44.453 -29.871  -4.981  1.00  0.00     0.009 A 
HETATM   23  C   UNL     1      44.168 -31.236  -4.993  1.00  0.00     0.001 A 
HETATM   24  C   UNL     1      44.499 -32.023  -3.897  1.00  0.00     0.002 A 
HETATM   25  C   UNL     1      45.155 -31.453  -2.808  1.00  0.00     0.032 A 
ENDBRANCH  13  19
ENDBRANCH   8   9
ENDBRANCH   1   8
BRANCH   5  26
HETATM   26  N   UNL     1      41.853 -31.971   4.042  1.00  0.00    -0.053 N 
HETATM   27  H   UNL     1      41.419 -32.896   3.921  1.00  0.00     0.281 HD
HETATM   28  C   UNL     1      43.126 -32.206   4.848  1.00  0.00     0.236 C 
HETATM   29  C   UNL     1      42.802 -32.985   6.117  1.00  0.00     0.028 C 
HETATM   30  C   UNL     1      41.773 -32.264   6.975  1.00  0.00     0.003 C 
HETATM   31  C   UNL     1      40.528 -31.937   6.164  1.00  0.00     0.028 C 
HETATM   32  C   UNL     1      40.866 -31.158   4.899  1.00  0.00     0.236 C 
ENDBRANCH   5  26
BRANCH   5  33
HETATM   33  C   UNL     1      41.046 -31.963   1.564  1.00  0.00     0.252 C 
HETATM   34  N   UNL     1      41.389 -33.076   0.865  1.00  0.00    -0.368 N 
HETATM   35  H   UNL     1      42.245 -33.614   0.916  1.00  0.00     0.159 HD
HETATM   36  H   UNL     1      40.706 -33.421   0.190  1.00  0.00     0.159 HD
HETATM   37  O   UNL     1      39.960 -31.427   1.361  1.00  0.00    -0.271 OA
ENDBRANCH   5  33
TORSDOF 8
ENDMDL
MODEL 5
REMARK VINA RESULT:      -7.5      4.392      8.358
REMARK  8 active torsions:
REMARK  status: ('A' for Active; 'I' for Inactive)
REMARK    1  A    between atoms: C_2  and  O_3 
REMARK    2  A    between atoms: O_3  and  C_4 
REMARK    3  A    between atoms: C_4  and  C_5 
REMARK    4  A    between atoms: C_6  and  C_7 
REMARK    5  A    between atoms: C_7  and  N_8 
REMARK    6  A    between atoms: C_12  and  N_13 
REMARK    7  A    between atoms: C_12  and  C_20 
REMARK       I    between atoms: C_20  and  N_21 
REMARK    8  A    between atoms: N_25  and  C_26 
ROOT
HETATM    1  N   UNL     1      40.484 -12.064   0.648  1.00  0.00    -0.066 N 
HETATM    2  H   UNL     1      39.797 -11.419   1.088  1.00  0.00     0.280 HD
HETATM    3  C   UNL     1      41.245 -11.334  -0.415  1.00  0.00     0.238 C 
HETATM    4  C   UNL     1      40.268 -10.801  -1.466  1.00  0.00     0.077 C 
HETATM    5  C   UNL     1      39.405 -11.918  -2.094  1.00  0.00     0.210 C 
HETATM    6  C   UNL     1      38.708 -12.691  -0.939  1.00  0.00     0.077 C 
HETATM    7  C   UNL     1      39.695 -13.217   0.102  1.00  0.00     0.238 C 
ENDROOT
BRANCH   1   8
HETATM    8  C   UNL     1      41.358 -12.494   1.828  1.00  0.00     0.294 C 
BRANCH   8   9
HETATM    9  C   UNL     1      40.610 -12.709   3.096  1.00  0.00     0.080 C 
HETATM   10  C   UNL     1      39.670 -11.922   3.770  1.00  0.00     0.085 C 
HETATM   11  C   UNL     1      39.461 -12.591   4.988  1.00  0.00     0.159 C 
HETATM   12  N   UNL     1      40.230 -13.667   5.104  1.00  0.00    -0.178 NA
HETATM   13  N   UNL     1      40.767 -13.856   3.880  1.00  0.00    -0.235 N 
BRANCH  10  14
HETATM   14  C   UNL     1      39.113 -10.650   3.351  1.00  0.00     0.296 C 
HETATM   15  O   UNL     1      39.401  -9.608   3.937  1.00  0.00    -0.259 OA
BRANCH  14  16
HETATM   16  O   UNL     1      38.218 -10.765   2.342  1.00  0.00    -0.318 OA
BRANCH  16  17
HETATM   17  C   UNL     1      37.964  -9.587   1.560  1.00  0.00     0.174 C 
HETATM   18  C   UNL     1      36.742  -9.787   0.681  1.00  0.00     0.034 C 
ENDBRANCH  16  17
ENDBRANCH  14  16
ENDBRANCH  10  14
BRANCH  13  19
HETATM   19  C   UNL     1      41.522 -15.033   3.621  1.00  0.00     0.064 A 
HETATM   20  C   UNL     1      41.150 -16.001   2.667  1.00  0.00    -0.033 A 
HETATM   21  C   UNL     1      39.820 -16.068   1.969  1.00  0.00     0.050 C 
HETATM   22  C   UNL     1      42.033 -17.074   2.427  1.00  0.00     0.009 A 
HETATM   23  C   UNL     1      43.212 -17.220   3.158  1.00  0.00     0.001 A 
HETATM   24  C   UNL     1      43.526 -16.307   4.157  1.00  0.00     0.002 A 
HETATM   25  C   UNL     1      42.683 -15.222   4.394  1.00  0.00     0.032 A 
ENDBRANCH  13  19
ENDBRANCH   8   9
ENDBRANCH   1   8
BRANCH   5  26
HETATM   26  N   UNL     1      38.248 -11.265  -2.986  1.00  0.00    -0.053 N 
HETATM   27  H   UNL     1      38.317 -11.686  -3.923  1.00  0.00     0.281 HD
HETATM   28  C   UNL     1      36.822 -11.524  -2.513  1.00  0.00     0.236 C 
HETATM   29  C   UNL     1      35.829 -11.036  -3.561  1.00  0.00     0.028 C 
HETATM   30  C   UNL     1      36.011  -9.557  -3.867  1.00  0.00     0.003 C 
HETATM   31  C   UNL     1      37.452  -9.260  -4.254  1.00  0.00     0.028 C 
HETATM   32  C   UNL     1      38.434  -9.751  -3.198  1.00  0.00     0.236 C 
ENDBRANCH   5  26
BRANCH   5  33
HETATM   33  C   UNL     1      40.268 -12.911  -2.929  1.00  0.00     0.252 C 
HETATM   34  N   UNL     1      41.540 -12.570  -3.259  1.00  0.00    -0.368 N 
HETATM   35  H   UNL     1      42.051 -11.730  -3.017  1.00  0.00     0.159 HD
HETATM   36  H   UNL     1      42.059 -13.236  -3.832  1.00  0.00     0.159 HD
HETATM   37  O   UNL     1      39.801 -13.975  -3.326  1.00  0.00    -0.271 OA
ENDBRANCH   5  33
TORSDOF 8
ENDMDL
MODEL 6
REMARK VINA RESULT:      -7.5      2.939      7.740
REMARK  8 active torsions:
REMARK  status: ('A' for Active; 'I' for Inactive)
REMARK    1  A    between atoms: C_2  and  O_3 
REMARK    2  A    between atoms: O_3  and  C_4 
REMARK    3  A    between atoms: C_4  and  C_5 
REMARK    4  A    between atoms: C_6  and  C_7 
REMARK    5  A    between atoms: C_7  and  N_8 
REMARK    6  A    between atoms: C_12  and  N_13 
REMARK    7  A    between atoms: C_12  and  C_20 
REMARK       I    between atoms: C_20  and  N_21 
REMARK    8  A    between atoms: N_25  and  C_26 
ROOT
HETATM    1  N   UNL     1      41.334 -12.925   2.908  1.00  0.00    -0.066 N 
HETATM    2  H   UNL     1      40.927 -12.216   3.551  1.00  0.00     0.280 HD
HETATM    3  C   UNL     1      42.028 -12.232   1.776  1.00  0.00     0.238 C 
HETATM    4  C   UNL     1      41.026 -11.349   1.028  1.00  0.00     0.077 C 
HETATM    5  C   UNL     1      39.808 -12.143   0.506  1.00  0.00     0.210 C 
HETATM    6  C   UNL     1      39.182 -12.905   1.709  1.00  0.00     0.077 C 
HETATM    7  C   UNL     1      40.193 -13.783   2.445  1.00  0.00     0.238 C 
ENDROOT
BRANCH   1   8
HETATM    8  C   UNL     1      42.288 -13.705   3.814  1.00  0.00     0.294 C 
BRANCH   8   9
HETATM    9  C   UNL     1      41.615 -14.462   4.904  1.00  0.00     0.080 C 
HETATM   10  C   UNL     1      40.709 -14.065   5.892  1.00  0.00     0.085 C 
HETATM   11  C   UNL     1      40.574 -15.194   6.719  1.00  0.00     0.159 C 
HETATM   12  N   UNL     1      41.357 -16.193   6.329  1.00  0.00    -0.178 NA
HETATM   13  N   UNL     1      41.825 -15.827   5.116  1.00  0.00    -0.235 N 
BRANCH  10  14
HETATM   14  C   UNL     1      40.118 -12.754   6.082  1.00  0.00     0.296 C 
HETATM   15  O   UNL     1      38.902 -12.589   5.999  1.00  0.00    -0.259 OA
BRANCH  14  16
HETATM   16  O   UNL     1      41.036 -11.776   6.265  1.00  0.00    -0.318 OA
BRANCH  16  17
HETATM   17  C   UNL     1      40.714 -10.476   5.745  1.00  0.00     0.174 C 
HETATM   18  C   UNL     1      41.846  -9.956   4.876  1.00  0.00     0.034 C 
ENDBRANCH  16  17
ENDBRANCH  14  16
ENDBRANCH  10  14
BRANCH  13  19
HETATM   19  C   UNL     1      42.575 -16.758   4.346  1.00  0.00     0.064 A 
HETATM   20  C   UNL     1      43.793 -17.321   4.776  1.00  0.00    -0.033 A 
HETATM   21  C   UNL     1      44.593 -16.861   5.963  1.00  0.00     0.050 C 
HETATM   22  C   UNL     1      44.391 -18.310   3.969  1.00  0.00     0.009 A 
HETATM   23  C   UNL     1      43.837 -18.679   2.743  1.00  0.00     0.001 A 
HETATM   24  C   UNL     1      42.682 -18.056   2.288  1.00  0.00     0.002 A 
HETATM   25  C   UNL     1      42.057 -17.094   3.080  1.00  0.00     0.032 A 
ENDBRANCH  13  19
ENDBRANCH   8   9
ENDBRANCH   1   8
BRANCH   5  26
HETATM   26  N   UNL     1      38.696 -11.128  -0.036  1.00  0.00    -0.053 N 
HETATM   27  H   UNL     1      38.326 -11.526  -0.910  1.00  0.00     0.281 HD
HETATM   28  C   UNL     1      37.491 -10.919   0.875  1.00  0.00     0.236 C 
HETATM   29  C   UNL     1      36.424 -10.109   0.149  1.00  0.00     0.028 C 
HETATM   30  C   UNL     1      36.957  -8.763  -0.320  1.00  0.00     0.003 C 
HETATM   31  C   UNL     1      38.215  -8.943  -1.157  1.00  0.00     0.028 C 
HETATM   32  C   UNL     1      39.274  -9.753  -0.419  1.00  0.00     0.236 C 
ENDBRANCH   5  26
BRANCH   5  33
HETATM   33  C   UNL     1      40.218 -13.169  -0.593  1.00  0.00     0.252 C 
HETATM   34  N   UNL     1      41.155 -12.818  -1.512  1.00  0.00    -0.368 N 
HETATM   35  H   UNL     1      41.671 -11.950  -1.587  1.00  0.00     0.159 HD
HETATM   36  H   UNL     1      41.372 -13.509  -2.232  1.00  0.00     0.159 HD
HETATM   37  O   UNL     1      39.679 -14.269  -0.664  1.00  0.00    -0.271 OA
ENDBRANCH   5  33
TORSDOF 8
ENDMDL
MODEL 7
REMARK VINA RESULT:      -7.5      2.241      7.138
REMARK  8 active torsions:
REMARK  status: ('A' for Active; 'I' for Inactive)
REMARK    1  A    between atoms: C_2  and  O_3 
REMARK    2  A    between atoms: O_3  and  C_4 
REMARK    3  A    between atoms: C_4  and  C_5 
REMARK    4  A    between atoms: C_6  and  C_7 
REMARK    5  A    between atoms: C_7  and  N_8 
REMARK    6  A    between atoms: C_12  and  N_13 
REMARK    7  A    between atoms: C_12  and  C_20 
REMARK       I    between atoms: C_20  and  N_21 
REMARK    8  A    between atoms: N_25  and  C_26 
ROOT
HETATM    1  N   UNL     1      43.140 -13.222   3.915  1.00  0.00    -0.066 N 
HETATM    2  H   UNL     1      43.783 -13.755   4.535  1.00  0.00     0.280 HD
HETATM    3  C   UNL     1      43.682 -11.842   3.704  1.00  0.00     0.238 C 
HETATM    4  C   UNL     1      43.822 -11.137   5.056  1.00  0.00     0.077 C 
HETATM    5  C   UNL     1      42.490 -11.080   5.836  1.00  0.00     0.210 C 
HETATM    6  C   UNL     1      41.938 -12.529   5.949  1.00  0.00     0.077 C 
HETATM    7  C   UNL     1      41.802 -13.219   4.593  1.00  0.00     0.238 C 
ENDROOT
BRANCH   1   8
HETATM    8  C   UNL     1      43.118 -14.063   2.637  1.00  0.00     0.294 C 
BRANCH   8   9
HETATM    9  C   UNL     1      41.848 -14.806   2.416  1.00  0.00     0.080 C 
HETATM   10  C   UNL     1      40.650 -14.440   1.795  1.00  0.00     0.085 C 
HETATM   11  C   UNL     1      39.779 -15.512   2.055  1.00  0.00     0.159 C 
HETATM   12  N   UNL     1      40.346 -16.443   2.811  1.00  0.00    -0.178 NA
HETATM   13  N   UNL     1      41.657 -16.120   2.853  1.00  0.00    -0.235 N 
BRANCH  10  14
HETATM   14  C   UNL     1      40.343 -13.193   1.122  1.00  0.00     0.296 C 
HETATM   15  O   UNL     1      40.611 -12.110   1.641  1.00  0.00    -0.259 OA
BRANCH  14  16
HETATM   16  O   UNL     1      39.682 -13.365  -0.047  1.00  0.00    -0.318 OA
BRANCH  16  17
HETATM   17  C   UNL     1      38.738 -12.346  -0.416  1.00  0.00     0.174 C 
HETATM   18  C   UNL     1      38.049 -12.709  -1.720  1.00  0.00     0.034 C 
ENDBRANCH  16  17
ENDBRANCH  14  16
ENDBRANCH  10  14
BRANCH  13  19
HETATM   19  C   UNL     1      42.580 -17.017   3.458  1.00  0.00     0.064 A 
HETATM   20  C   UNL     1      42.716 -17.169   4.852  1.00  0.00    -0.033 A 
HETATM   21  C   UNL     1      42.107 -16.267   5.889  1.00  0.00     0.050 C 
HETATM   22  C   UNL     1      43.593 -18.163   5.331  1.00  0.00     0.009 A 
HETATM   23  C   UNL     1      44.363 -18.933   4.458  1.00  0.00     0.001 A 
HETATM   24  C   UNL     1      44.284 -18.715   3.089  1.00  0.00     0.002 A 
HETATM   25  C   UNL     1      43.404 -17.757   2.589  1.00  0.00     0.032 A 
ENDBRANCH  13  19
ENDBRANCH   8   9
ENDBRANCH   1   8
BRANCH   5  26
HETATM   26  N   UNL     1      42.762 -10.564   7.327  1.00  0.00    -0.053 N 
HETATM   27  H   UNL     1      42.018 -10.954   7.921  1.00  0.00     0.281 HD
HETATM   28  C   UNL     1      44.078 -11.013   7.952  1.00  0.00     0.236 C 
HETATM   29  C   UNL     1      44.108 -10.637   9.428  1.00  0.00     0.028 C 
HETATM   30  C   UNL     1      43.922  -9.141   9.634  1.00  0.00     0.003 C 
HETATM   31  C   UNL     1      42.660  -8.653   8.939  1.00  0.00     0.028 C 
HETATM   32  C   UNL     1      42.644  -9.035   7.465  1.00  0.00     0.236 C 
ENDBRANCH   5  26
BRANCH   5  33
HETATM   33  C   UNL     1      41.439 -10.185   5.114  1.00  0.00     0.252 C 
HETATM   34  N   UNL     1      41.851  -9.324   4.147  1.00  0.00    -0.368 N 
HETATM   35  H   UNL     1      42.787  -9.179   3.789  1.00  0.00     0.159 HD
HETATM   36  H   UNL     1      41.134  -8.736   3.721  1.00  0.00     0.159 HD
HETATM   37  O   UNL     1      40.254 -10.217   5.434  1.00  0.00    -0.271 OA
ENDBRANCH   5  33
TORSDOF 8
ENDMDL
MODEL 8
REMARK VINA RESULT:      -7.4      1.889      2.923
REMARK  8 active torsions:
REMARK  status: ('A' for Active; 'I' for Inactive)
REMARK    1  A    between atoms: C_2  and  O_3 
REMARK    2  A    between atoms: O_3  and  C_4 
REMARK    3  A    between atoms: C_4  and  C_5 
REMARK    4  A    between atoms: C_6  and  C_7 
REMARK    5  A    between atoms: C_7  and  N_8 
REMARK    6  A    between atoms: C_12  and  N_13 
REMARK    7  A    between atoms: C_12  and  C_20 
REMARK       I    between atoms: C_20  and  N_21 
REMARK    8  A    between atoms: N_25  and  C_26 
ROOT
HETATM    1  N   UNL     1      43.041 -12.355   4.636  1.00  0.00    -0.066 N 
HETATM    2  H   UNL     1      44.065 -12.367   4.451  1.00  0.00     0.280 HD
HETATM    3  C   UNL     1      42.733 -13.266   5.784  1.00  0.00     0.238 C 
HETATM    4  C   UNL     1      43.195 -14.686   5.448  1.00  0.00     0.077 C 
HETATM    5  C   UNL     1      42.559 -15.225   4.148  1.00  0.00     0.210 C 
HETATM    6  C   UNL     1      42.842 -14.199   3.014  1.00  0.00     0.077 C 
HETATM    7  C   UNL     1      42.374 -12.786   3.363  1.00  0.00     0.238 C 
ENDROOT
BRANCH   1   8
HETATM    8  C   UNL     1      42.764 -10.883   4.942  1.00  0.00     0.294 C 
BRANCH   8   9
HETATM    9  C   UNL     1      41.704 -10.659   5.963  1.00  0.00     0.080 C 
HETATM   10  C   UNL     1      40.330 -10.915   5.950  1.00  0.00     0.085 C 
HETATM   11  C   UNL     1      39.853 -10.330   7.136  1.00  0.00     0.159 C 
HETATM   12  N   UNL     1      40.818  -9.716   7.811  1.00  0.00    -0.178 NA
HETATM   13  N   UNL     1      41.968 -10.093   7.213  1.00  0.00    -0.235 N 
BRANCH  10  14
HETATM   14  C   UNL     1      39.553 -11.550   4.903  1.00  0.00     0.296 C 
HETATM   15  O   UNL     1      39.109 -12.688   5.045  1.00  0.00    -0.259 OA
BRANCH  14  16
HETATM   16  O   UNL     1      39.461 -10.803   3.778  1.00  0.00    -0.318 OA
BRANCH  16  17
HETATM   17  C   UNL     1      38.726 -11.368   2.680  1.00  0.00     0.174 C 
HETATM   18  C   UNL     1      39.533 -11.272   1.397  1.00  0.00     0.034 C 
ENDBRANCH  16  17
ENDBRANCH  14  16
ENDBRANCH  10  14
BRANCH  13  19
HETATM   19  C   UNL     1      43.212  -9.732   7.799  1.00  0.00     0.064 A 
HETATM   20  C   UNL     1      43.541  -8.415   8.177  1.00  0.00    -0.033 A 
HETATM   21  C   UNL     1      42.759  -7.184   7.811  1.00  0.00     0.050 C 
HETATM   22  C   UNL     1      44.765  -8.199   8.843  1.00  0.00     0.009 A 
HETATM   23  C   UNL     1      45.664  -9.242   9.064  1.00  0.00     0.001 A 
HETATM   24  C   UNL     1      45.368 -10.521   8.611  1.00  0.00     0.002 A 
HETATM   25  C   UNL     1      44.152 -10.766   7.974  1.00  0.00     0.032 A 
ENDBRANCH  13  19
ENDBRANCH   8   9
ENDBRANCH   1   8
BRANCH   5  26
HETATM   26  N   UNL     1      43.273 -16.595   3.728  1.00  0.00    -0.053 N 
HETATM   27  H   UNL     1      44.145 -16.343   3.244  1.00  0.00     0.281 HD
HETATM   28  C   UNL     1      43.679 -17.508   4.879  1.00  0.00     0.236 C 
HETATM   29  C   UNL     1      44.531 -18.658   4.356  1.00  0.00     0.028 C 
HETATM   30  C   UNL     1      43.801 -19.463   3.291  1.00  0.00     0.003 C 
HETATM   31  C   UNL     1      43.305 -18.556   2.175  1.00  0.00     0.028 C 
HETATM   32  C   UNL     1      42.455 -17.412   2.712  1.00  0.00     0.236 C 
ENDBRANCH   5  26
BRANCH   5  33
HETATM   33  C   UNL     1      41.020 -15.414   4.296  1.00  0.00     0.252 C 
HETATM   34  N   UNL     1      40.194 -14.920   3.338  1.00  0.00    -0.368 N 
HETATM   35  H   UNL     1      40.439 -14.435   2.483  1.00  0.00     0.159 HD
HETATM   36  H   UNL     1      39.192 -15.040   3.490  1.00  0.00     0.159 HD
HETATM   37  O   UNL     1      40.543 -15.966   5.284  1.00  0.00    -0.271 OA
ENDBRANCH   5  33
TORSDOF 8
ENDMDL
MODEL 9
REMARK VINA RESULT:      -7.2      1.363      2.408
REMARK  8 active torsions:
REMARK  status: ('A' for Active; 'I' for Inactive)
REMARK    1  A    between atoms: C_2  and  O_3 
REMARK    2  A    between atoms: O_3  and  C_4 
REMARK    3  A    between atoms: C_4  and  C_5 
REMARK    4  A    between atoms: C_6  and  C_7 
REMARK    5  A    between atoms: C_7  and  N_8 
REMARK    6  A    between atoms: C_12  and  N_13 
REMARK    7  A    between atoms: C_12  and  C_20 
REMARK       I    between atoms: C_20  and  N_21 
REMARK    8  A    between atoms: N_25  and  C_26 
ROOT
HETATM    1  N   UNL     1      41.364 -14.667   4.920  1.00  0.00    -0.066 N 
HETATM    2  H   UNL     1      40.919 -15.046   4.059  1.00  0.00     0.280 HD
HETATM    3  C   UNL     1      42.817 -14.417   4.661  1.00  0.00     0.238 C 
HETATM    4  C   UNL     1      43.494 -15.725   4.244  1.00  0.00     0.077 C 
HETATM    5  C   UNL     1      43.321 -16.844   5.294  1.00  0.00     0.210 C 
HETATM    6  C   UNL     1      41.801 -17.000   5.582  1.00  0.00     0.077 C 
HETATM    7  C   UNL     1      41.138 -15.687   5.998  1.00  0.00     0.238 C 
ENDROOT
BRANCH   1   8
HETATM    8  C   UNL     1      40.569 -13.388   5.185  1.00  0.00     0.294 C 
BRANCH   8   9
HETATM    9  C   UNL     1      40.693 -12.358   4.119  1.00  0.00     0.080 C 
HETATM   10  C   UNL     1      40.559 -12.435   2.729  1.00  0.00     0.085 C 
HETATM   11  C   UNL     1      40.958 -11.169   2.268  1.00  0.00     0.159 C 
HETATM   12  N   UNL     1      41.358 -10.381   3.259  1.00  0.00    -0.178 NA
HETATM   13  N   UNL     1      41.000 -11.022   4.392  1.00  0.00    -0.235 N 
BRANCH  10  14
HETATM   14  C   UNL     1      40.190 -13.591   1.934  1.00  0.00     0.296 C 
HETATM   15  O   UNL     1      39.549 -14.518   2.424  1.00  0.00    -0.259 OA
BRANCH  14  16
HETATM   16  O   UNL     1      40.690 -13.556   0.677  1.00  0.00    -0.318 OA
BRANCH  16  17
HETATM   17  C   UNL     1      40.072 -14.417  -0.293  1.00  0.00     0.174 C 
HETATM   18  C   UNL     1      40.064 -13.755  -1.660  1.00  0.00     0.034 C 
ENDBRANCH  16  17
ENDBRANCH  14  16
ENDBRANCH  10  14
BRANCH  13  19
HETATM   19  C   UNL     1      41.143 -10.364   5.644  1.00  0.00     0.064 A 
HETATM   20  C   UNL     1      42.362 -10.287   6.346  1.00  0.00    -0.033 A 
HETATM   21  C   UNL     1      43.605 -11.067   6.020  1.00  0.00     0.050 C 
HETATM   22  C   UNL     1      42.402  -9.519   7.528  1.00  0.00     0.009 A 
HETATM   23  C   UNL     1      41.256  -8.906   8.035  1.00  0.00     0.001 A 
HETATM   24  C   UNL     1      40.040  -9.061   7.380  1.00  0.00     0.002 A 
HETATM   25  C   UNL     1      39.980  -9.792   6.195  1.00  0.00     0.032 A 
ENDBRANCH  13  19
ENDBRANCH   8   9
ENDBRANCH   1   8
BRANCH   5  26
HETATM   26  N   UNL     1      43.828 -18.235   4.686  1.00  0.00    -0.053 N 
HETATM   27  H   UNL     1      44.845 -18.151   4.551  1.00  0.00     0.281 HD
HETATM   28  C   UNL     1      43.621 -19.458   5.572  1.00  0.00     0.236 C 
HETATM   29  C   UNL     1      44.337 -20.662   4.972  1.00  0.00     0.028 C 
HETATM   30  C   UNL     1      43.856 -20.959   3.560  1.00  0.00     0.003 C 
HETATM   31  C   UNL     1      43.968 -19.724   2.680  1.00  0.00     0.028 C 
HETATM   32  C   UNL     1      43.247 -18.528   3.291  1.00  0.00     0.236 C 
ENDBRANCH   5  26
BRANCH   5  33
HETATM   33  C   UNL     1      44.062 -16.506   6.623  1.00  0.00     0.252 C 
HETATM   34  N   UNL     1      43.405 -16.642   7.804  1.00  0.00    -0.368 N 
HETATM   35  H   UNL     1      42.458 -16.963   7.965  1.00  0.00     0.159 HD
HETATM   36  H   UNL     1      43.918 -16.381   8.646  1.00  0.00     0.159 HD
HETATM   37  O   UNL     1      45.215 -16.083   6.614  1.00  0.00    -0.271 OA
ENDBRANCH   5  33
TORSDOF 8
ENDMDL
MODEL 10
REMARK VINA RESULT:      -7.2      2.376      7.369
REMARK  8 active torsions:
REMARK  status: ('A' for Active; 'I' for Inactive)
REMARK    1  A    between atoms: C_2  and  O_3 
REMARK    2  A    between atoms: O_3  and  C_4 
REMARK    3  A    between atoms: C_4  and  C_5 
REMARK    4  A    between atoms: C_6  and  C_7 
REMARK    5  A    between atoms: C_7  and  N_8 
REMARK    6  A    between atoms: C_12  and  N_13 
REMARK    7  A    between atoms: C_12  and  C_20 
REMARK       I    between atoms: C_20  and  N_21 
REMARK    8  A    between atoms: N_25  and  C_26 
ROOT
HETATM    1  N   UNL     1      43.061 -13.022   3.619  1.00  0.00    -0.066 N 
HETATM    2  H   UNL     1      44.070 -13.195   3.803  1.00  0.00     0.280 HD
HETATM    3  C   UNL     1      42.814 -11.546   3.549  1.00  0.00     0.238 C 
HETATM    4  C   UNL     1      43.233 -10.896   4.870  1.00  0.00     0.077 C 
HETATM    5  C   UNL     1      42.505 -11.506   6.088  1.00  0.00     0.210 C 
HETATM    6  C   UNL     1      42.729 -13.044   6.059  1.00  0.00     0.077 C 
HETATM    7  C   UNL     1      42.306 -13.680   4.736  1.00  0.00     0.238 C 
ENDROOT
BRANCH   1   8
HETATM    8  C   UNL     1      42.826 -13.737   2.287  1.00  0.00     0.294 C 
BRANCH   8   9
HETATM    9  C   UNL     1      41.758 -14.772   2.329  1.00  0.00     0.080 C 
HETATM   10  C   UNL     1      41.793 -16.136   2.633  1.00  0.00     0.085 C 
HETATM   11  C   UNL     1      40.499 -16.596   2.333  1.00  0.00     0.159 C 
HETATM   12  N   UNL     1      39.731 -15.633   1.836  1.00  0.00    -0.178 NA
HETATM   13  N   UNL     1      40.422 -14.489   2.030  1.00  0.00    -0.235 N 
BRANCH  10  14
HETATM   14  C   UNL     1      42.934 -16.921   3.063  1.00  0.00     0.296 C 
HETATM   15  O   UNL     1      43.691 -17.440   2.245  1.00  0.00    -0.259 OA
BRANCH  14  16
HETATM   16  O   UNL     1      43.002 -17.072   4.407  1.00  0.00    -0.318 OA
BRANCH  16  17
HETATM   17  C   UNL     1      43.788 -18.170   4.899  1.00  0.00     0.174 C 
HETATM   18  C   UNL     1      43.440 -18.463   6.348  1.00  0.00     0.034 C 
ENDBRANCH  16  17
ENDBRANCH  14  16
ENDBRANCH  10  14
BRANCH  13  19
HETATM   19  C   UNL     1      39.801 -13.241   1.751  1.00  0.00     0.064 A 
HETATM   20  C   UNL     1      39.688 -12.702   0.454  1.00  0.00    -0.033 A 
HETATM   21  C   UNL     1      40.394 -13.219  -0.768  1.00  0.00     0.050 C 
HETATM   22  C   UNL     1      38.960 -11.505   0.291  1.00  0.00     0.009 A 
HETATM   23  C   UNL     1      38.423 -10.828   1.387  1.00  0.00     0.001 A 
HETATM   24  C   UNL     1      38.615 -11.324   2.670  1.00  0.00     0.002 A 
HETATM   25  C   UNL     1      39.306 -12.519   2.855  1.00  0.00     0.032 A 
ENDBRANCH  13  19
ENDBRANCH   8   9
ENDBRANCH   1   8
BRANCH   5  26
HETATM   26  N   UNL     1      43.170 -10.960   7.438  1.00  0.00    -0.053 N 
HETATM   27  H   UNL     1      42.933 -11.632   8.182  1.00  0.00     0.281 HD
HETATM   28  C   UNL     1      44.691 -10.858   7.433  1.00  0.00     0.236 C 
HETATM   29  C   UNL     1      45.196 -10.538   8.834  1.00  0.00     0.028 C 
HETATM   30  C   UNL     1      44.593  -9.248   9.371  1.00  0.00     0.003 C 
HETATM   31  C   UNL     1      43.075  -9.293   9.301  1.00  0.00     0.028 C 
HETATM   32  C   UNL     1      42.583  -9.613   7.895  1.00  0.00     0.236 C 
ENDBRANCH   5  26
BRANCH   5  33
HETATM   33  C   UNL     1      40.976 -11.209   6.053  1.00  0.00     0.252 C 
HETATM   34  N   UNL     1      40.125 -12.026   6.726  1.00  0.00    -0.368 N 
HETATM   35  H   UNL     1      40.345 -12.835   7.294  1.00  0.00     0.159 HD
HETATM   36  H   UNL     1      39.130 -11.813   6.651  1.00  0.00     0.159 HD
HETATM   37  O   UNL     1      40.529 -10.274   5.395  1.00  0.00    -0.271 OA
ENDBRANCH   5  33
TORSDOF 8
ENDMDL
