MODEL 1
REMARK VINA RESULT:      -8.4      0.000      0.000
REMARK  3 active torsions:
REMARK  status: ('A' for Active; 'I' for Inactive)
REMARK    1  A    between atoms: C_4  and  N_5 
REMARK       I    between atoms: N_5  and  C_6 
REMARK    2  A    between atoms: C_6  and  C_7 
REMARK    3  A    between atoms: C_7  and  C_8 
ROOT
HETATM    1  C   UNL     1      40.568 -15.750   4.954  1.00  0.00     0.286 C 
HETATM    2  N   UNL     1      40.943 -15.820   3.479  1.00  0.00    -0.056 N 
HETATM    3  H   UNL     1      41.848 -15.310   3.396  1.00  0.00     0.278 HD
HETATM    4  H   UNL     1      41.132 -16.788   3.198  1.00  0.00     0.278 HD
HETATM    5  C   UNL     1      39.896 -15.184   2.599  1.00  0.00     0.209 C 
HETATM    6  C   UNL     1      39.726 -13.698   3.008  1.00  0.00     0.115 C 
HETATM    7  N   UNL     1      39.546 -13.539   4.453  1.00  0.00    -0.353 N 
HETATM    8  C   UNL     1      40.149 -14.332   5.401  1.00  0.00     0.249 C 
HETATM    9  O   UNL     1      40.236 -13.950   6.562  1.00  0.00    -0.271 OA
HETATM   10  C   UNL     1      40.292 -15.362   1.133  1.00  0.00     0.035 C 
HETATM   11  C   UNL     1      41.456 -14.471   0.711  1.00  0.00     0.002 C 
HETATM   12  C   UNL     1      41.185 -13.010   1.047  1.00  0.00     0.002 C 
HETATM   13  C   UNL     1      40.892 -12.821   2.531  1.00  0.00     0.027 C 
HETATM   14  H   UNL     1      39.279 -12.622   4.805  1.00  0.00     0.163 HD
ENDROOT
BRANCH   1  15
HETATM   15  C   UNL     1      41.682 -16.323   5.838  1.00  0.00     0.146 C 
BRANCH  15  16
HETATM   16  C   UNL     1      43.035 -15.877   5.346  1.00  0.00     0.224 C 
HETATM   17  N   UNL     1      43.943 -16.751   4.839  1.00  0.00    -0.327 N 
HETATM   18  H   UNL     1      44.856 -16.322   4.709  1.00  0.00     0.169 HD
HETATM   19  O   UNL     1      43.310 -14.671   5.394  1.00  0.00    -0.273 OA
BRANCH  17  20
HETATM   20  C   UNL     1      43.876 -18.115   4.490  1.00  0.00     0.035 A 
HETATM   21  C   UNL     1      43.749 -18.606   3.189  1.00  0.00     0.036 A 
HETATM   22  C   UNL     1      43.699 -19.989   2.938  1.00  0.00    -0.060 A 
HETATM   23  C   UNL     1      43.601 -20.510   1.533  1.00  0.00     0.048 C 
HETATM   24  C   UNL     1      43.813 -20.884   4.004  1.00  0.00     0.007 A 
HETATM   25  C   UNL     1      43.965 -20.408   5.302  1.00  0.00     0.003 A 
HETATM   26  C   UNL     1      44.003 -19.033   5.541  1.00  0.00     0.029 A 
ENDBRANCH  17  20
ENDBRANCH  15  16
ENDBRANCH   1  15
TORSDOF 3
ENDMDL
MODEL 2
REMARK VINA RESULT:      -8.1      2.451      3.658
REMARK  3 active torsions:
REMARK  status: ('A' for Active; 'I' for Inactive)
REMARK    1  A    between atoms: C_4  and  N_5 
REMARK       I    between atoms: N_5  and  C_6 
REMARK    2  A    between atoms: C_6  and  C_7 
REMARK    3  A    between atoms: C_7  and  C_8 
ROOT
HETATM    1  C   UNL     1      40.629 -14.130   4.289  1.00  0.00     0.286 C 
HETATM    2  N   UNL     1      41.652 -13.004   4.191  1.00  0.00    -0.056 N 
HETATM    3  H   UNL     1      42.556 -13.466   3.957  1.00  0.00     0.278 HD
HETATM    4  H   UNL     1      41.434 -12.384   3.403  1.00  0.00     0.278 HD
HETATM    5  C   UNL     1      41.769 -12.233   5.482  1.00  0.00     0.209 C 
HETATM    6  C   UNL     1      42.193 -13.205   6.614  1.00  0.00     0.115 C 
HETATM    7  N   UNL     1      41.363 -14.411   6.648  1.00  0.00    -0.353 N 
HETATM    8  C   UNL     1      40.833 -15.020   5.534  1.00  0.00     0.249 C 
HETATM    9  O   UNL     1      40.450 -16.182   5.589  1.00  0.00    -0.271 OA
HETATM   10  C   UNL     1      42.744 -11.072   5.290  1.00  0.00     0.035 C 
HETATM   11  C   UNL     1      44.201 -11.515   5.205  1.00  0.00     0.002 C 
HETATM   12  C   UNL     1      44.586 -12.383   6.397  1.00  0.00     0.002 C 
HETATM   13  C   UNL     1      43.675 -13.598   6.524  1.00  0.00     0.027 C 
HETATM   14  H   UNL     1      41.463 -15.040   7.443  1.00  0.00     0.163 HD
ENDROOT
BRANCH   1  15
HETATM   15  C   UNL     1      40.585 -14.954   2.997  1.00  0.00     0.146 C 
BRANCH  15  16
HETATM   16  C   UNL     1      41.769 -14.633   2.120  1.00  0.00     0.224 C 
HETATM   17  N   UNL     1      42.900 -15.385   2.129  1.00  0.00    -0.327 N 
HETATM   18  H   UNL     1      43.656 -14.945   1.611  1.00  0.00     0.169 HD
HETATM   19  O   UNL     1      41.688 -13.660   1.359  1.00  0.00    -0.273 OA
BRANCH  17  20
HETATM   20  C   UNL     1      43.231 -16.618   2.725  1.00  0.00     0.035 A 
HETATM   21  C   UNL     1      43.197 -17.857   2.080  1.00  0.00     0.036 A 
HETATM   22  C   UNL     1      43.556 -19.036   2.757  1.00  0.00    -0.060 A 
HETATM   23  C   UNL     1      43.553 -20.360   2.047  1.00  0.00     0.048 C 
HETATM   24  C   UNL     1      43.985 -18.962   4.084  1.00  0.00     0.007 A 
HETATM   25  C   UNL     1      44.048 -17.731   4.730  1.00  0.00     0.003 A 
HETATM   26  C   UNL     1      43.680 -16.568   4.051  1.00  0.00     0.029 A 
ENDBRANCH  17  20
ENDBRANCH  15  16
ENDBRANCH   1  15
TORSDOF 3
ENDMDL
MODEL 3
REMARK VINA RESULT:      -8.0      1.521      2.008
REMARK  3 active torsions:
REMARK  status: ('A' for Active; 'I' for Inactive)
REMARK    1  A    between atoms: C_4  and  N_5 
REMARK       I    between atoms: N_5  and  C_6 
REMARK    2  A    between atoms: C_6  and  C_7 
REMARK    3  A    between atoms: C_7  and  C_8 
ROOT
HETATM    1  C   UNL     1      40.944 -15.174   4.795  1.00  0.00     0.286 C 
HETATM    2  N   UNL     1      41.971 -14.394   3.983  1.00  0.00    -0.056 N 
HETATM    3  H   UNL     1      42.758 -14.203   4.638  1.00  0.00     0.278 HD
HETATM    4  H   UNL     1      42.358 -14.976   3.232  1.00  0.00     0.278 HD
HETATM    5  C   UNL     1      41.405 -13.104   3.445  1.00  0.00     0.209 C 
HETATM    6  C   UNL     1      40.926 -12.228   4.632  1.00  0.00     0.115 C 
HETATM    7  N   UNL     1      40.077 -12.974   5.564  1.00  0.00    -0.353 N 
HETATM    8  C   UNL     1      40.236 -14.308   5.859  1.00  0.00     0.249 C 
HETATM    9  O   UNL     1      39.734 -14.780   6.872  1.00  0.00    -0.271 OA
HETATM   10  C   UNL     1      42.455 -12.415   2.574  1.00  0.00     0.035 C 
HETATM   11  C   UNL     1      43.594 -11.797   3.379  1.00  0.00     0.002 C 
HETATM   12  C   UNL     1      43.064 -10.867   4.465  1.00  0.00     0.002 C 
HETATM   13  C   UNL     1      42.094 -11.586   5.395  1.00  0.00     0.027 C 
HETATM   14  H   UNL     1      39.593 -12.453   6.293  1.00  0.00     0.163 HD
ENDROOT
BRANCH   1  15
HETATM   15  C   UNL     1      41.561 -16.438   5.404  1.00  0.00     0.146 C 
BRANCH  15  16
HETATM   16  C   UNL     1      43.029 -16.233   5.682  1.00  0.00     0.224 C 
HETATM   17  N   UNL     1      43.946 -17.215   5.482  1.00  0.00    -0.327 N 
HETATM   18  H   UNL     1      44.855 -16.975   5.869  1.00  0.00     0.169 HD
HETATM   19  O   UNL     1      43.400 -15.125   6.090  1.00  0.00    -0.273 OA
BRANCH  17  20
HETATM   20  C   UNL     1      43.879 -18.485   4.875  1.00  0.00     0.035 A 
HETATM   21  C   UNL     1      43.816 -18.717   3.499  1.00  0.00     0.036 A 
HETATM   22  C   UNL     1      43.761 -20.025   2.987  1.00  0.00    -0.060 A 
HETATM   23  C   UNL     1      43.731 -20.268   1.505  1.00  0.00     0.048 C 
HETATM   24  C   UNL     1      43.805 -21.110   3.866  1.00  0.00     0.007 A 
HETATM   25  C   UNL     1      43.894 -20.892   5.237  1.00  0.00     0.003 A 
HETATM   26  C   UNL     1      43.937 -19.589   5.736  1.00  0.00     0.029 A 
ENDBRANCH  17  20
ENDBRANCH  15  16
ENDBRANCH   1  15
TORSDOF 3
ENDMDL
MODEL 4
REMARK VINA RESULT:      -7.7      2.571      3.319
REMARK  3 active torsions:
REMARK  status: ('A' for Active; 'I' for Inactive)
REMARK    1  A    between atoms: C_4  and  N_5 
REMARK       I    between atoms: N_5  and  C_6 
REMARK    2  A    between atoms: C_6  and  C_7 
REMARK    3  A    between atoms: C_7  and  C_8 
ROOT
HETATM    1  C   UNL     1      39.841 -14.781   1.029  1.00  0.00     0.286 C 
HETATM    2  N   UNL     1      40.409 -14.580  -0.371  1.00  0.00    -0.056 N 
HETATM    3  H   UNL     1      41.327 -14.108  -0.235  1.00  0.00     0.278 HD
HETATM    4  H   UNL     1      40.612 -15.482  -0.814  1.00  0.00     0.278 HD
HETATM    5  C   UNL     1      39.502 -13.735  -1.231  1.00  0.00     0.209 C 
HETATM    6  C   UNL     1      39.311 -12.351  -0.558  1.00  0.00     0.115 C 
HETATM    7  N   UNL     1      38.944 -12.469   0.855  1.00  0.00    -0.353 N 
HETATM    8  C   UNL     1      39.398 -13.460   1.694  1.00  0.00     0.249 C 
HETATM    9  O   UNL     1      39.338 -13.316   2.909  1.00  0.00    -0.271 OA
HETATM   10  C   UNL     1      40.086 -13.643  -2.641  1.00  0.00     0.035 C 
HETATM   11  C   UNL     1      41.314 -12.743  -2.727  1.00  0.00     0.002 C 
HETATM   12  C   UNL     1      41.033 -11.364  -2.142  1.00  0.00     0.002 C 
HETATM   13  C   UNL     1      40.549 -11.455  -0.699  1.00  0.00     0.027 C 
HETATM   14  H   UNL     1      38.652 -11.626   1.346  1.00  0.00     0.163 HD
ENDROOT
BRANCH   1  15
HETATM   15  C   UNL     1      40.815 -15.568   1.914  1.00  0.00     0.146 C 
BRANCH  15  16
HETATM   16  C   UNL     1      42.153 -14.877   1.980  1.00  0.00     0.224 C 
HETATM   17  N   UNL     1      43.233 -15.447   2.575  1.00  0.00    -0.327 N 
HETATM   18  H   UNL     1      44.003 -14.792   2.680  1.00  0.00     0.169 HD
HETATM   19  O   UNL     1      42.264 -13.761   1.456  1.00  0.00    -0.273 OA
BRANCH  17  20
HETATM   20  C   UNL     1      43.480 -16.737   3.087  1.00  0.00     0.035 A 
HETATM   21  C   UNL     1      43.465 -17.916   2.338  1.00  0.00     0.036 A 
HETATM   22  C   UNL     1      43.734 -19.159   2.938  1.00  0.00    -0.060 A 
HETATM   23  C   UNL     1      43.753 -20.418   2.119  1.00  0.00     0.048 C 
HETATM   24  C   UNL     1      44.055 -19.210   4.297  1.00  0.00     0.007 A 
HETATM   25  C   UNL     1      44.098 -18.040   5.048  1.00  0.00     0.003 A 
HETATM   26  C   UNL     1      43.819 -16.813   4.445  1.00  0.00     0.029 A 
ENDBRANCH  17  20
ENDBRANCH  15  16
ENDBRANCH   1  15
TORSDOF 3
ENDMDL
MODEL 5
REMARK VINA RESULT:      -7.6      1.915      3.041
REMARK  3 active torsions:
REMARK  status: ('A' for Active; 'I' for Inactive)
REMARK    1  A    between atoms: C_4  and  N_5 
REMARK       I    between atoms: N_5  and  C_6 
REMARK    2  A    between atoms: C_6  and  C_7 
REMARK    3  A    between atoms: C_7  and  C_8 
ROOT
HETATM    1  C   UNL     1      40.576 -15.202   4.341  1.00  0.00     0.286 C 
HETATM    2  N   UNL     1      40.385 -13.785   3.815  1.00  0.00    -0.056 N 
HETATM    3  H   UNL     1      41.325 -13.480   3.485  1.00  0.00     0.278 HD
HETATM    4  H   UNL     1      39.777 -13.783   2.989  1.00  0.00     0.278 HD
HETATM    5  C   UNL     1      39.870 -12.851   4.881  1.00  0.00     0.209 C 
HETATM    6  C   UNL     1      40.878 -12.822   6.059  1.00  0.00     0.115 C 
HETATM    7  N   UNL     1      41.254 -14.168   6.498  1.00  0.00    -0.353 N 
HETATM    8  C   UNL     1      41.379 -15.251   5.660  1.00  0.00     0.249 C 
HETATM    9  O   UNL     1      42.012 -16.237   6.014  1.00  0.00    -0.271 OA
HETATM   10  C   UNL     1      39.621 -11.473   4.268  1.00  0.00     0.035 C 
HETATM   11  C   UNL     1      40.906 -10.710   3.959  1.00  0.00     0.002 C 
HETATM   12  C   UNL     1      41.810 -10.628   5.183  1.00  0.00     0.002 C 
HETATM   13  C   UNL     1      42.140 -12.012   5.730  1.00  0.00     0.027 C 
HETATM   14  H   UNL     1      41.793 -14.258   7.357  1.00  0.00     0.163 HD
ENDROOT
BRANCH   1  15
HETATM   15  C   UNL     1      41.181 -16.116   3.269  1.00  0.00     0.146 C 
BRANCH  15  16
HETATM   16  C   UNL     1      42.603 -15.716   2.968  1.00  0.00     0.224 C 
HETATM   17  N   UNL     1      43.628 -16.605   3.008  1.00  0.00    -0.327 N 
HETATM   18  H   UNL     1      44.534 -16.149   2.944  1.00  0.00     0.169 HD
HETATM   19  O   UNL     1      42.828 -14.538   2.659  1.00  0.00    -0.273 OA
BRANCH  17  20
HETATM   20  C   UNL     1      43.681 -18.008   3.142  1.00  0.00     0.035 A 
HETATM   21  C   UNL     1      43.984 -18.691   4.322  1.00  0.00     0.036 A 
HETATM   22  C   UNL     1      44.003 -20.097   4.360  1.00  0.00    -0.060 A 
HETATM   23  C   UNL     1      44.292 -20.825   5.641  1.00  0.00     0.048 C 
HETATM   24  C   UNL     1      43.680 -20.819   3.209  1.00  0.00     0.007 A 
HETATM   25  C   UNL     1      43.352 -20.150   2.034  1.00  0.00     0.003 A 
HETATM   26  C   UNL     1      43.346 -18.755   2.005  1.00  0.00     0.029 A 
ENDBRANCH  17  20
ENDBRANCH  15  16
ENDBRANCH   1  15
TORSDOF 3
ENDMDL
MODEL 6
REMARK VINA RESULT:      -7.5     13.550     16.376
REMARK  3 active torsions:
REMARK  status: ('A' for Active; 'I' for Inactive)
REMARK    1  A    between atoms: C_4  and  N_5 
REMARK       I    between atoms: N_5  and  C_6 
REMARK    2  A    between atoms: C_6  and  C_7 
REMARK    3  A    between atoms: C_7  and  C_8 
ROOT
HETATM    1  C   UNL     1      48.594 -29.962   0.273  1.00  0.00     0.286 C 
HETATM    2  N   UNL     1      48.280 -30.112   1.757  1.00  0.00    -0.056 N 
HETATM    3  H   UNL     1      48.730 -29.295   2.222  1.00  0.00     0.278 HD
HETATM    4  H   UNL     1      47.272 -30.019   1.926  1.00  0.00     0.278 HD
HETATM    5  C   UNL     1      48.817 -31.403   2.321  1.00  0.00     0.209 C 
HETATM    6  C   UNL     1      50.355 -31.441   2.122  1.00  0.00     0.115 C 
HETATM    7  N   UNL     1      50.743 -31.119   0.748  1.00  0.00    -0.353 N 
HETATM    8  C   UNL     1      50.081 -30.220  -0.055  1.00  0.00     0.249 C 
HETATM    9  O   UNL     1      50.634 -29.746  -1.040  1.00  0.00    -0.271 OA
HETATM   10  C   UNL     1      48.396 -31.529   3.785  1.00  0.00     0.035 C 
HETATM   11  C   UNL     1      49.158 -30.590   4.714  1.00  0.00     0.002 C 
HETATM   12  C   UNL     1      50.665 -30.746   4.545  1.00  0.00     0.002 C 
HETATM   13  C   UNL     1      51.095 -30.517   3.101  1.00  0.00     0.027 C 
HETATM   14  H   UNL     1      51.715 -31.261   0.478  1.00  0.00     0.163 HD
ENDROOT
BRANCH   1  15
HETATM   15  C   UNL     1      48.117 -28.607  -0.262  1.00  0.00     0.146 C 
BRANCH  15  16
HETATM   16  C   UNL     1      46.864 -28.165   0.451  1.00  0.00     0.224 C 
HETATM   17  N   UNL     1      45.631 -28.299  -0.103  1.00  0.00    -0.327 N 
HETATM   18  H   UNL     1      44.917 -27.806   0.427  1.00  0.00     0.169 HD
HETATM   19  O   UNL     1      46.974 -27.679   1.585  1.00  0.00    -0.273 OA
BRANCH  17  20
HETATM   20  C   UNL     1      45.162 -28.953  -1.260  1.00  0.00     0.035 A 
HETATM   21  C   UNL     1      44.819 -30.305  -1.336  1.00  0.00     0.036 A 
HETATM   22  C   UNL     1      44.350 -30.868  -2.536  1.00  0.00    -0.060 A 
HETATM   23  C   UNL     1      43.946 -32.313  -2.599  1.00  0.00     0.048 C 
HETATM   24  C   UNL     1      44.193 -30.054  -3.660  1.00  0.00     0.007 A 
HETATM   25  C   UNL     1      44.508 -28.700  -3.591  1.00  0.00     0.003 A 
HETATM   26  C   UNL     1      44.982 -28.155  -2.398  1.00  0.00     0.029 A 
ENDBRANCH  17  20
ENDBRANCH  15  16
ENDBRANCH   1  15
TORSDOF 3
ENDMDL
MODEL 7
REMARK VINA RESULT:      -7.5      3.536      5.073
REMARK  3 active torsions:
REMARK  status: ('A' for Active; 'I' for Inactive)
REMARK    1  A    between atoms: C_4  and  N_5 
REMARK       I    between atoms: N_5  and  C_6 
REMARK    2  A    between atoms: C_6  and  C_7 
REMARK    3  A    between atoms: C_7  and  C_8 
ROOT
HETATM    1  C   UNL     1      40.771 -13.212   0.320  1.00  0.00     0.286 C 
HETATM    2  N   UNL     1      40.282 -12.004  -0.470  1.00  0.00    -0.056 N 
HETATM    3  H   UNL     1      39.354 -11.761  -0.064  1.00  0.00     0.278 HD
HETATM    4  H   UNL     1      40.889 -11.193  -0.307  1.00  0.00     0.278 HD
HETATM    5  C   UNL     1      40.151 -12.308  -1.942  1.00  0.00     0.209 C 
HETATM    6  C   UNL     1      39.149 -13.476  -2.130  1.00  0.00     0.115 C 
HETATM    7  N   UNL     1      39.451 -14.611  -1.255  1.00  0.00    -0.353 N 
HETATM    8  C   UNL     1      39.970 -14.496   0.013  1.00  0.00     0.249 C 
HETATM    9  O   UNL     1      39.880 -15.427   0.804  1.00  0.00    -0.271 OA
HETATM   10  C   UNL     1      39.740 -11.037  -2.685  1.00  0.00     0.035 C 
HETATM   11  C   UNL     1      38.286 -10.643  -2.447  1.00  0.00     0.002 C 
HETATM   12  C   UNL     1      37.342 -11.802  -2.747  1.00  0.00     0.002 C 
HETATM   13  C   UNL     1      37.692 -13.037  -1.925  1.00  0.00     0.027 C 
HETATM   14  H   UNL     1      38.945 -15.482  -1.407  1.00  0.00     0.163 HD
ENDROOT
BRANCH   1  15
HETATM   15  C   UNL     1      40.816 -12.911   1.823  1.00  0.00     0.146 C 
BRANCH  15  16
HETATM   16  C   UNL     1      42.184 -12.425   2.229  1.00  0.00     0.224 C 
HETATM   17  N   UNL     1      43.105 -13.249   2.792  1.00  0.00    -0.327 N 
HETATM   18  H   UNL     1      43.905 -12.737   3.155  1.00  0.00     0.169 HD
HETATM   19  O   UNL     1      42.471 -11.239   2.022  1.00  0.00    -0.273 OA
BRANCH  17  20
HETATM   20  C   UNL     1      43.157 -14.644   2.988  1.00  0.00     0.035 A 
HETATM   21  C   UNL     1      43.034 -15.287   4.223  1.00  0.00     0.036 A 
HETATM   22  C   UNL     1      43.090 -16.688   4.318  1.00  0.00    -0.060 A 
HETATM   23  C   UNL     1      42.919 -17.374   5.643  1.00  0.00     0.048 C 
HETATM   24  C   UNL     1      43.235 -17.450   3.156  1.00  0.00     0.007 A 
HETATM   25  C   UNL     1      43.333 -16.823   1.918  1.00  0.00     0.003 A 
HETATM   26  C   UNL     1      43.287 -15.430   1.836  1.00  0.00     0.029 A 
ENDBRANCH  17  20
ENDBRANCH  15  16
ENDBRANCH   1  15
TORSDOF 3
ENDMDL
MODEL 8
REMARK VINA RESULT:      -7.3      2.264      3.910
REMARK  3 active torsions:
REMARK  status: ('A' for Active; 'I' for Inactive)
REMARK    1  A    between atoms: C_4  and  N_5 
REMARK       I    between atoms: N_5  and  C_6 
REMARK    2  A    between atoms: C_6  and  C_7 
REMARK    3  A    between atoms: C_7  and  C_8 
ROOT
HETATM    1  C   UNL     1      41.140 -11.700   4.509  1.00  0.00     0.286 C 
HETATM    2  N   UNL     1      40.038 -12.031   3.509  1.00  0.00    -0.056 N 
HETATM    3  H   UNL     1      40.451 -12.734   2.861  1.00  0.00     0.278 HD
HETATM    4  H   UNL     1      39.253 -12.497   3.976  1.00  0.00     0.278 HD
HETATM    5  C   UNL     1      39.582 -10.812   2.748  1.00  0.00     0.209 C 
HETATM    6  C   UNL     1      40.791 -10.208   1.988  1.00  0.00     0.115 C 
HETATM    7  N   UNL     1      41.959 -10.036   2.854  1.00  0.00    -0.353 N 
HETATM    8  C   UNL     1      42.292 -10.882   3.885  1.00  0.00     0.249 C 
HETATM    9  O   UNL     1      43.430 -10.886   4.339  1.00  0.00    -0.271 OA
HETATM   10  C   UNL     1      38.423 -11.195   1.828  1.00  0.00     0.035 C 
HETATM   11  C   UNL     1      38.860 -12.016   0.619  1.00  0.00     0.002 C 
HETATM   12  C   UNL     1      39.982 -11.323  -0.146  1.00  0.00     0.002 C 
HETATM   13  C   UNL     1      41.179 -11.034   0.753  1.00  0.00     0.027 C 
HETATM   14  H   UNL     1      42.753  -9.512   2.490  1.00  0.00     0.163 HD
ENDROOT
BRANCH   1  15
HETATM   15  C   UNL     1      41.650 -12.964   5.211  1.00  0.00     0.146 C 
BRANCH  15  16
HETATM   16  C   UNL     1      40.505 -13.884   5.551  1.00  0.00     0.224 C 
HETATM   17  N   UNL     1      40.421 -15.146   5.057  1.00  0.00    -0.327 N 
HETATM   18  H   UNL     1      39.517 -15.571   5.245  1.00  0.00     0.169 HD
HETATM   19  O   UNL     1      39.628 -13.469   6.320  1.00  0.00    -0.273 OA
BRANCH  17  20
HETATM   20  C   UNL     1      41.315 -15.956   4.328  1.00  0.00     0.035 A 
HETATM   21  C   UNL     1      42.394 -16.655   4.874  1.00  0.00     0.036 A 
HETATM   22  C   UNL     1      43.227 -17.447   4.064  1.00  0.00    -0.060 A 
HETATM   23  C   UNL     1      44.363 -18.227   4.664  1.00  0.00     0.048 C 
HETATM   24  C   UNL     1      42.950 -17.564   2.700  1.00  0.00     0.007 A 
HETATM   25  C   UNL     1      41.863 -16.892   2.149  1.00  0.00     0.003 A 
HETATM   26  C   UNL     1      41.049 -16.100   2.960  1.00  0.00     0.029 A 
ENDBRANCH  17  20
ENDBRANCH  15  16
ENDBRANCH   1  15
TORSDOF 3
ENDMDL
MODEL 9
REMARK VINA RESULT:      -7.3      2.352      5.633
REMARK  3 active torsions:
REMARK  status: ('A' for Active; 'I' for Inactive)
REMARK    1  A    between atoms: C_4  and  N_5 
REMARK       I    between atoms: N_5  and  C_6 
REMARK    2  A    between atoms: C_6  and  C_7 
REMARK    3  A    between atoms: C_7  and  C_8 
ROOT
HETATM    1  C   UNL     1      41.917 -13.515   6.037  1.00  0.00     0.286 C 
HETATM    2  N   UNL     1      42.828 -14.363   5.158  1.00  0.00    -0.056 N 
HETATM    3  H   UNL     1      42.606 -14.088   4.178  1.00  0.00     0.278 HD
HETATM    4  H   UNL     1      43.812 -14.117   5.310  1.00  0.00     0.278 HD
HETATM    5  C   UNL     1      42.592 -15.839   5.359  1.00  0.00     0.209 C 
HETATM    6  C   UNL     1      41.114 -16.166   5.021  1.00  0.00     0.115 C 
HETATM    7  N   UNL     1      40.180 -15.260   5.691  1.00  0.00    -0.353 N 
HETATM    8  C   UNL     1      40.433 -13.932   5.943  1.00  0.00     0.249 C 
HETATM    9  O   UNL     1      39.511 -13.162   6.186  1.00  0.00    -0.271 OA
HETATM   10  C   UNL     1      43.591 -16.630   4.515  1.00  0.00     0.035 C 
HETATM   11  C   UNL     1      43.280 -16.594   3.022  1.00  0.00     0.002 C 
HETATM   12  C   UNL     1      41.844 -17.023   2.744  1.00  0.00     0.002 C 
HETATM   13  C   UNL     1      40.844 -16.163   3.509  1.00  0.00     0.027 C 
HETATM   14  H   UNL     1      39.186 -15.481   5.654  1.00  0.00     0.163 HD
ENDROOT
BRANCH   1  15
HETATM   15  C   UNL     1      42.110 -12.020   5.757  1.00  0.00     0.146 C 
BRANCH  15  16
HETATM   16  C   UNL     1      43.410 -11.777   5.033  1.00  0.00     0.224 C 
HETATM   17  N   UNL     1      43.494 -11.781   3.678  1.00  0.00    -0.327 N 
HETATM   18  H   UNL     1      44.458 -11.768   3.353  1.00  0.00     0.169 HD
HETATM   19  O   UNL     1      44.424 -11.552   5.707  1.00  0.00    -0.273 OA
BRANCH  17  20
HETATM   20  C   UNL     1      42.527 -11.824   2.653  1.00  0.00     0.035 A 
HETATM   21  C   UNL     1      42.081 -12.985   2.017  1.00  0.00     0.036 A 
HETATM   22  C   UNL     1      41.102 -12.928   1.009  1.00  0.00    -0.060 A 
HETATM   23  C   UNL     1      40.600 -14.184   0.356  1.00  0.00     0.048 C 
HETATM   24  C   UNL     1      40.543 -11.695   0.663  1.00  0.00     0.007 A 
HETATM   25  C   UNL     1      40.961 -10.535   1.307  1.00  0.00     0.003 A 
HETATM   26  C   UNL     1      41.940 -10.602   2.299  1.00  0.00     0.029 A 
ENDBRANCH  17  20
ENDBRANCH  15  16
ENDBRANCH   1  15
TORSDOF 3
ENDMDL
MODEL 10
REMARK VINA RESULT:      -7.2      4.779      6.643
REMARK  3 active torsions:
REMARK  status: ('A' for Active; 'I' for Inactive)
REMARK    1  A    between atoms: C_4  and  N_5 
REMARK       I    between atoms: N_5  and  C_6 
REMARK    2  A    between atoms: C_6  and  C_7 
REMARK    3  A    between atoms: C_7  and  C_8 
ROOT
HETATM    1  C   UNL     1      43.873 -11.797   6.243  1.00  0.00     0.286 C 
HETATM    2  N   UNL     1      43.335 -11.147   7.513  1.00  0.00    -0.056 N 
HETATM    3  H   UNL     1      43.104 -10.166   7.248  1.00  0.00     0.278 HD
HETATM    4  H   UNL     1      42.452 -11.584   7.798  1.00  0.00     0.278 HD
HETATM    5  C   UNL     1      44.347 -11.169   8.631  1.00  0.00     0.209 C 
HETATM    6  C   UNL     1      45.621 -10.411   8.174  1.00  0.00     0.115 C 
HETATM    7  N   UNL     1      46.091 -10.859   6.861  1.00  0.00    -0.353 N 
HETATM    8  C   UNL     1      45.265 -11.265   5.839  1.00  0.00     0.249 C 
HETATM    9  O   UNL     1      45.679 -11.296   4.686  1.00  0.00    -0.271 OA
HETATM   10  C   UNL     1      43.718 -10.582   9.894  1.00  0.00     0.035 C 
HETATM   11  C   UNL     1      43.543  -9.068   9.831  1.00  0.00     0.002 C 
HETATM   12  C   UNL     1      44.852  -8.373   9.478  1.00  0.00     0.002 C 
HETATM   13  C   UNL     1      45.425  -8.889   8.164  1.00  0.00     0.027 C 
HETATM   14  H   UNL     1      47.000 -10.531   6.540  1.00  0.00     0.163 HD
ENDROOT
BRANCH   1  15
HETATM   15  C   UNL     1      42.864 -11.688   5.094  1.00  0.00     0.146 C 
BRANCH  15  16
HETATM   16  C   UNL     1      41.546 -12.310   5.481  1.00  0.00     0.224 C 
HETATM   17  N   UNL     1      41.199 -13.566   5.097  1.00  0.00    -0.327 N 
HETATM   18  H   UNL     1      40.224 -13.771   5.296  1.00  0.00     0.169 HD
HETATM   19  O   UNL     1      40.771 -11.651   6.187  1.00  0.00    -0.273 OA
BRANCH  17  20
HETATM   20  C   UNL     1      41.906 -14.609   4.466  1.00  0.00     0.035 A 
HETATM   21  C   UNL     1      42.796 -15.477   5.102  1.00  0.00     0.036 A 
HETATM   22  C   UNL     1      43.449 -16.497   4.388  1.00  0.00    -0.060 A 
HETATM   23  C   UNL     1      44.376 -17.450   5.087  1.00  0.00     0.048 C 
HETATM   24  C   UNL     1      43.176 -16.666   3.029  1.00  0.00     0.007 A 
HETATM   25  C   UNL     1      42.272 -15.825   2.389  1.00  0.00     0.003 A 
HETATM   26  C   UNL     1      41.637 -14.809   3.105  1.00  0.00     0.029 A 
ENDBRANCH  17  20
ENDBRANCH  15  16
ENDBRANCH   1  15
TORSDOF 3
ENDMDL
