MODEL 1
REMARK VINA RESULT:      -8.4      0.000      0.000
REMARK  6 active torsions:
REMARK  status: ('A' for Active; 'I' for Inactive)
REMARK    1  A    between atoms: O_2  and  C_3 
REMARK    2  A    between atoms: C_3  and  C_4 
REMARK    3  A    between atoms: C_4  and  N_5 
REMARK       I    between atoms: N_5  and  C_6 
REMARK    4  A    between atoms: C_6  and  C_7 
REMARK    5  A    between atoms: C_12  and  C_13 
REMARK    6  A    between atoms: C_22  and  C_23 
ROOT
HETATM    1  C   UNL     1      42.036 -11.749   5.101  1.00  0.00     0.148 C 
HETATM    2  N   UNL     1      40.859 -12.280   4.687  1.00  0.00    -0.165 NA
HETATM    3  N   UNL     1      41.244 -13.282   3.880  1.00  0.00    -0.240 N 
HETATM    4  C   UNL     1      42.588 -13.515   3.880  1.00  0.00     0.123 C 
HETATM    5  N   UNL     1      43.107 -14.600   3.271  1.00  0.00    -0.366 N 
HETATM    6  C   UNL     1      42.280 -15.724   2.830  1.00  0.00     0.118 C 
HETATM    7  C   UNL     1      40.811 -15.591   3.296  1.00  0.00     0.066 C 
HETATM    8  C   UNL     1      40.296 -14.149   3.209  1.00  0.00     0.221 C 
HETATM    9  C   UNL     1      43.143 -12.482   4.586  1.00  0.00     0.088 C 
HETATM   10  H   UNL     1      44.114 -14.761   3.258  1.00  0.00     0.161 HD
ENDROOT
BRANCH   1  11
HETATM   11  C   UNL     1      42.103 -10.607   6.025  1.00  0.00     0.272 C 
HETATM   12  N   UNL     1      42.612 -10.931   7.265  1.00  0.00    -0.354 N 
HETATM   13  H   UNL     1      43.030 -11.858   7.323  1.00  0.00     0.162 HD
HETATM   14  O   UNL     1      41.789  -9.466   5.699  1.00  0.00    -0.266 OA
BRANCH  12  15
HETATM   15  C   UNL     1      43.061  -9.905   8.179  1.00  0.00     0.149 C 
BRANCH  15  16
HETATM   16  C   UNL     1      44.068 -10.446   9.191  1.00  0.00     0.186 C 
BRANCH  16  17
HETATM   17  O   UNL     1      45.050 -11.223   8.495  1.00  0.00    -0.394 OA
HETATM   18  C   UNL     1      46.016 -10.398   7.857  1.00  0.00     0.201 C 
ENDBRANCH  16  17
ENDBRANCH  15  16
ENDBRANCH  12  15
ENDBRANCH   1  11
BRANCH   8  19
HETATM   19  C   UNL     1      40.083 -13.686   1.786  1.00  0.00     0.409 C 
HETATM   20  F   UNL     1      39.046 -12.828   1.670  1.00  0.00    -0.169 F 
HETATM   21  F   UNL     1      41.168 -13.100   1.239  1.00  0.00    -0.169 F 
HETATM   22  F   UNL     1      39.789 -14.756   1.000  1.00  0.00    -0.169 F 
ENDBRANCH   8  19
BRANCH   6  23
HETATM   23  C   UNL     1      42.894 -17.014   3.356  1.00  0.00    -0.034 A 
HETATM   24  C   UNL     1      43.107 -18.105   2.499  1.00  0.00     0.034 A 
HETATM   25  C   UNL     1      43.669 -19.294   2.982  1.00  0.00     0.056 A 
HETATM   26 CL   UNL     1      43.899 -20.585   1.857  1.00  0.00    -0.083 Cl
HETATM   27  C   UNL     1      44.022 -19.406   4.331  1.00  0.00     0.055 A 
HETATM   28 CL   UNL     1      44.714 -20.842   4.996  1.00  0.00    -0.083 Cl
HETATM   29  C   UNL     1      43.815 -18.326   5.192  1.00  0.00     0.026 A 
HETATM   30  C   UNL     1      43.258 -17.141   4.709  1.00  0.00     0.011 A 
ENDBRANCH   6  23
TORSDOF 6
ENDMDL
MODEL 2
REMARK VINA RESULT:      -8.3      1.929      2.209
REMARK  6 active torsions:
REMARK  status: ('A' for Active; 'I' for Inactive)
REMARK    1  A    between atoms: O_2  and  C_3 
REMARK    2  A    between atoms: C_3  and  C_4 
REMARK    3  A    between atoms: C_4  and  N_5 
REMARK       I    between atoms: N_5  and  C_6 
REMARK    4  A    between atoms: C_6  and  C_7 
REMARK    5  A    between atoms: C_12  and  C_13 
REMARK    6  A    between atoms: C_22  and  C_23 
ROOT
HETATM    1  C   UNL     1      40.287 -12.398   5.325  1.00  0.00     0.148 C 
HETATM    2  N   UNL     1      39.581 -12.934   4.300  1.00  0.00    -0.165 NA
HETATM    3  N   UNL     1      40.505 -13.642   3.630  1.00  0.00    -0.240 N 
HETATM    4  C   UNL     1      41.716 -13.713   4.255  1.00  0.00     0.123 C 
HETATM    5  N   UNL     1      42.685 -14.536   3.806  1.00  0.00    -0.366 N 
HETATM    6  C   UNL     1      42.425 -15.594   2.830  1.00  0.00     0.118 C 
HETATM    7  C   UNL     1      40.918 -15.756   2.524  1.00  0.00     0.066 C 
HETATM    8  C   UNL     1      40.188 -14.409   2.442  1.00  0.00     0.221 C 
HETATM    9  C   UNL     1      41.641 -12.841   5.307  1.00  0.00     0.088 C 
HETATM   10  H   UNL     1      43.595 -14.572   4.265  1.00  0.00     0.161 HD
ENDROOT
BRANCH   1  11
HETATM   11  C   UNL     1      39.668 -11.533   6.341  1.00  0.00     0.272 C 
HETATM   12  N   UNL     1      40.573 -10.733   7.007  1.00  0.00    -0.354 N 
HETATM   13  H   UNL     1      41.505 -10.714   6.598  1.00  0.00     0.162 HD
HETATM   14  O   UNL     1      38.457 -11.493   6.534  1.00  0.00    -0.266 OA
BRANCH  12  15
HETATM   15  C   UNL     1      40.132  -9.599   7.788  1.00  0.00     0.149 C 
BRANCH  15  16
HETATM   16  C   UNL     1      41.212  -9.120   8.754  1.00  0.00     0.186 C 
BRANCH  16  17
HETATM   17  O   UNL     1      40.770  -9.356  10.096  1.00  0.00    -0.394 OA
HETATM   18  C   UNL     1      39.365  -9.557  10.157  1.00  0.00     0.201 C 
ENDBRANCH  16  17
ENDBRANCH  15  16
ENDBRANCH  12  15
ENDBRANCH   1  11
BRANCH   8  19
HETATM   19  C   UNL     1      40.546 -13.621   1.203  1.00  0.00     0.409 C 
HETATM   20  F   UNL     1      39.518 -12.875   0.747  1.00  0.00    -0.169 F 
HETATM   21  F   UNL     1      41.608 -12.805   1.368  1.00  0.00    -0.169 F 
HETATM   22  F   UNL     1      40.875 -14.478   0.200  1.00  0.00    -0.169 F 
ENDBRANCH   8  19
BRANCH   6  23
HETATM   23  C   UNL     1      43.006 -16.898   3.360  1.00  0.00    -0.034 A 
HETATM   24  C   UNL     1      43.160 -18.007   2.515  1.00  0.00     0.034 A 
HETATM   25  C   UNL     1      43.692 -19.209   3.003  1.00  0.00     0.056 A 
HETATM   26 CL   UNL     1      43.850 -20.523   1.892  1.00  0.00    -0.083 Cl
HETATM   27  C   UNL     1      44.073 -19.314   4.344  1.00  0.00     0.055 A 
HETATM   28 CL   UNL     1      44.731 -20.763   5.014  1.00  0.00    -0.083 Cl
HETATM   29  C   UNL     1      43.925 -18.216   5.193  1.00  0.00     0.026 A 
HETATM   30  C   UNL     1      43.398 -17.019   4.706  1.00  0.00     0.011 A 
ENDBRANCH   6  23
TORSDOF 6
ENDMDL
MODEL 3
REMARK VINA RESULT:      -8.3      4.166      6.358
REMARK  6 active torsions:
REMARK  status: ('A' for Active; 'I' for Inactive)
REMARK    1  A    between atoms: O_2  and  C_3 
REMARK    2  A    between atoms: C_3  and  C_4 
REMARK    3  A    between atoms: C_4  and  N_5 
REMARK       I    between atoms: N_5  and  C_6 
REMARK    4  A    between atoms: C_6  and  C_7 
REMARK    5  A    between atoms: C_12  and  C_13 
REMARK    6  A    between atoms: C_22  and  C_23 
ROOT
HETATM    1  C   UNL     1      40.190 -14.258  -0.185  1.00  0.00     0.148 C 
HETATM    2  N   UNL     1      41.231 -13.490   0.218  1.00  0.00    -0.165 NA
HETATM    3  N   UNL     1      41.465 -13.924   1.467  1.00  0.00    -0.240 N 
HETATM    4  C   UNL     1      40.738 -15.023   1.822  1.00  0.00     0.123 C 
HETATM    5  N   UNL     1      40.993 -15.688   2.967  1.00  0.00    -0.366 N 
HETATM    6  C   UNL     1      42.212 -15.468   3.747  1.00  0.00     0.118 C 
HETATM    7  C   UNL     1      43.216 -14.541   3.022  1.00  0.00     0.066 C 
HETATM    8  C   UNL     1      42.523 -13.381   2.295  1.00  0.00     0.221 C 
HETATM    9  C   UNL     1      39.833 -15.211   0.813  1.00  0.00     0.088 C 
HETATM   10  H   UNL     1      40.436 -16.497   3.238  1.00  0.00     0.161 HD
ENDROOT
BRANCH   1  11
HETATM   11  C   UNL     1      39.589 -14.133  -1.522  1.00  0.00     0.272 C 
HETATM   12  N   UNL     1      38.237 -13.861  -1.493  1.00  0.00    -0.354 N 
HETATM   13  H   UNL     1      37.873 -13.612  -0.576  1.00  0.00     0.162 HD
HETATM   14  O   UNL     1      40.243 -14.208  -2.556  1.00  0.00    -0.266 OA
BRANCH  12  15
HETATM   15  C   UNL     1      37.548 -13.380  -2.670  1.00  0.00     0.149 C 
BRANCH  15  16
HETATM   16  C   UNL     1      37.363 -11.866  -2.642  1.00  0.00     0.186 C 
BRANCH  16  17
HETATM   17  O   UNL     1      38.551 -11.246  -3.149  1.00  0.00    -0.394 OA
HETATM   18  C   UNL     1      39.035 -10.241  -2.269  1.00  0.00     0.201 C 
ENDBRANCH  16  17
ENDBRANCH  15  16
ENDBRANCH  12  15
ENDBRANCH   1  11
BRANCH   8  19
HETATM   19  C   UNL     1      41.963 -12.345   3.243  1.00  0.00     0.409 C 
HETATM   20  F   UNL     1      42.138 -11.084   2.793  1.00  0.00    -0.169 F 
HETATM   21  F   UNL     1      40.652 -12.510   3.512  1.00  0.00    -0.169 F 
HETATM   22  F   UNL     1      42.612 -12.423   4.435  1.00  0.00    -0.169 F 
ENDBRANCH   8  19
BRANCH   6  23
HETATM   23  C   UNL     1      42.849 -16.819   4.042  1.00  0.00    -0.034 A 
HETATM   24  C   UNL     1      43.031 -17.763   3.019  1.00  0.00     0.034 A 
HETATM   25  C   UNL     1      43.614 -19.007   3.291  1.00  0.00     0.056 A 
HETATM   26 CL   UNL     1      43.803 -20.107   1.972  1.00  0.00    -0.083 Cl
HETATM   27  C   UNL     1      44.021 -19.323   4.591  1.00  0.00     0.055 A 
HETATM   28 CL   UNL     1      44.743 -20.838   4.998  1.00  0.00    -0.083 Cl
HETATM   29  C   UNL     1      43.846 -18.391   5.616  1.00  0.00     0.026 A 
HETATM   30  C   UNL     1      43.267 -17.150   5.344  1.00  0.00     0.011 A 
ENDBRANCH   6  23
TORSDOF 6
ENDMDL
MODEL 4
REMARK VINA RESULT:      -7.8      3.454      6.097
REMARK  6 active torsions:
REMARK  status: ('A' for Active; 'I' for Inactive)
REMARK    1  A    between atoms: O_2  and  C_3 
REMARK    2  A    between atoms: C_3  and  C_4 
REMARK    3  A    between atoms: C_4  and  N_5 
REMARK       I    between atoms: N_5  and  C_6 
REMARK    4  A    between atoms: C_6  and  C_7 
REMARK    5  A    between atoms: C_12  and  C_13 
REMARK    6  A    between atoms: C_22  and  C_23 
ROOT
HETATM    1  C   UNL     1      41.050 -13.081   0.813  1.00  0.00     0.148 C 
HETATM    2  N   UNL     1      41.772 -12.429   1.757  1.00  0.00    -0.165 NA
HETATM    3  N   UNL     1      41.657 -13.225   2.833  1.00  0.00    -0.240 N 
HETATM    4  C   UNL     1      41.038 -14.415   2.584  1.00  0.00     0.123 C 
HETATM    5  N   UNL     1      41.012 -15.395   3.509  1.00  0.00    -0.366 N 
HETATM    6  C   UNL     1      41.866 -15.373   4.698  1.00  0.00     0.118 C 
HETATM    7  C   UNL     1      42.890 -14.215   4.667  1.00  0.00     0.066 C 
HETATM    8  C   UNL     1      42.294 -12.920   4.098  1.00  0.00     0.221 C 
HETATM    9  C   UNL     1      40.547 -14.317   1.310  1.00  0.00     0.088 C 
HETATM   10  H   UNL     1      40.533 -16.276   3.326  1.00  0.00     0.161 HD
ENDROOT
BRANCH   1  11
HETATM   11  C   UNL     1      40.899 -12.568  -0.557  1.00  0.00     0.272 C 
HETATM   12  N   UNL     1      40.675 -13.556  -1.492  1.00  0.00    -0.354 N 
HETATM   13  H   UNL     1      40.471 -14.473  -1.101  1.00  0.00     0.162 HD
HETATM   14  O   UNL     1      40.915 -11.371  -0.826  1.00  0.00    -0.266 OA
BRANCH  12  15
HETATM   15  C   UNL     1      40.177 -13.235  -2.812  1.00  0.00     0.149 C 
BRANCH  15  16
HETATM   16  C   UNL     1      38.868 -13.958  -3.117  1.00  0.00     0.186 C 
BRANCH  16  17
HETATM   17  O   UNL     1      37.908 -13.620  -2.110  1.00  0.00    -0.394 OA
HETATM   18  C   UNL     1      37.361 -12.325  -2.321  1.00  0.00     0.201 C 
ENDBRANCH  16  17
ENDBRANCH  15  16
ENDBRANCH  12  15
ENDBRANCH   1  11
BRANCH   8  19
HETATM   19  C   UNL     1      41.303 -12.268   5.036  1.00  0.00     0.409 C 
HETATM   20  F   UNL     1      41.373 -10.920   5.007  1.00  0.00    -0.169 F 
HETATM   21  F   UNL     1      40.023 -12.622   4.802  1.00  0.00    -0.169 F 
HETATM   22  F   UNL     1      41.576 -12.642   6.315  1.00  0.00    -0.169 F 
ENDBRANCH   8  19
BRANCH   6  23
HETATM   23  C   UNL     1      42.578 -16.714   4.809  1.00  0.00    -0.034 A 
HETATM   24  C   UNL     1      42.948 -17.424   3.656  1.00  0.00     0.034 A 
HETATM   25  C   UNL     1      43.601 -18.659   3.757  1.00  0.00     0.056 A 
HETATM   26 CL   UNL     1      44.023 -19.463   2.287  1.00  0.00    -0.083 Cl
HETATM   27  C   UNL     1      43.890 -19.200   5.014  1.00  0.00     0.055 A 
HETATM   28 CL   UNL     1      44.689 -20.719   5.212  1.00  0.00    -0.083 Cl
HETATM   29  C   UNL     1      43.528 -18.502   6.167  1.00  0.00     0.026 A 
HETATM   30  C   UNL     1      42.880 -17.270   6.065  1.00  0.00     0.011 A 
ENDBRANCH   6  23
TORSDOF 6
ENDMDL
MODEL 5
REMARK VINA RESULT:      -7.8      5.009      7.563
REMARK  6 active torsions:
REMARK  status: ('A' for Active; 'I' for Inactive)
REMARK    1  A    between atoms: O_2  and  C_3 
REMARK    2  A    between atoms: C_3  and  C_4 
REMARK    3  A    between atoms: C_4  and  N_5 
REMARK       I    between atoms: N_5  and  C_6 
REMARK    4  A    between atoms: C_6  and  C_7 
REMARK    5  A    between atoms: C_12  and  C_13 
REMARK    6  A    between atoms: C_22  and  C_23 
ROOT
HETATM    1  C   UNL     1      41.808 -16.381   2.417  1.00  0.00     0.148 C 
HETATM    2  N   UNL     1      42.013 -15.618   1.315  1.00  0.00    -0.165 NA
HETATM    3  N   UNL     1      40.957 -14.788   1.318  1.00  0.00    -0.240 N 
HETATM    4  C   UNL     1      40.181 -14.875   2.436  1.00  0.00     0.123 C 
HETATM    5  N   UNL     1      39.198 -13.983   2.674  1.00  0.00    -0.366 N 
HETATM    6  C   UNL     1      39.081 -12.729   1.931  1.00  0.00     0.118 C 
HETATM    7  C   UNL     1      40.288 -12.484   0.994  1.00  0.00     0.066 C 
HETATM    8  C   UNL     1      40.765 -13.769   0.306  1.00  0.00     0.221 C 
HETATM    9  C   UNL     1      40.646 -15.961   3.127  1.00  0.00     0.088 C 
HETATM   10  H   UNL     1      38.608 -14.063   3.502  1.00  0.00     0.161 HD
ENDROOT
BRANCH   1  11
HETATM   11  C   UNL     1      42.738 -17.445   2.822  1.00  0.00     0.272 C 
HETATM   12  N   UNL     1      43.494 -17.123   3.930  1.00  0.00    -0.354 N 
HETATM   13  H   UNL     1      43.193 -16.282   4.419  1.00  0.00     0.162 HD
HETATM   14  O   UNL     1      42.792 -18.534   2.259  1.00  0.00    -0.266 OA
BRANCH  12  15
HETATM   15  C   UNL     1      44.208 -18.141   4.668  1.00  0.00     0.149 C 
BRANCH  15  16
HETATM   16  C   UNL     1      43.527 -18.464   5.995  1.00  0.00     0.186 C 
BRANCH  16  17
HETATM   17  O   UNL     1      43.505 -19.885   6.169  1.00  0.00    -0.394 OA
HETATM   18  C   UNL     1      44.234 -20.550   5.146  1.00  0.00     0.201 C 
ENDBRANCH  16  17
ENDBRANCH  15  16
ENDBRANCH  12  15
ENDBRANCH   1  11
BRANCH   8  19
HETATM   19  C   UNL     1      39.805 -14.260  -0.753  1.00  0.00     0.409 C 
HETATM   20  F   UNL     1      39.352 -15.508  -0.504  1.00  0.00    -0.169 F 
HETATM   21  F   UNL     1      38.734 -13.459  -0.927  1.00  0.00    -0.169 F 
HETATM   22  F   UNL     1      40.442 -14.314  -1.953  1.00  0.00    -0.169 F 
ENDBRANCH   8  19
BRANCH   6  23
HETATM   23  C   UNL     1      38.936 -11.586   2.926  1.00  0.00    -0.034 A 
HETATM   24  C   UNL     1      39.243 -11.776   4.282  1.00  0.00     0.034 A 
HETATM   25  C   UNL     1      39.107 -10.726   5.200  1.00  0.00     0.056 A 
HETATM   26 CL   UNL     1      39.509 -11.048   6.849  1.00  0.00    -0.083 Cl
HETATM   27  C   UNL     1      38.660  -9.472   4.770  1.00  0.00     0.055 A 
HETATM   28 CL   UNL     1      38.466  -8.135   5.846  1.00  0.00    -0.083 Cl
HETATM   29  C   UNL     1      38.354  -9.271   3.423  1.00  0.00     0.026 A 
HETATM   30  C   UNL     1      38.492 -10.318   2.509  1.00  0.00     0.011 A 
ENDBRANCH   6  23
TORSDOF 6
ENDMDL
MODEL 6
REMARK VINA RESULT:      -7.7      3.928      5.178
REMARK  6 active torsions:
REMARK  status: ('A' for Active; 'I' for Inactive)
REMARK    1  A    between atoms: O_2  and  C_3 
REMARK    2  A    between atoms: C_3  and  C_4 
REMARK    3  A    between atoms: C_4  and  N_5 
REMARK       I    between atoms: N_5  and  C_6 
REMARK    4  A    between atoms: C_6  and  C_7 
REMARK    5  A    between atoms: C_12  and  C_13 
REMARK    6  A    between atoms: C_22  and  C_23 
ROOT
HETATM    1  C   UNL     1      43.952 -11.983   7.015  1.00  0.00     0.148 C 
HETATM    2  N   UNL     1      44.380 -13.268   6.967  1.00  0.00    -0.165 NA
HETATM    3  N   UNL     1      43.328 -13.922   6.447  1.00  0.00    -0.240 N 
HETATM    4  C   UNL     1      42.320 -13.107   6.021  1.00  0.00     0.123 C 
HETATM    5  N   UNL     1      41.283 -13.595   5.310  1.00  0.00    -0.366 N 
HETATM    6  C   UNL     1      41.302 -14.929   4.711  1.00  0.00     0.118 C 
HETATM    7  C   UNL     1      42.682 -15.614   4.841  1.00  0.00     0.066 C 
HETATM    8  C   UNL     1      43.342 -15.349   6.201  1.00  0.00     0.221 C 
HETATM    9  C   UNL     1      42.647 -11.852   6.458  1.00  0.00     0.088 C 
HETATM   10  H   UNL     1      40.523 -12.986   5.009  1.00  0.00     0.161 HD
ENDROOT
BRANCH   1  11
HETATM   11  C   UNL     1      44.796 -10.890   7.520  1.00  0.00     0.272 C 
HETATM   12  N   UNL     1      44.077  -9.801   7.965  1.00  0.00    -0.354 N 
HETATM   13  H   UNL     1      43.075  -9.959   8.049  1.00  0.00     0.162 HD
HETATM   14  O   UNL     1      46.019 -10.968   7.588  1.00  0.00    -0.266 OA
BRANCH  12  15
HETATM   15  C   UNL     1      44.693  -8.785   8.789  1.00  0.00     0.149 C 
BRANCH  15  16
HETATM   16  C   UNL     1      43.880  -8.504  10.049  1.00  0.00     0.186 C 
BRANCH  16  17
HETATM   17  O   UNL     1      44.270  -9.433  11.067  1.00  0.00    -0.394 OA
HETATM   18  C   UNL     1      43.149 -10.118  11.610  1.00  0.00     0.201 C 
ENDBRANCH  16  17
ENDBRANCH  15  16
ENDBRANCH  12  15
ENDBRANCH   1  11
BRANCH   8  19
HETATM   19  C   UNL     1      42.663 -16.081   7.336  1.00  0.00     0.409 C 
HETATM   20  F   UNL     1      43.016 -15.601   8.547  1.00  0.00    -0.169 F 
HETATM   21  F   UNL     1      41.316 -16.066   7.261  1.00  0.00    -0.169 F 
HETATM   22  F   UNL     1      43.032 -17.390   7.317  1.00  0.00    -0.169 F 
ENDBRANCH   8  19
BRANCH   6  23
HETATM   23  C   UNL     1      40.900 -14.810   3.247  1.00  0.00    -0.034 A 
HETATM   24  C   UNL     1      41.100 -13.610   2.547  1.00  0.00     0.034 A 
HETATM   25  C   UNL     1      40.728 -13.498   1.201  1.00  0.00     0.056 A 
HETATM   26 CL   UNL     1      41.013 -11.986   0.415  1.00  0.00    -0.083 Cl
HETATM   27  C   UNL     1      40.149 -14.587   0.540  1.00  0.00     0.055 A 
HETATM   28 CL   UNL     1      39.664 -14.518  -1.117  1.00  0.00    -0.083 Cl
HETATM   29  C   UNL     1      39.948 -15.785   1.226  1.00  0.00     0.026 A 
HETATM   30  C   UNL     1      40.321 -15.897   2.567  1.00  0.00     0.011 A 
ENDBRANCH   6  23
TORSDOF 6
ENDMDL
MODEL 7
REMARK VINA RESULT:      -7.7      3.498      5.163
REMARK  6 active torsions:
REMARK  status: ('A' for Active; 'I' for Inactive)
REMARK    1  A    between atoms: O_2  and  C_3 
REMARK    2  A    between atoms: C_3  and  C_4 
REMARK    3  A    between atoms: C_4  and  N_5 
REMARK       I    between atoms: N_5  and  C_6 
REMARK    4  A    between atoms: C_6  and  C_7 
REMARK    5  A    between atoms: C_12  and  C_13 
REMARK    6  A    between atoms: C_22  and  C_23 
ROOT
HETATM    1  C   UNL     1      42.470 -12.309   5.748  1.00  0.00     0.148 C 
HETATM    2  N   UNL     1      43.303 -13.273   5.285  1.00  0.00    -0.165 NA
HETATM    3  N   UNL     1      42.544 -13.932   4.395  1.00  0.00    -0.240 N 
HETATM    4  C   UNL     1      41.333 -13.350   4.154  1.00  0.00     0.123 C 
HETATM    5  N   UNL     1      40.538 -13.783   3.155  1.00  0.00    -0.366 N 
HETATM    6  C   UNL     1      41.017 -14.682   2.105  1.00  0.00     0.118 C 
HETATM    7  C   UNL     1      42.543 -14.921   2.185  1.00  0.00     0.066 C 
HETATM    8  C   UNL     1      43.040 -15.058   3.630  1.00  0.00     0.221 C 
HETATM    9  C   UNL     1      41.211 -12.351   5.081  1.00  0.00     0.088 C 
HETATM   10  H   UNL     1      39.626 -13.357   2.990  1.00  0.00     0.161 HD
ENDROOT
BRANCH   1  11
HETATM   11  C   UNL     1      42.887 -11.326   6.759  1.00  0.00     0.272 C 
HETATM   12  N   UNL     1      43.835 -11.807   7.636  1.00  0.00    -0.354 N 
HETATM   13  H   UNL     1      44.245 -12.701   7.371  1.00  0.00     0.162 HD
HETATM   14  O   UNL     1      42.469 -10.172   6.778  1.00  0.00    -0.266 OA
BRANCH  12  15
HETATM   15  C   UNL     1      44.601 -10.911   8.474  1.00  0.00     0.149 C 
BRANCH  15  16
HETATM   16  C   UNL     1      45.963 -10.590   7.866  1.00  0.00     0.186 C 
BRANCH  16  17
HETATM   17  O   UNL     1      46.247  -9.202   8.074  1.00  0.00    -0.394 OA
HETATM   18  C   UNL     1      45.120  -8.508   8.590  1.00  0.00     0.201 C 
ENDBRANCH  16  17
ENDBRANCH  15  16
ENDBRANCH  12  15
ENDBRANCH   1  11
BRANCH   8  19
HETATM   19  C   UNL     1      42.614 -16.356   4.278  1.00  0.00     0.409 C 
HETATM   20  F   UNL     1      42.218 -17.280   3.376  1.00  0.00    -0.169 F 
HETATM   21  F   UNL     1      43.568 -16.914   5.051  1.00  0.00    -0.169 F 
HETATM   22  F   UNL     1      41.547 -16.128   5.090  1.00  0.00    -0.169 F 
ENDBRANCH   8  19
BRANCH   6  23
HETATM   23  C   UNL     1      40.638 -14.095   0.752  1.00  0.00    -0.034 A 
HETATM   24  C   UNL     1      39.924 -14.859  -0.184  1.00  0.00     0.034 A 
HETATM   25  C   UNL     1      39.577 -14.321  -1.430  1.00  0.00     0.056 A 
HETATM   26 CL   UNL     1      38.695 -15.330  -2.520  1.00  0.00    -0.083 Cl
HETATM   27  C   UNL     1      39.943 -13.010  -1.755  1.00  0.00     0.055 A 
HETATM   28 CL   UNL     1      39.553 -12.284  -3.272  1.00  0.00    -0.083 Cl
HETATM   29  C   UNL     1      40.652 -12.241  -0.830  1.00  0.00     0.026 A 
HETATM   30  C   UNL     1      40.995 -12.778   0.412  1.00  0.00     0.011 A 
ENDBRANCH   6  23
TORSDOF 6
ENDMDL
MODEL 8
REMARK VINA RESULT:      -7.5      4.734      7.634
REMARK  6 active torsions:
REMARK  status: ('A' for Active; 'I' for Inactive)
REMARK    1  A    between atoms: O_2  and  C_3 
REMARK    2  A    between atoms: C_3  and  C_4 
REMARK    3  A    between atoms: C_4  and  N_5 
REMARK       I    between atoms: N_5  and  C_6 
REMARK    4  A    between atoms: C_6  and  C_7 
REMARK    5  A    between atoms: C_12  and  C_13 
REMARK    6  A    between atoms: C_22  and  C_23 
ROOT
HETATM    1  C   UNL     1      40.180 -14.294   0.020  1.00  0.00     0.148 C 
HETATM    2  N   UNL     1      40.183 -15.356   0.861  1.00  0.00    -0.165 NA
HETATM    3  N   UNL     1      41.191 -15.076   1.703  1.00  0.00    -0.240 N 
HETATM    4  C   UNL     1      41.724 -13.831   1.542  1.00  0.00     0.123 C 
HETATM    5  N   UNL     1      42.611 -13.332   2.426  1.00  0.00    -0.366 N 
HETATM    6  C   UNL     1      42.841 -13.943   3.736  1.00  0.00     0.118 C 
HETATM    7  C   UNL     1      41.845 -15.088   4.034  1.00  0.00     0.066 C 
HETATM    8  C   UNL     1      41.556 -15.951   2.799  1.00  0.00     0.221 C 
HETATM    9  C   UNL     1      41.159 -13.331   0.400  1.00  0.00     0.088 C 
HETATM   10  H   UNL     1      43.020 -12.407   2.292  1.00  0.00     0.161 HD
ENDROOT
BRANCH   1  11
HETATM   11  C   UNL     1      39.217 -14.166  -1.085  1.00  0.00     0.272 C 
HETATM   12  N   UNL     1      38.362 -13.093  -0.949  1.00  0.00    -0.354 N 
HETATM   13  H   UNL     1      38.615 -12.440  -0.210  1.00  0.00     0.162 HD
HETATM   14  O   UNL     1      39.218 -14.913  -2.059  1.00  0.00    -0.266 OA
BRANCH  12  15
HETATM   15  C   UNL     1      37.584 -12.612  -2.069  1.00  0.00     0.149 C 
BRANCH  15  16
HETATM   16  C   UNL     1      38.336 -11.553  -2.870  1.00  0.00     0.186 C 
BRANCH  16  17
HETATM   17  O   UNL     1      39.219 -10.848  -1.989  1.00  0.00    -0.394 OA
HETATM   18  C   UNL     1      40.494 -10.639  -2.581  1.00  0.00     0.201 C 
ENDBRANCH  16  17
ENDBRANCH  15  16
ENDBRANCH  12  15
ENDBRANCH   1  11
BRANCH   8  19
HETATM   19  C   UNL     1      42.727 -16.821   2.403  1.00  0.00     0.409 C 
HETATM   20  F   UNL     1      42.356 -18.083   2.099  1.00  0.00    -0.169 F 
HETATM   21  F   UNL     1      43.435 -16.336   1.362  1.00  0.00    -0.169 F 
HETATM   22  F   UNL     1      43.596 -16.915   3.445  1.00  0.00    -0.169 F 
ENDBRANCH   8  19
BRANCH   6  23
HETATM   23  C   UNL     1      42.746 -12.859   4.801  1.00  0.00    -0.034 A 
HETATM   24  C   UNL     1      43.843 -12.570   5.626  1.00  0.00     0.034 A 
HETATM   25  C   UNL     1      43.755 -11.576   6.609  1.00  0.00     0.056 A 
HETATM   26 CL   UNL     1      45.155 -11.283   7.578  1.00  0.00    -0.083 Cl
HETATM   27  C   UNL     1      42.566 -10.860   6.779  1.00  0.00     0.055 A 
HETATM   28 CL   UNL     1      42.386  -9.624   7.972  1.00  0.00    -0.083 Cl
HETATM   29  C   UNL     1      41.469 -11.138   5.962  1.00  0.00     0.026 A 
HETATM   30  C   UNL     1      41.558 -12.127   4.981  1.00  0.00     0.011 A 
ENDBRANCH   6  23
TORSDOF 6
ENDMDL
MODEL 9
REMARK VINA RESULT:      -7.4      2.845      3.151
REMARK  6 active torsions:
REMARK  status: ('A' for Active; 'I' for Inactive)
REMARK    1  A    between atoms: O_2  and  C_3 
REMARK    2  A    between atoms: C_3  and  C_4 
REMARK    3  A    between atoms: C_4  and  N_5 
REMARK       I    between atoms: N_5  and  C_6 
REMARK    4  A    between atoms: C_6  and  C_7 
REMARK    5  A    between atoms: C_12  and  C_13 
REMARK    6  A    between atoms: C_22  and  C_23 
ROOT
HETATM    1  C   UNL     1      40.818 -11.145   2.520  1.00  0.00     0.148 C 
HETATM    2  N   UNL     1      39.799 -11.928   2.089  1.00  0.00    -0.165 NA
HETATM    3  N   UNL     1      40.429 -13.012   1.608  1.00  0.00    -0.240 N 
HETATM    4  C   UNL     1      41.772 -13.031   1.849  1.00  0.00     0.123 C 
HETATM    5  N   UNL     1      42.510 -14.131   1.597  1.00  0.00    -0.366 N 
HETATM    6  C   UNL     1      41.906 -15.437   1.332  1.00  0.00     0.118 C 
HETATM    7  C   UNL     1      40.375 -15.432   1.546  1.00  0.00     0.066 C 
HETATM    8  C   UNL     1      39.717 -14.140   1.043  1.00  0.00     0.221 C 
HETATM    9  C   UNL     1      42.075 -11.795   2.354  1.00  0.00     0.088 C 
HETATM   10  H   UNL     1      43.516 -14.134   1.762  1.00  0.00     0.161 HD
ENDROOT
BRANCH   1  11
HETATM   11  C   UNL     1      40.595  -9.831   3.140  1.00  0.00     0.272 C 
HETATM   12  N   UNL     1      40.212  -9.905   4.463  1.00  0.00    -0.354 N 
HETATM   13  H   UNL     1      40.303 -10.829   4.880  1.00  0.00     0.162 HD
HETATM   14  O   UNL     1      40.786  -8.773   2.549  1.00  0.00    -0.266 OA
BRANCH  12  15
HETATM   15  C   UNL     1      40.269  -8.743   5.323  1.00  0.00     0.149 C 
BRANCH  15  16
HETATM   16  C   UNL     1      39.004  -8.595   6.163  1.00  0.00     0.186 C 
BRANCH  16  17
HETATM   17  O   UNL     1      38.671  -9.870   6.725  1.00  0.00    -0.394 OA
HETATM   18  C   UNL     1      39.319 -10.078   7.973  1.00  0.00     0.201 C 
ENDBRANCH  16  17
ENDBRANCH  15  16
ENDBRANCH  12  15
ENDBRANCH   1  11
BRANCH   8  19
HETATM   19  C   UNL     1      39.694 -14.041  -0.465  1.00  0.00     0.409 C 
HETATM   20  F   UNL     1      40.805 -13.456  -0.962  1.00  0.00    -0.169 F 
HETATM   21  F   UNL     1      39.540 -15.229  -1.084  1.00  0.00    -0.169 F 
HETATM   22  F   UNL     1      38.644 -13.268  -0.853  1.00  0.00    -0.169 F 
ENDBRANCH   8  19
BRANCH   6  23
HETATM   23  C   UNL     1      42.569 -16.470   2.233  1.00  0.00    -0.034 A 
HETATM   24  C   UNL     1      42.744 -17.792   1.796  1.00  0.00     0.034 A 
HETATM   25  C   UNL     1      43.351 -18.744   2.625  1.00  0.00     0.056 A 
HETATM   26 CL   UNL     1      43.529 -20.347   2.005  1.00  0.00    -0.083 Cl
HETATM   27  C   UNL     1      43.788 -18.385   3.904  1.00  0.00     0.055 A 
HETATM   28 CL   UNL     1      44.540 -19.507   4.980  1.00  0.00    -0.083 Cl
HETATM   29  C   UNL     1      43.620 -17.072   4.349  1.00  0.00     0.026 A 
HETATM   30  C   UNL     1      43.018 -16.123   3.520  1.00  0.00     0.011 A 
ENDBRANCH   6  23
TORSDOF 6
ENDMDL
MODEL 10
REMARK VINA RESULT:      -7.3      5.005      8.081
REMARK  6 active torsions:
REMARK  status: ('A' for Active; 'I' for Inactive)
REMARK    1  A    between atoms: O_2  and  C_3 
REMARK    2  A    between atoms: C_3  and  C_4 
REMARK    3  A    between atoms: C_4  and  N_5 
REMARK       I    between atoms: N_5  and  C_6 
REMARK    4  A    between atoms: C_6  and  C_7 
REMARK    5  A    between atoms: C_12  and  C_13 
REMARK    6  A    between atoms: C_22  and  C_23 
ROOT
HETATM    1  C   UNL     1      40.989 -14.305   1.947  1.00  0.00     0.148 C 
HETATM    2  N   UNL     1      40.843 -15.109   3.029  1.00  0.00    -0.165 NA
HETATM    3  N   UNL     1      41.817 -14.690   3.853  1.00  0.00    -0.240 N 
HETATM    4  C   UNL     1      42.469 -13.571   3.425  1.00  0.00     0.123 C 
HETATM    5  N   UNL     1      43.340 -12.922   4.224  1.00  0.00    -0.366 N 
HETATM    6  C   UNL     1      43.432 -13.185   5.661  1.00  0.00     0.118 C 
HETATM    7  C   UNL     1      42.320 -14.139   6.157  1.00  0.00     0.066 C 
HETATM    8  C   UNL     1      42.033 -15.272   5.163  1.00  0.00     0.221 C 
HETATM    9  C   UNL     1      42.024 -13.348   2.150  1.00  0.00     0.088 C 
HETATM   10  H   UNL     1      43.839 -12.097   3.893  1.00  0.00     0.161 HD
ENDROOT
BRANCH   1  11
HETATM   11  C   UNL     1      40.113 -14.403   0.769  1.00  0.00     0.272 C 
HETATM   12  N   UNL     1      39.799 -13.180   0.215  1.00  0.00    -0.354 N 
HETATM   13  H   UNL     1      40.342 -12.398   0.575  1.00  0.00     0.162 HD
HETATM   14  O   UNL     1      39.748 -15.475   0.298  1.00  0.00    -0.266 OA
BRANCH  12  15
HETATM   15  C   UNL     1      39.239 -13.086  -1.115  1.00  0.00     0.149 C 
BRANCH  15  16
HETATM   16  C   UNL     1      40.310 -13.216  -2.194  1.00  0.00     0.186 C 
BRANCH  16  17
HETATM   17  O   UNL     1      39.733 -13.842  -3.346  1.00  0.00    -0.394 OA
HETATM   18  C   UNL     1      38.693 -14.742  -2.987  1.00  0.00     0.201 C 
ENDBRANCH  16  17
ENDBRANCH  15  16
ENDBRANCH  12  15
ENDBRANCH   1  11
BRANCH   8  19
HETATM   19  C   UNL     1      43.143 -16.296   5.102  1.00  0.00     0.409 C 
HETATM   20  F   UNL     1      42.700 -17.554   5.312  1.00  0.00    -0.169 F 
HETATM   21  F   UNL     1      43.825 -16.286   3.938  1.00  0.00    -0.169 F 
HETATM   22  F   UNL     1      44.052 -16.038   6.080  1.00  0.00    -0.169 F 
ENDBRANCH   8  19
BRANCH   6  23
HETATM   23  C   UNL     1      43.367 -11.857   6.403  1.00  0.00    -0.034 A 
HETATM   24  C   UNL     1      44.304 -11.551   7.401  1.00  0.00     0.034 A 
HETATM   25  C   UNL     1      44.244 -10.330   8.087  1.00  0.00     0.056 A 
HETATM   26 CL   UNL     1      45.440 -10.034   9.298  1.00  0.00    -0.083 Cl
HETATM   27  C   UNL     1      43.243  -9.402   7.781  1.00  0.00     0.055 A 
HETATM   28 CL   UNL     1      43.107  -7.881   8.588  1.00  0.00    -0.083 Cl
HETATM   29  C   UNL     1      42.307  -9.696   6.789  1.00  0.00     0.026 A 
HETATM   30  C   UNL     1      42.369 -10.912   6.104  1.00  0.00     0.011 A 
ENDBRANCH   6  23
TORSDOF 6
ENDMDL
