MODEL 1
REMARK VINA RESULT:      -8.3      0.000      0.000
REMARK  6 active torsions:
REMARK  status: ('A' for Active; 'I' for Inactive)
REMARK    1  A    between atoms: C_4  and  C_5 
REMARK    2  A    between atoms: C_9  and  N_10 
REMARK       I    between atoms: N_10  and  C_11 
REMARK    3  A    between atoms: C_11  and  C_12 
REMARK    4  A    between atoms: C_12  and  C_13 
REMARK    5  A    between atoms: C_13  and  C_14 
REMARK    6  A    between atoms: C_13  and  C_20 
ROOT
HETATM    1  N   UNL     1      42.037 -15.475   2.779  1.00  0.00    -0.312 N 
HETATM    2  C   UNL     1      41.455 -15.552   4.027  1.00  0.00     0.224 C 
HETATM    3  O   UNL     1      40.413 -14.962   4.325  1.00  0.00    -0.273 OA
HETATM    4  H   UNL     1      42.868 -16.012   2.565  1.00  0.00     0.170 HD
ENDROOT
BRANCH   1   5
HETATM    5  C   UNL     1      41.509 -14.709   1.758  1.00  0.00     0.132 A 
HETATM    6  N   UNL     1      41.950 -13.454   1.435  1.00  0.00    -0.261 N 
HETATM    7  N   UNL     1      41.284 -12.894   0.411  1.00  0.00    -0.170 NA
HETATM    8  H   UNL     1      42.699 -12.942   1.892  1.00  0.00     0.191 HD
HETATM    9  C   UNL     1      40.401 -13.837   0.052  1.00  0.00     0.120 A 
HETATM   10  C   UNL     1      40.493 -15.002   0.871  1.00  0.00     0.017 A 
HETATM   11  C   UNL     1      39.688 -16.244   0.766  1.00  0.00     0.055 C 
BRANCH   9  12
HETATM   12  C   UNL     1      39.458 -13.643  -1.093  1.00  0.00     0.106 A 
HETATM   13  O   UNL     1      38.531 -12.638  -1.183  1.00  0.00    -0.313 OA
HETATM   14  C   UNL     1      37.854 -12.810  -2.352  1.00  0.00     0.050 A 
HETATM   15  C   UNL     1      36.787 -11.831  -2.639  1.00  0.00     0.076 C 
HETATM   16  C   UNL     1      38.342 -13.906  -3.027  1.00  0.00     0.035 A 
HETATM   17  C   UNL     1      39.371 -14.442  -2.217  1.00  0.00     0.042 A 
ENDBRANCH   9  12
ENDBRANCH   1   5
BRANCH   2  18
HETATM   18  C   UNL     1      42.211 -16.343   5.093  1.00  0.00     0.116 C 
BRANCH  18  19
HETATM   19  C   UNL     1      43.629 -16.866   4.774  1.00  0.00     0.049 C 
BRANCH  19  20
HETATM   20  C   UNL     1      43.705 -18.300   4.211  1.00  0.00    -0.050 A 
HETATM   21  C   UNL     1      43.540 -18.612   2.849  1.00  0.00     0.008 A 
HETATM   22  C   UNL     1      43.606 -19.934   2.392  1.00  0.00     0.001 A 
HETATM   23  C   UNL     1      43.866 -20.971   3.281  1.00  0.00     0.000 A 
HETATM   24  C   UNL     1      44.082 -20.686   4.624  1.00  0.00     0.001 A 
HETATM   25  C   UNL     1      44.016 -19.366   5.078  1.00  0.00     0.008 A 
ENDBRANCH  19  20
BRANCH  19  26
HETATM   26  C   UNL     1      44.648 -16.614   5.886  1.00  0.00    -0.027 C 
HETATM   27  C   UNL     1      44.409 -16.422   7.192  1.00  0.00     0.007 C 
ENDBRANCH  19  26
ENDBRANCH  18  19
ENDBRANCH   2  18
TORSDOF 6
ENDMDL
MODEL 2
REMARK VINA RESULT:      -8.3      1.740      2.774
REMARK  6 active torsions:
REMARK  status: ('A' for Active; 'I' for Inactive)
REMARK    1  A    between atoms: C_4  and  C_5 
REMARK    2  A    between atoms: C_9  and  N_10 
REMARK       I    between atoms: N_10  and  C_11 
REMARK    3  A    between atoms: C_11  and  C_12 
REMARK    4  A    between atoms: C_12  and  C_13 
REMARK    5  A    between atoms: C_13  and  C_14 
REMARK    6  A    between atoms: C_13  and  C_20 
ROOT
HETATM    1  N   UNL     1      41.050 -14.925   0.662  1.00  0.00    -0.312 N 
HETATM    2  C   UNL     1      42.208 -14.706   1.377  1.00  0.00     0.224 C 
HETATM    3  O   UNL     1      42.566 -13.589   1.760  1.00  0.00    -0.273 OA
HETATM    4  H   UNL     1      40.772 -15.864   0.406  1.00  0.00     0.170 HD
ENDROOT
BRANCH   1   5
HETATM    5  C   UNL     1      40.199 -13.901   0.292  1.00  0.00     0.132 A 
HETATM    6  N   UNL     1      39.535 -13.098   1.180  1.00  0.00    -0.261 N 
HETATM    7  N   UNL     1      38.756 -12.173   0.595  1.00  0.00    -0.170 NA
HETATM    8  H   UNL     1      39.583 -13.152   2.194  1.00  0.00     0.191 HD
HETATM    9  C   UNL     1      38.949 -12.378  -0.716  1.00  0.00     0.120 A 
HETATM   10  C   UNL     1      39.845 -13.460  -0.966  1.00  0.00     0.017 A 
HETATM   11  C   UNL     1      40.299 -13.967  -2.285  1.00  0.00     0.055 C 
BRANCH   9  12
HETATM   12  C   UNL     1      38.285 -11.531  -1.755  1.00  0.00     0.106 A 
HETATM   13  O   UNL     1      36.956 -11.590  -2.082  1.00  0.00    -0.313 OA
HETATM   14  C   UNL     1      36.739 -10.689  -3.079  1.00  0.00     0.050 A 
HETATM   15  C   UNL     1      35.358 -10.603  -3.594  1.00  0.00     0.076 C 
HETATM   16  C   UNL     1      37.909 -10.035  -3.391  1.00  0.00     0.035 A 
HETATM   17  C   UNL     1      38.903 -10.578  -2.542  1.00  0.00     0.042 A 
ENDBRANCH   9  12
ENDBRANCH   1   5
BRANCH   2  18
HETATM   18  C   UNL     1      43.111 -15.915   1.614  1.00  0.00     0.116 C 
BRANCH  18  19
HETATM   19  C   UNL     1      43.292 -16.446   3.053  1.00  0.00     0.049 C 
BRANCH  19  20
HETATM   20  C   UNL     1      43.483 -17.971   3.188  1.00  0.00    -0.050 A 
HETATM   21  C   UNL     1      44.005 -18.592   4.337  1.00  0.00     0.008 A 
HETATM   22  C   UNL     1      44.170 -19.981   4.402  1.00  0.00     0.001 A 
HETATM   23  C   UNL     1      43.791 -20.783   3.331  1.00  0.00     0.000 A 
HETATM   24  C   UNL     1      43.227 -20.199   2.202  1.00  0.00     0.001 A 
HETATM   25  C   UNL     1      43.064 -18.813   2.139  1.00  0.00     0.008 A 
ENDBRANCH  19  20
BRANCH  19  26
HETATM   26  C   UNL     1      42.278 -15.887   4.052  1.00  0.00    -0.027 C 
HETATM   27  C   UNL     1      41.061 -16.369   4.344  1.00  0.00     0.007 C 
ENDBRANCH  19  26
ENDBRANCH  18  19
ENDBRANCH   2  18
TORSDOF 6
ENDMDL
MODEL 3
REMARK VINA RESULT:      -8.2      1.733      1.944
REMARK  6 active torsions:
REMARK  status: ('A' for Active; 'I' for Inactive)
REMARK    1  A    between atoms: C_4  and  C_5 
REMARK    2  A    between atoms: C_9  and  N_10 
REMARK       I    between atoms: N_10  and  C_11 
REMARK    3  A    between atoms: C_11  and  C_12 
REMARK    4  A    between atoms: C_12  and  C_13 
REMARK    5  A    between atoms: C_13  and  C_14 
REMARK    6  A    between atoms: C_13  and  C_20 
ROOT
HETATM    1  N   UNL     1      40.343 -15.225   3.571  1.00  0.00    -0.312 N 
HETATM    2  C   UNL     1      41.540 -15.155   4.253  1.00  0.00     0.224 C 
HETATM    3  O   UNL     1      42.259 -14.152   4.256  1.00  0.00    -0.273 OA
HETATM    4  H   UNL     1      39.763 -16.052   3.633  1.00  0.00     0.170 HD
ENDROOT
BRANCH   1   5
HETATM    5  C   UNL     1      39.858 -14.179   2.812  1.00  0.00     0.132 A 
HETATM    6  N   UNL     1      39.180 -13.106   3.327  1.00  0.00    -0.261 N 
HETATM    7  N   UNL     1      38.796 -12.213   2.401  1.00  0.00    -0.170 NA
HETATM    8  H   UNL     1      38.955 -12.950   4.306  1.00  0.00     0.191 HD
HETATM    9  C   UNL     1      39.266 -12.722   1.254  1.00  0.00     0.120 A 
HETATM   10  C   UNL     1      39.940 -13.964   1.451  1.00  0.00     0.017 A 
HETATM   11  C   UNL     1      40.593 -14.809   0.421  1.00  0.00     0.055 C 
BRANCH   9  12
HETATM   12  C   UNL     1      39.089 -12.020  -0.055  1.00  0.00     0.106 A 
HETATM   13  O   UNL     1      40.108 -11.507  -0.814  1.00  0.00    -0.313 OA
HETATM   14  C   UNL     1      39.550 -10.931  -1.914  1.00  0.00     0.050 A 
HETATM   15  C   UNL     1      40.484 -10.298  -2.866  1.00  0.00     0.076 C 
HETATM   16  C   UNL     1      38.182 -11.078  -1.885  1.00  0.00     0.035 A 
HETATM   17  C   UNL     1      37.886 -11.776  -0.690  1.00  0.00     0.042 A 
ENDBRANCH   9  12
ENDBRANCH   1   5
BRANCH   2  18
HETATM   18  C   UNL     1      42.009 -16.428   4.956  1.00  0.00     0.116 C 
BRANCH  18  19
HETATM   19  C   UNL     1      43.460 -16.913   4.741  1.00  0.00     0.049 C 
BRANCH  19  20
HETATM   20  C   UNL     1      43.614 -18.327   4.144  1.00  0.00    -0.050 A 
HETATM   21  C   UNL     1      43.469 -18.616   2.775  1.00  0.00     0.008 A 
HETATM   22  C   UNL     1      43.607 -19.921   2.288  1.00  0.00     0.001 A 
HETATM   23  C   UNL     1      43.920 -20.963   3.153  1.00  0.00     0.000 A 
HETATM   24  C   UNL     1      44.117 -20.698   4.503  1.00  0.00     0.001 A 
HETATM   25  C   UNL     1      43.979 -19.395   4.988  1.00  0.00     0.008 A 
ENDBRANCH  19  20
BRANCH  19  26
HETATM   26  C   UNL     1      44.377 -16.675   5.940  1.00  0.00    -0.027 C 
HETATM   27  C   UNL     1      44.037 -16.616   7.237  1.00  0.00     0.007 C 
ENDBRANCH  19  26
ENDBRANCH  18  19
ENDBRANCH   2  18
TORSDOF 6
ENDMDL
MODEL 4
REMARK VINA RESULT:      -8.2      4.472      8.017
REMARK  6 active torsions:
REMARK  status: ('A' for Active; 'I' for Inactive)
REMARK    1  A    between atoms: C_4  and  C_5 
REMARK    2  A    between atoms: C_9  and  N_10 
REMARK       I    between atoms: N_10  and  C_11 
REMARK    3  A    between atoms: C_11  and  C_12 
REMARK    4  A    between atoms: C_12  and  C_13 
REMARK    5  A    between atoms: C_13  and  C_14 
REMARK    6  A    between atoms: C_13  and  C_20 
ROOT
HETATM    1  N   UNL     1      42.308 -13.072   4.462  1.00  0.00    -0.312 N 
HETATM    2  C   UNL     1      42.929 -13.165   3.234  1.00  0.00     0.224 C 
HETATM    3  O   UNL     1      43.823 -12.397   2.868  1.00  0.00    -0.273 OA
HETATM    4  H   UNL     1      41.611 -13.751   4.738  1.00  0.00     0.170 HD
ENDROOT
BRANCH   1   5
HETATM    5  C   UNL     1      42.623 -12.092   5.382  1.00  0.00     0.132 A 
HETATM    6  N   UNL     1      42.279 -10.773   5.246  1.00  0.00    -0.261 N 
HETATM    7  N   UNL     1      42.697  -9.998   6.260  1.00  0.00    -0.170 NA
HETATM    8  H   UNL     1      41.764 -10.362   4.472  1.00  0.00     0.191 HD
HETATM    9  C   UNL     1      43.309 -10.857   7.086  1.00  0.00     0.120 A 
HETATM   10  C   UNL     1      43.299 -12.192   6.581  1.00  0.00     0.017 A 
HETATM   11  C   UNL     1      43.869 -13.403   7.221  1.00  0.00     0.055 C 
BRANCH   9  12
HETATM   12  C   UNL     1      43.908 -10.417   8.385  1.00  0.00     0.106 A 
HETATM   13  O   UNL     1      43.193  -9.977   9.468  1.00  0.00    -0.313 OA
HETATM   14  C   UNL     1      44.086  -9.650  10.442  1.00  0.00     0.050 A 
HETATM   15  C   UNL     1      43.518  -9.134  11.703  1.00  0.00     0.076 C 
HETATM   16  C   UNL     1      45.371  -9.887  10.008  1.00  0.00     0.035 A 
HETATM   17  C   UNL     1      45.256 -10.378   8.686  1.00  0.00     0.042 A 
ENDBRANCH   9  12
ENDBRANCH   1   5
BRANCH   2  18
HETATM   18  C   UNL     1      42.399 -14.226   2.272  1.00  0.00     0.116 C 
BRANCH  18  19
HETATM   19  C   UNL     1      41.711 -15.484   2.847  1.00  0.00     0.049 C 
BRANCH  19  20
HETATM   20  C   UNL     1      42.653 -16.628   3.278  1.00  0.00    -0.050 A 
HETATM   21  C   UNL     1      43.285 -16.686   4.533  1.00  0.00     0.008 A 
HETATM   22  C   UNL     1      44.142 -17.741   4.868  1.00  0.00     0.001 A 
HETATM   23  C   UNL     1      44.364 -18.776   3.968  1.00  0.00     0.000 A 
HETATM   24  C   UNL     1      43.714 -18.769   2.739  1.00  0.00     0.001 A 
HETATM   25  C   UNL     1      42.860 -17.715   2.406  1.00  0.00     0.008 A 
ENDBRANCH  19  20
BRANCH  19  26
HETATM   26  C   UNL     1      40.525 -15.978   2.017  1.00  0.00    -0.027 C 
HETATM   27  C   UNL     1      40.020 -15.431   0.901  1.00  0.00     0.007 C 
ENDBRANCH  19  26
ENDBRANCH  18  19
ENDBRANCH   2  18
TORSDOF 6
ENDMDL
MODEL 5
REMARK VINA RESULT:      -8.0      2.374      3.632
REMARK  6 active torsions:
REMARK  status: ('A' for Active; 'I' for Inactive)
REMARK    1  A    between atoms: C_4  and  C_5 
REMARK    2  A    between atoms: C_9  and  N_10 
REMARK       I    between atoms: N_10  and  C_11 
REMARK    3  A    between atoms: C_11  and  C_12 
REMARK    4  A    between atoms: C_12  and  C_13 
REMARK    5  A    between atoms: C_13  and  C_14 
REMARK    6  A    between atoms: C_13  and  C_20 
ROOT
HETATM    1  N   UNL     1      40.206 -15.059   0.067  1.00  0.00    -0.312 N 
HETATM    2  C   UNL     1      40.102 -14.869   1.429  1.00  0.00     0.224 C 
HETATM    3  O   UNL     1      39.462 -13.945   1.937  1.00  0.00    -0.273 OA
HETATM    4  H   UNL     1      40.704 -15.857  -0.305  1.00  0.00     0.170 HD
ENDROOT
BRANCH   1   5
HETATM    5  C   UNL     1      39.616 -14.209  -0.848  1.00  0.00     0.132 A 
HETATM    6  N   UNL     1      38.527 -14.539  -1.609  1.00  0.00    -0.261 N 
HETATM    7  N   UNL     1      38.128 -13.559  -2.437  1.00  0.00    -0.170 NA
HETATM    8  H   UNL     1      38.029 -15.425  -1.597  1.00  0.00     0.191 HD
HETATM    9  C   UNL     1      38.981 -12.557  -2.178  1.00  0.00     0.120 A 
HETATM   10  C   UNL     1      39.945 -12.913  -1.188  1.00  0.00     0.017 A 
HETATM   11  C   UNL     1      41.033 -12.063  -0.644  1.00  0.00     0.055 C 
BRANCH   9  12
HETATM   12  C   UNL     1      38.880 -11.233  -2.867  1.00  0.00     0.106 A 
HETATM   13  O   UNL     1      39.913 -10.605  -3.512  1.00  0.00    -0.313 OA
HETATM   14  C   UNL     1      39.438  -9.421  -3.989  1.00  0.00     0.050 A 
HETATM   15  C   UNL     1      40.405  -8.573  -4.712  1.00  0.00     0.076 C 
HETATM   16  C   UNL     1      38.105  -9.282  -3.674  1.00  0.00     0.035 A 
HETATM   17  C   UNL     1      37.747 -10.446  -2.952  1.00  0.00     0.042 A 
ENDBRANCH   9  12
ENDBRANCH   1   5
BRANCH   2  18
HETATM   18  C   UNL     1      40.902 -15.818   2.320  1.00  0.00     0.116 C 
BRANCH  18  19
HETATM   19  C   UNL     1      42.371 -16.130   1.955  1.00  0.00     0.049 C 
BRANCH  19  20
HETATM   20  C   UNL     1      43.047 -17.243   2.782  1.00  0.00    -0.050 A 
HETATM   21  C   UNL     1      43.541 -17.054   4.085  1.00  0.00     0.008 A 
HETATM   22  C   UNL     1      44.159 -18.096   4.787  1.00  0.00     0.001 A 
HETATM   23  C   UNL     1      44.272 -19.358   4.214  1.00  0.00     0.000 A 
HETATM   24  C   UNL     1      43.748 -19.585   2.947  1.00  0.00     0.001 A 
HETATM   25  C   UNL     1      43.132 -18.544   2.247  1.00  0.00     0.008 A 
ENDBRANCH  19  20
BRANCH  19  26
HETATM   26  C   UNL     1      43.250 -14.888   1.806  1.00  0.00    -0.027 C 
HETATM   27  C   UNL     1      43.221 -13.767   2.542  1.00  0.00     0.007 C 
ENDBRANCH  19  26
ENDBRANCH  18  19
ENDBRANCH   2  18
TORSDOF 6
ENDMDL
MODEL 6
REMARK VINA RESULT:      -7.9      2.446      3.959
REMARK  6 active torsions:
REMARK  status: ('A' for Active; 'I' for Inactive)
REMARK    1  A    between atoms: C_4  and  C_5 
REMARK    2  A    between atoms: C_9  and  N_10 
REMARK       I    between atoms: N_10  and  C_11 
REMARK    3  A    between atoms: C_11  and  C_12 
REMARK    4  A    between atoms: C_12  and  C_13 
REMARK    5  A    between atoms: C_13  and  C_14 
REMARK    6  A    between atoms: C_13  and  C_20 
ROOT
HETATM    1  N   UNL     1      41.573 -15.005   0.869  1.00  0.00    -0.312 N 
HETATM    2  C   UNL     1      42.714 -14.987   1.643  1.00  0.00     0.224 C 
HETATM    3  O   UNL     1      43.187 -13.955   2.126  1.00  0.00    -0.273 OA
HETATM    4  H   UNL     1      41.194 -15.881   0.531  1.00  0.00     0.170 HD
ENDROOT
BRANCH   1   5
HETATM    5  C   UNL     1      40.872 -13.859   0.550  1.00  0.00     0.132 A 
HETATM    6  N   UNL     1      40.989 -13.195  -0.642  1.00  0.00    -0.261 N 
HETATM    7  N   UNL     1      40.217 -12.100  -0.729  1.00  0.00    -0.170 NA
HETATM    8  H   UNL     1      41.589 -13.456  -1.420  1.00  0.00     0.191 HD
HETATM    9  C   UNL     1      39.565 -12.076   0.442  1.00  0.00     0.120 A 
HETATM   10  C   UNL     1      39.943 -13.158   1.292  1.00  0.00     0.017 A 
HETATM   11  C   UNL     1      39.428 -13.459   2.651  1.00  0.00     0.055 C 
BRANCH   9  12
HETATM   12  C   UNL     1      38.556 -11.019   0.765  1.00  0.00     0.106 A 
HETATM   13  O   UNL     1      37.297 -10.948   0.231  1.00  0.00    -0.313 OA
HETATM   14  C   UNL     1      36.693  -9.844   0.749  1.00  0.00     0.050 A 
HETATM   15  C   UNL     1      35.318  -9.572   0.287  1.00  0.00     0.076 C 
HETATM   16  C   UNL     1      37.541  -9.206   1.626  1.00  0.00     0.035 A 
HETATM   17  C   UNL     1      38.739  -9.961   1.635  1.00  0.00     0.042 A 
ENDBRANCH   9  12
ENDBRANCH   1   5
BRANCH   2  18
HETATM   18  C   UNL     1      43.450 -16.314   1.818  1.00  0.00     0.116 C 
BRANCH  18  19
HETATM   19  C   UNL     1      42.831 -17.402   2.723  1.00  0.00     0.049 C 
BRANCH  19  20
HETATM   20  C   UNL     1      42.474 -16.960   4.157  1.00  0.00    -0.050 A 
HETATM   21  C   UNL     1      43.378 -17.000   5.233  1.00  0.00     0.008 A 
HETATM   22  C   UNL     1      42.998 -16.599   6.519  1.00  0.00     0.001 A 
HETATM   23  C   UNL     1      41.713 -16.124   6.754  1.00  0.00     0.000 A 
HETATM   24  C   UNL     1      40.813 -16.028   5.699  1.00  0.00     0.001 A 
HETATM   25  C   UNL     1      41.194 -16.428   4.416  1.00  0.00     0.008 A 
ENDBRANCH  19  20
BRANCH  19  26
HETATM   26  C   UNL     1      43.574 -18.738   2.685  1.00  0.00    -0.027 C 
HETATM   27  C   UNL     1      43.191 -19.875   2.085  1.00  0.00     0.007 C 
ENDBRANCH  19  26
ENDBRANCH  18  19
ENDBRANCH   2  18
TORSDOF 6
ENDMDL
MODEL 7
REMARK VINA RESULT:      -7.8      3.026      3.591
REMARK  6 active torsions:
REMARK  status: ('A' for Active; 'I' for Inactive)
REMARK    1  A    between atoms: C_4  and  C_5 
REMARK    2  A    between atoms: C_9  and  N_10 
REMARK       I    between atoms: N_10  and  C_11 
REMARK    3  A    between atoms: C_11  and  C_12 
REMARK    4  A    between atoms: C_12  and  C_13 
REMARK    5  A    between atoms: C_13  and  C_14 
REMARK    6  A    between atoms: C_13  and  C_20 
ROOT
HETATM    1  N   UNL     1      42.044 -14.348   2.515  1.00  0.00    -0.312 N 
HETATM    2  C   UNL     1      41.102 -15.232   2.999  1.00  0.00     0.224 C 
HETATM    3  O   UNL     1      39.924 -15.234   2.631  1.00  0.00    -0.273 OA
HETATM    4  H   UNL     1      43.010 -14.412   2.811  1.00  0.00     0.170 HD
ENDROOT
BRANCH   1   5
HETATM    5  C   UNL     1      41.740 -13.370   1.589  1.00  0.00     0.132 A 
HETATM    6  N   UNL     1      41.192 -13.622   0.359  1.00  0.00    -0.261 N 
HETATM    7  N   UNL     1      40.987 -12.518  -0.378  1.00  0.00    -0.170 NA
HETATM    8  H   UNL     1      40.947 -14.534  -0.016  1.00  0.00     0.191 HD
HETATM    9  C   UNL     1      41.398 -11.522   0.420  1.00  0.00     0.120 A 
HETATM   10  C   UNL     1      41.888 -12.001   1.671  1.00  0.00     0.017 A 
HETATM   11  C   UNL     1      42.414 -11.195   2.801  1.00  0.00     0.055 C 
BRANCH   9  12
HETATM   12  C   UNL     1      41.317 -10.088   0.001  1.00  0.00     0.106 A 
HETATM   13  O   UNL     1      42.382  -9.330  -0.410  1.00  0.00    -0.313 OA
HETATM   14  C   UNL     1      41.915  -8.081  -0.683  1.00  0.00     0.050 A 
HETATM   15  C   UNL     1      42.915  -7.093  -1.133  1.00  0.00     0.076 C 
HETATM   16  C   UNL     1      40.556  -8.024  -0.468  1.00  0.00     0.035 A 
HETATM   17  C   UNL     1      40.173  -9.313  -0.027  1.00  0.00     0.042 A 
ENDBRANCH   9  12
ENDBRANCH   1   5
BRANCH   2  18
HETATM   18  C   UNL     1      41.554 -16.184   4.105  1.00  0.00     0.116 C 
BRANCH  18  19
HETATM   19  C   UNL     1      43.038 -16.608   4.171  1.00  0.00     0.049 C 
BRANCH  19  20
HETATM   20  C   UNL     1      43.340 -18.063   3.758  1.00  0.00    -0.050 A 
HETATM   21  C   UNL     1      43.882 -19.024   4.630  1.00  0.00     0.008 A 
HETATM   22  C   UNL     1      44.150 -20.329   4.199  1.00  0.00     0.001 A 
HETATM   23  C   UNL     1      43.856 -20.711   2.895  1.00  0.00     0.000 A 
HETATM   24  C   UNL     1      43.275 -19.795   2.026  1.00  0.00     0.001 A 
HETATM   25  C   UNL     1      43.009 -18.493   2.457  1.00  0.00     0.008 A 
ENDBRANCH  19  20
BRANCH  19  26
HETATM   26  C   UNL     1      43.742 -16.204   5.467  1.00  0.00    -0.027 C 
HETATM   27  C   UNL     1      43.647 -15.038   6.125  1.00  0.00     0.007 C 
ENDBRANCH  19  26
ENDBRANCH  18  19
ENDBRANCH   2  18
TORSDOF 6
ENDMDL
MODEL 8
REMARK VINA RESULT:      -7.7      1.707      2.376
REMARK  6 active torsions:
REMARK  status: ('A' for Active; 'I' for Inactive)
REMARK    1  A    between atoms: C_4  and  C_5 
REMARK    2  A    between atoms: C_9  and  N_10 
REMARK       I    between atoms: N_10  and  C_11 
REMARK    3  A    between atoms: C_11  and  C_12 
REMARK    4  A    between atoms: C_12  and  C_13 
REMARK    5  A    between atoms: C_13  and  C_14 
REMARK    6  A    between atoms: C_13  and  C_20 
ROOT
HETATM    1  N   UNL     1      41.368 -13.279   3.840  1.00  0.00    -0.312 N 
HETATM    2  C   UNL     1      42.713 -13.571   3.923  1.00  0.00     0.224 C 
HETATM    3  O   UNL     1      43.491 -13.455   2.971  1.00  0.00    -0.273 OA
HETATM    4  H   UNL     1      40.776 -13.345   4.658  1.00  0.00     0.170 HD
ENDROOT
BRANCH   1   5
HETATM    5  C   UNL     1      40.771 -12.852   2.671  1.00  0.00     0.132 A 
HETATM    6  N   UNL     1      40.793 -11.557   2.226  1.00  0.00    -0.261 N 
HETATM    7  N   UNL     1      40.139 -11.372   1.067  1.00  0.00    -0.170 NA
HETATM    8  H   UNL     1      41.239 -10.769   2.688  1.00  0.00     0.191 HD
HETATM    9  C   UNL     1      39.704 -12.599   0.747  1.00  0.00     0.120 A 
HETATM   10  C   UNL     1      40.068 -13.572   1.726  1.00  0.00     0.017 A 
HETATM   11  C   UNL     1      39.770 -15.025   1.705  1.00  0.00     0.055 C 
BRANCH   9  12
HETATM   12  C   UNL     1      38.940 -12.865  -0.511  1.00  0.00     0.106 A 
HETATM   13  O   UNL     1      39.164 -13.920  -1.356  1.00  0.00    -0.313 OA
HETATM   14  C   UNL     1      38.289 -13.807  -2.393  1.00  0.00     0.050 A 
HETATM   15  C   UNL     1      38.374 -14.848  -3.436  1.00  0.00     0.076 C 
HETATM   16  C   UNL     1      37.490 -12.699  -2.222  1.00  0.00     0.035 A 
HETATM   17  C   UNL     1      37.910 -12.093  -1.014  1.00  0.00     0.042 A 
ENDBRANCH   9  12
ENDBRANCH   1   5
BRANCH   2  18
HETATM   18  C   UNL     1      43.214 -14.144   5.248  1.00  0.00     0.116 C 
BRANCH  18  19
HETATM   19  C   UNL     1      42.810 -15.581   5.644  1.00  0.00     0.049 C 
BRANCH  19  20
HETATM   20  C   UNL     1      43.164 -16.684   4.626  1.00  0.00    -0.050 A 
HETATM   21  C   UNL     1      42.658 -16.726   3.314  1.00  0.00     0.008 A 
HETATM   22  C   UNL     1      43.002 -17.759   2.434  1.00  0.00     0.001 A 
HETATM   23  C   UNL     1      43.881 -18.758   2.834  1.00  0.00     0.000 A 
HETATM   24  C   UNL     1      44.434 -18.715   4.109  1.00  0.00     0.001 A 
HETATM   25  C   UNL     1      44.090 -17.684   4.986  1.00  0.00     0.008 A 
ENDBRANCH  19  20
BRANCH  19  26
HETATM   26  C   UNL     1      41.378 -15.700   6.169  1.00  0.00    -0.027 C 
HETATM   27  C   UNL     1      40.337 -16.312   5.585  1.00  0.00     0.007 C 
ENDBRANCH  19  26
ENDBRANCH  18  19
ENDBRANCH   2  18
TORSDOF 6
ENDMDL
MODEL 9
REMARK VINA RESULT:      -7.6      5.362      9.161
REMARK  6 active torsions:
REMARK  status: ('A' for Active; 'I' for Inactive)
REMARK    1  A    between atoms: C_4  and  C_5 
REMARK    2  A    between atoms: C_9  and  N_10 
REMARK       I    between atoms: N_10  and  C_11 
REMARK    3  A    between atoms: C_11  and  C_12 
REMARK    4  A    between atoms: C_12  and  C_13 
REMARK    5  A    between atoms: C_13  and  C_14 
REMARK    6  A    between atoms: C_13  and  C_20 
ROOT
HETATM    1  N   UNL     1      43.517 -13.237   7.031  1.00  0.00    -0.312 N 
HETATM    2  C   UNL     1      44.202 -12.063   6.800  1.00  0.00     0.224 C 
HETATM    3  O   UNL     1      44.637 -11.740   5.692  1.00  0.00    -0.273 OA
HETATM    4  H   UNL     1      43.138 -13.441   7.947  1.00  0.00     0.170 HD
ENDROOT
BRANCH   1   5
HETATM    5  C   UNL     1      43.280 -14.167   6.038  1.00  0.00     0.132 A 
HETATM    6  N   UNL     1      42.479 -13.942   4.951  1.00  0.00    -0.261 N 
HETATM    7  N   UNL     1      42.389 -14.992   4.118  1.00  0.00    -0.170 NA
HETATM    8  H   UNL     1      41.972 -13.086   4.743  1.00  0.00     0.191 HD
HETATM    9  C   UNL     1      43.181 -15.915   4.682  1.00  0.00     0.120 A 
HETATM   10  C   UNL     1      43.766 -15.452   5.899  1.00  0.00     0.017 A 
HETATM   11  C   UNL     1      44.697 -16.189   6.789  1.00  0.00     0.055 C 
BRANCH   9  12
HETATM   12  C   UNL     1      43.403 -17.256   4.058  1.00  0.00     0.106 A 
HETATM   13  O   UNL     1      43.643 -18.413   4.752  1.00  0.00    -0.313 OA
HETATM   14  C   UNL     1      43.813 -19.409   3.840  1.00  0.00     0.050 A 
HETATM   15  C   UNL     1      44.099 -20.751   4.384  1.00  0.00     0.076 C 
HETATM   16  C   UNL     1      43.670 -18.915   2.563  1.00  0.00     0.035 A 
HETATM   17  C   UNL     1      43.409 -17.531   2.704  1.00  0.00     0.042 A 
ENDBRANCH   9  12
ENDBRANCH   1   5
BRANCH   2  18
HETATM   18  C   UNL     1      44.492 -11.183   8.015  1.00  0.00     0.116 C 
BRANCH  18  19
HETATM   19  C   UNL     1      43.625  -9.928   8.257  1.00  0.00     0.049 C 
BRANCH  19  20
HETATM   20  C   UNL     1      43.427  -9.521   9.732  1.00  0.00    -0.050 A 
HETATM   21  C   UNL     1      43.436 -10.435  10.801  1.00  0.00     0.008 A 
HETATM   22  C   UNL     1      43.239 -10.012  12.121  1.00  0.00     0.001 A 
HETATM   23  C   UNL     1      43.055  -8.664  12.406  1.00  0.00     0.000 A 
HETATM   24  C   UNL     1      43.091  -7.734  11.374  1.00  0.00     0.001 A 
HETATM   25  C   UNL     1      43.288  -8.157  10.057  1.00  0.00     0.008 A 
ENDBRANCH  19  20
BRANCH  19  26
HETATM   26  C   UNL     1      42.319  -9.913   7.461  1.00  0.00    -0.027 C 
HETATM   27  C   UNL     1      41.953  -9.052   6.499  1.00  0.00     0.007 C 
ENDBRANCH  19  26
ENDBRANCH  18  19
ENDBRANCH   2  18
TORSDOF 6
ENDMDL
MODEL 10
REMARK VINA RESULT:      -7.6      4.388      7.021
REMARK  6 active torsions:
REMARK  status: ('A' for Active; 'I' for Inactive)
REMARK    1  A    between atoms: C_4  and  C_5 
REMARK    2  A    between atoms: C_9  and  N_10 
REMARK       I    between atoms: N_10  and  C_11 
REMARK    3  A    between atoms: C_11  and  C_12 
REMARK    4  A    between atoms: C_12  and  C_13 
REMARK    5  A    between atoms: C_13  and  C_14 
REMARK    6  A    between atoms: C_13  and  C_20 
ROOT
HETATM    1  N   UNL     1      42.788 -13.596   4.219  1.00  0.00    -0.312 N 
HETATM    2  C   UNL     1      42.051 -14.752   4.371  1.00  0.00     0.224 C 
HETATM    3  O   UNL     1      41.075 -14.839   5.121  1.00  0.00    -0.273 OA
HETATM    4  H   UNL     1      43.554 -13.557   3.559  1.00  0.00     0.170 HD
ENDROOT
BRANCH   1   5
HETATM    5  C   UNL     1      42.506 -12.438   4.917  1.00  0.00     0.132 A 
HETATM    6  N   UNL     1      41.725 -11.422   4.433  1.00  0.00    -0.261 N 
HETATM    7  N   UNL     1      41.593 -10.390   5.282  1.00  0.00    -0.170 NA
HETATM    8  H   UNL     1      41.267 -11.394   3.526  1.00  0.00     0.191 HD
HETATM    9  C   UNL     1      42.297 -10.770   6.358  1.00  0.00     0.120 A 
HETATM   10  C   UNL     1      42.900 -12.052   6.181  1.00  0.00     0.017 A 
HETATM   11  C   UNL     1      43.739 -12.795   7.155  1.00  0.00     0.055 C 
BRANCH   9  12
HETATM   12  C   UNL     1      42.396  -9.916   7.582  1.00  0.00     0.106 A 
HETATM   13  O   UNL     1      43.426  -9.956   8.484  1.00  0.00    -0.313 OA
HETATM   14  C   UNL     1      43.147  -9.054   9.465  1.00  0.00     0.050 A 
HETATM   15  C   UNL     1      44.135  -8.948  10.556  1.00  0.00     0.076 C 
HETATM   16  C   UNL     1      41.955  -8.418   9.200  1.00  0.00     0.035 A 
HETATM   17  C   UNL     1      41.472  -8.974   7.992  1.00  0.00     0.042 A 
ENDBRANCH   9  12
ENDBRANCH   1   5
BRANCH   2  18
HETATM   18  C   UNL     1      42.548 -15.989   3.625  1.00  0.00     0.116 C 
BRANCH  18  19
HETATM   19  C   UNL     1      43.661 -16.852   4.261  1.00  0.00     0.049 C 
BRANCH  19  20
HETATM   20  C   UNL     1      43.713 -18.324   3.805  1.00  0.00    -0.050 A 
HETATM   21  C   UNL     1      44.081 -19.389   4.648  1.00  0.00     0.008 A 
HETATM   22  C   UNL     1      44.125 -20.707   4.179  1.00  0.00     0.001 A 
HETATM   23  C   UNL     1      43.774 -20.996   2.865  1.00  0.00     0.000 A 
HETATM   24  C   UNL     1      43.359 -19.969   2.024  1.00  0.00     0.001 A 
HETATM   25  C   UNL     1      43.317 -18.654   2.494  1.00  0.00     0.008 A 
ENDBRANCH  19  20
BRANCH  19  26
HETATM   26  C   UNL     1      43.773 -16.699   5.779  1.00  0.00    -0.027 C 
HETATM   27  C   UNL     1      44.834 -16.282   6.486  1.00  0.00     0.007 C 
ENDBRANCH  19  26
ENDBRANCH  18  19
ENDBRANCH   2  18
TORSDOF 6
ENDMDL
