MODEL 1
REMARK VINA RESULT:      -8.7      0.000      0.000
REMARK  5 active torsions:
REMARK  status: ('A' for Active; 'I' for Inactive)
REMARK    1  A    between atoms: C_6  and  O_7 
REMARK    2  A    between atoms: O_7  and  C_8 
REMARK    3  A    between atoms: C_8  and  C_9 
REMARK       I    between atoms: C_9  and  N_10 
REMARK    4  A    between atoms: N_10  and  N_11 
REMARK    5  A    between atoms: C_12  and  C_13 
ROOT
HETATM    1  C   UNL     1      44.422 -11.375   7.681  1.00  0.00     0.261 C 
HETATM    2  N   UNL     1      43.560 -12.446   7.491  1.00  0.00    -0.246 N 
HETATM    3  O   UNL     1      45.545 -11.269   7.190  1.00  0.00    -0.269 OA
HETATM    4  H   UNL     1      42.665 -12.456   7.973  1.00  0.00     0.192 HD
ENDROOT
BRANCH   2   5
HETATM    5  N   UNL     1      43.949 -13.498   6.718  1.00  0.00    -0.184 NA
HETATM    6  C   UNL     1      43.168 -14.528   6.710  1.00  0.00     0.152 C 
BRANCH   6   7
HETATM    7  C   UNL     1      43.526 -15.676   5.901  1.00  0.00     0.011 A 
HETATM    8  C   UNL     1      42.923 -16.115   4.678  1.00  0.00     0.005 A 
HETATM    9  C   UNL     1      43.613 -17.256   4.258  1.00  0.00     0.043 A 
HETATM   10  C   UNL     1      41.864 -15.641   3.874  1.00  0.00     0.033 A 
HETATM   11  C   UNL     1      43.298 -17.950   3.084  1.00  0.00     0.031 A 
HETATM   12  N   UNL     1      44.591 -17.506   5.192  1.00  0.00    -0.364 N 
HETATM   13  C   UNL     1      42.246 -17.460   2.304  1.00  0.00     0.021 A 
HETATM   14  C   UNL     1      41.543 -16.324   2.696  1.00  0.00     0.012 A 
HETATM   15 BR   UNL     1      40.131 -15.684   1.610  1.00  0.00    -0.051 Br
HETATM   16  H   UNL     1      45.249 -18.272   5.148  1.00  0.00     0.165 HD
HETATM   17  C   UNL     1      44.552 -16.561   6.178  1.00  0.00     0.102 A 
ENDBRANCH   6   7
ENDBRANCH   2   5
BRANCH   1  18
HETATM   18  C   UNL     1      43.799 -10.241   8.489  1.00  0.00     0.280 C 
BRANCH  18  19
HETATM   19  O   UNL     1      44.636  -9.865   9.583  1.00  0.00    -0.342 OA
BRANCH  19  20
HETATM   20  C   UNL     1      43.941  -9.558  10.723  1.00  0.00     0.069 A 
HETATM   21  C   UNL     1      43.570  -8.263  11.089  1.00  0.00     0.044 A 
HETATM   22  C   UNL     1      42.842  -8.027  12.269  1.00  0.00    -0.053 A 
HETATM   23  C   UNL     1      42.496  -9.114  13.097  1.00  0.00    -0.056 A 
HETATM   24  C   UNL     1      42.473  -6.613  12.632  1.00  0.00     0.049 C 
HETATM   25  C   UNL     1      41.723  -8.916  14.373  1.00  0.00     0.049 C 
HETATM   26  C   UNL     1      42.845 -10.413  12.700  1.00  0.00     0.010 A 
HETATM   27  C   UNL     1      43.556 -10.633  11.518  1.00  0.00     0.037 A 
ENDBRANCH  19  20
ENDBRANCH  18  19
ENDBRANCH   1  18
TORSDOF 5
ENDMDL
MODEL 2
REMARK VINA RESULT:      -8.6      3.740      9.866
REMARK  5 active torsions:
REMARK  status: ('A' for Active; 'I' for Inactive)
REMARK    1  A    between atoms: C_6  and  O_7 
REMARK    2  A    between atoms: O_7  and  C_8 
REMARK    3  A    between atoms: C_8  and  C_9 
REMARK       I    between atoms: C_9  and  N_10 
REMARK    4  A    between atoms: N_10  and  N_11 
REMARK    5  A    between atoms: C_12  and  C_13 
ROOT
HETATM    1  C   UNL     1      42.272 -13.553   4.192  1.00  0.00     0.261 C 
HETATM    2  N   UNL     1      43.165 -13.527   5.254  1.00  0.00    -0.246 N 
HETATM    3  O   UNL     1      41.874 -12.568   3.573  1.00  0.00    -0.269 OA
HETATM    4  H   UNL     1      43.404 -14.395   5.726  1.00  0.00     0.192 HD
ENDROOT
BRANCH   2   5
HETATM    5  N   UNL     1      43.656 -12.334   5.695  1.00  0.00    -0.184 NA
HETATM    6  C   UNL     1      44.394 -12.372   6.756  1.00  0.00     0.152 C 
BRANCH   6   7
HETATM    7  C   UNL     1      44.950 -11.135   7.269  1.00  0.00     0.011 A 
HETATM    8  C   UNL     1      44.259 -10.057   7.912  1.00  0.00     0.005 A 
HETATM    9  C   UNL     1      45.211  -9.088   8.242  1.00  0.00     0.043 A 
HETATM   10  C   UNL     1      42.913  -9.818   8.262  1.00  0.00     0.033 A 
HETATM   11  C   UNL     1      44.890  -7.894   8.897  1.00  0.00     0.031 A 
HETATM   12  N   UNL     1      46.431  -9.555   7.811  1.00  0.00    -0.364 N 
HETATM   13  C   UNL     1      43.550  -7.680   9.235  1.00  0.00     0.021 A 
HETATM   14  C   UNL     1      42.581  -8.629   8.921  1.00  0.00     0.012 A 
HETATM   15 BR   UNL     1      40.778  -8.310   9.403  1.00  0.00    -0.051 Br
HETATM   16  H   UNL     1      47.308  -9.062   7.917  1.00  0.00     0.165 HD
HETATM   17  C   UNL     1      46.287 -10.783   7.232  1.00  0.00     0.102 A 
ENDBRANCH   6   7
ENDBRANCH   2   5
BRANCH   1  18
HETATM   18  C   UNL     1      41.897 -14.967   3.762  1.00  0.00     0.280 C 
BRANCH  18  19
HETATM   19  O   UNL     1      42.924 -15.553   2.961  1.00  0.00    -0.342 OA
BRANCH  19  20
HETATM   20  C   UNL     1      43.257 -16.826   3.345  1.00  0.00     0.069 A 
HETATM   21  C   UNL     1      43.275 -17.924   2.483  1.00  0.00     0.044 A 
HETATM   22  C   UNL     1      43.646 -19.199   2.946  1.00  0.00    -0.053 A 
HETATM   23  C   UNL     1      43.988 -19.369   4.303  1.00  0.00    -0.056 A 
HETATM   24  C   UNL     1      43.640 -20.358   1.985  1.00  0.00     0.049 C 
HETATM   25  C   UNL     1      44.385 -20.712   4.852  1.00  0.00     0.049 C 
HETATM   26  C   UNL     1      43.998 -18.251   5.150  1.00  0.00     0.010 A 
HETATM   27  C   UNL     1      43.643 -16.987   4.672  1.00  0.00     0.037 A 
ENDBRANCH  19  20
ENDBRANCH  18  19
ENDBRANCH   1  18
TORSDOF 5
ENDMDL
MODEL 3
REMARK VINA RESULT:      -8.6      3.575     10.038
REMARK  5 active torsions:
REMARK  status: ('A' for Active; 'I' for Inactive)
REMARK    1  A    between atoms: C_6  and  O_7 
REMARK    2  A    between atoms: O_7  and  C_8 
REMARK    3  A    between atoms: C_8  and  C_9 
REMARK       I    between atoms: C_9  and  N_10 
REMARK    4  A    between atoms: N_10  and  N_11 
REMARK    5  A    between atoms: C_12  and  C_13 
ROOT
HETATM    1  C   UNL     1      43.265 -15.043   7.391  1.00  0.00     0.261 C 
HETATM    2  N   UNL     1      43.602 -13.874   6.722  1.00  0.00    -0.246 N 
HETATM    3  O   UNL     1      43.178 -15.165   8.611  1.00  0.00    -0.269 OA
HETATM    4  H   UNL     1      43.684 -13.886   5.709  1.00  0.00     0.192 HD
ENDROOT
BRANCH   2   5
HETATM    5  N   UNL     1      43.885 -12.746   7.432  1.00  0.00    -0.184 NA
HETATM    6  C   UNL     1      44.431 -11.774   6.778  1.00  0.00     0.152 C 
BRANCH   6   7
HETATM    7  C   UNL     1      44.749 -10.545   7.479  1.00  0.00     0.011 A 
HETATM    8  C   UNL     1      43.848  -9.517   7.906  1.00  0.00     0.005 A 
HETATM    9  C   UNL     1      44.609  -8.537   8.550  1.00  0.00     0.043 A 
HETATM   10  C   UNL     1      42.451  -9.330   7.821  1.00  0.00     0.033 A 
HETATM   11  C   UNL     1      44.051  -7.381   9.109  1.00  0.00     0.031 A 
HETATM   12  N   UNL     1      45.921  -8.950   8.511  1.00  0.00    -0.364 N 
HETATM   13  C   UNL     1      42.665  -7.219   9.014  1.00  0.00     0.021 A 
HETATM   14  C   UNL     1      41.882  -8.180   8.380  1.00  0.00     0.012 A 
HETATM   15 BR   UNL     1      40.009  -7.933   8.279  1.00  0.00    -0.051 Br
HETATM   16  H   UNL     1      46.699  -8.439   8.904  1.00  0.00     0.165 HD
HETATM   17  C   UNL     1      46.015 -10.156   7.876  1.00  0.00     0.102 A 
ENDBRANCH   6   7
ENDBRANCH   2   5
BRANCH   1  18
HETATM   18  C   UNL     1      42.885 -16.181   6.450  1.00  0.00     0.280 C 
BRANCH  18  19
HETATM   19  O   UNL     1      43.410 -15.966   5.140  1.00  0.00    -0.342 OA
BRANCH  19  20
HETATM   20  C   UNL     1      43.499 -17.111   4.392  1.00  0.00     0.069 A 
HETATM   21  C   UNL     1      43.846 -18.360   4.910  1.00  0.00     0.044 A 
HETATM   22  C   UNL     1      43.901 -19.495   4.081  1.00  0.00    -0.053 A 
HETATM   23  C   UNL     1      43.617 -19.362   2.708  1.00  0.00    -0.056 A 
HETATM   24  C   UNL     1      44.290 -20.820   4.679  1.00  0.00     0.049 C 
HETATM   25  C   UNL     1      43.667 -20.542   1.775  1.00  0.00     0.049 C 
HETATM   26  C   UNL     1      43.237 -18.108   2.206  1.00  0.00     0.010 A 
HETATM   27  C   UNL     1      43.172 -16.992   3.045  1.00  0.00     0.037 A 
ENDBRANCH  19  20
ENDBRANCH  18  19
ENDBRANCH   1  18
TORSDOF 5
ENDMDL
MODEL 4
REMARK VINA RESULT:      -8.4      7.296     10.344
REMARK  5 active torsions:
REMARK  status: ('A' for Active; 'I' for Inactive)
REMARK    1  A    between atoms: C_6  and  O_7 
REMARK    2  A    between atoms: O_7  and  C_8 
REMARK    3  A    between atoms: C_8  and  C_9 
REMARK       I    between atoms: C_9  and  N_10 
REMARK    4  A    between atoms: N_10  and  N_11 
REMARK    5  A    between atoms: C_12  and  C_13 
ROOT
HETATM    1  C   UNL     1      40.878 -14.567   2.772  1.00  0.00     0.261 C 
HETATM    2  N   UNL     1      40.712 -15.341   1.631  1.00  0.00    -0.246 N 
HETATM    3  O   UNL     1      40.262 -13.533   3.026  1.00  0.00    -0.269 OA
HETATM    4  H   UNL     1      41.299 -16.160   1.495  1.00  0.00     0.192 HD
ENDROOT
BRANCH   2   5
HETATM    5  N   UNL     1      39.816 -14.957   0.679  1.00  0.00    -0.184 NA
HETATM    6  C   UNL     1      40.292 -14.299  -0.328  1.00  0.00     0.152 C 
BRANCH   6   7
HETATM    7  C   UNL     1      39.387 -13.870  -1.377  1.00  0.00     0.011 A 
HETATM    8  C   UNL     1      38.472 -12.768  -1.355  1.00  0.00     0.005 A 
HETATM    9  C   UNL     1      37.824 -12.739  -2.594  1.00  0.00     0.043 A 
HETATM   10  C   UNL     1      38.142 -11.778  -0.404  1.00  0.00     0.033 A 
HETATM   11  C   UNL     1      36.864 -11.778  -2.930  1.00  0.00     0.031 A 
HETATM   12  N   UNL     1      38.321 -13.785  -3.336  1.00  0.00    -0.364 N 
HETATM   13  C   UNL     1      36.554 -10.808  -1.973  1.00  0.00     0.021 A 
HETATM   14  C   UNL     1      37.186 -10.810  -0.732  1.00  0.00     0.012 A 
HETATM   15 BR   UNL     1      36.749  -9.475   0.536  1.00  0.00    -0.051 Br
HETATM   16  H   UNL     1      38.035 -14.009  -4.280  1.00  0.00     0.165 HD
HETATM   17  C   UNL     1      39.263 -14.466  -2.619  1.00  0.00     0.102 A 
ENDBRANCH   6   7
ENDBRANCH   2   5
BRANCH   1  18
HETATM   18  C   UNL     1      41.842 -15.185   3.778  1.00  0.00     0.280 C 
BRANCH  18  19
HETATM   19  O   UNL     1      43.018 -15.674   3.133  1.00  0.00    -0.342 OA
BRANCH  19  20
HETATM   20  C   UNL     1      43.330 -16.966   3.470  1.00  0.00     0.069 A 
HETATM   21  C   UNL     1      43.354 -18.027   2.563  1.00  0.00     0.044 A 
HETATM   22  C   UNL     1      43.700 -19.325   2.981  1.00  0.00    -0.053 A 
HETATM   23  C   UNL     1      44.012 -19.555   4.335  1.00  0.00    -0.056 A 
HETATM   24  C   UNL     1      43.703 -20.442   1.972  1.00  0.00     0.049 C 
HETATM   25  C   UNL     1      44.383 -20.925   4.836  1.00  0.00     0.049 C 
HETATM   26  C   UNL     1      44.017 -18.474   5.229  1.00  0.00     0.010 A 
HETATM   27  C   UNL     1      43.686 -17.187   4.797  1.00  0.00     0.037 A 
ENDBRANCH  19  20
ENDBRANCH  18  19
ENDBRANCH   1  18
TORSDOF 5
ENDMDL
MODEL 5
REMARK VINA RESULT:      -8.3      2.128      2.993
REMARK  5 active torsions:
REMARK  status: ('A' for Active; 'I' for Inactive)
REMARK    1  A    between atoms: C_6  and  O_7 
REMARK    2  A    between atoms: O_7  and  C_8 
REMARK    3  A    between atoms: C_8  and  C_9 
REMARK       I    between atoms: C_9  and  N_10 
REMARK    4  A    between atoms: N_10  and  N_11 
REMARK    5  A    between atoms: C_12  and  C_13 
ROOT
HETATM    1  C   UNL     1      45.261 -11.449   6.514  1.00  0.00     0.261 C 
HETATM    2  N   UNL     1      44.141 -12.226   6.778  1.00  0.00    -0.246 N 
HETATM    3  O   UNL     1      45.627 -11.082   5.399  1.00  0.00    -0.269 OA
HETATM    4  H   UNL     1      43.944 -12.508   7.734  1.00  0.00     0.192 HD
ENDROOT
BRANCH   2   5
HETATM    5  N   UNL     1      43.359 -12.655   5.747  1.00  0.00    -0.184 NA
HETATM    6  C   UNL     1      42.144 -12.984   6.044  1.00  0.00     0.152 C 
BRANCH   6   7
HETATM    7  C   UNL     1      41.262 -13.442   4.988  1.00  0.00     0.011 A 
HETATM    8  C   UNL     1      41.431 -14.577   4.130  1.00  0.00     0.005 A 
HETATM    9  C   UNL     1      40.322 -14.626   3.280  1.00  0.00     0.043 A 
HETATM   10  C   UNL     1      42.415 -15.582   4.005  1.00  0.00     0.033 A 
HETATM   11  C   UNL     1      40.147 -15.620   2.310  1.00  0.00     0.031 A 
HETATM   12  N   UNL     1      39.516 -13.559   3.603  1.00  0.00    -0.364 N 
HETATM   13  C   UNL     1      41.134 -16.605   2.206  1.00  0.00     0.021 A 
HETATM   14  C   UNL     1      42.247 -16.583   3.042  1.00  0.00     0.012 A 
HETATM   15 BR   UNL     1      43.558 -17.939   2.879  1.00  0.00    -0.051 Br
HETATM   16  H   UNL     1      38.638 -13.342   3.151  1.00  0.00     0.165 HD
HETATM   17  C   UNL     1      40.067 -12.847   4.630  1.00  0.00     0.102 A 
ENDBRANCH   6   7
ENDBRANCH   2   5
BRANCH   1  18
HETATM   18  C   UNL     1      45.968 -10.972   7.778  1.00  0.00     0.280 C 
BRANCH  18  19
HETATM   19  O   UNL     1      45.942  -9.548   7.878  1.00  0.00    -0.342 OA
BRANCH  19  20
HETATM   20  C   UNL     1      45.131  -9.084   8.881  1.00  0.00     0.069 A 
HETATM   21  C   UNL     1      44.358  -7.925   8.790  1.00  0.00     0.044 A 
HETATM   22  C   UNL     1      43.536  -7.520   9.857  1.00  0.00    -0.053 A 
HETATM   23  C   UNL     1      43.506  -8.290  11.036  1.00  0.00    -0.056 A 
HETATM   24  C   UNL     1      42.728  -6.257   9.720  1.00  0.00     0.049 C 
HETATM   25  C   UNL     1      42.648  -7.898  12.210  1.00  0.00     0.049 C 
HETATM   26  C   UNL     1      44.261  -9.470  11.102  1.00  0.00     0.010 A 
HETATM   27  C   UNL     1      45.062  -9.867  10.029  1.00  0.00     0.037 A 
ENDBRANCH  19  20
ENDBRANCH  18  19
ENDBRANCH   1  18
TORSDOF 5
ENDMDL
MODEL 6
REMARK VINA RESULT:      -8.2      2.065      2.548
REMARK  5 active torsions:
REMARK  status: ('A' for Active; 'I' for Inactive)
REMARK    1  A    between atoms: C_6  and  O_7 
REMARK    2  A    between atoms: O_7  and  C_8 
REMARK    3  A    between atoms: C_8  and  C_9 
REMARK       I    between atoms: C_9  and  N_10 
REMARK    4  A    between atoms: N_10  and  N_11 
REMARK    5  A    between atoms: C_12  and  C_13 
ROOT
HETATM    1  C   UNL     1      44.430 -11.830   7.060  1.00  0.00     0.261 C 
HETATM    2  N   UNL     1      43.477 -12.809   6.813  1.00  0.00    -0.246 N 
HETATM    3  O   UNL     1      45.259 -11.422   6.249  1.00  0.00    -0.269 OA
HETATM    4  H   UNL     1      42.859 -13.103   7.564  1.00  0.00     0.192 HD
ENDROOT
BRANCH   2   5
HETATM    5  N   UNL     1      43.426 -13.408   5.590  1.00  0.00    -0.184 NA
HETATM    6  C   UNL     1      43.141 -14.669   5.579  1.00  0.00     0.152 C 
BRANCH   6   7
HETATM    7  C   UNL     1      43.066 -15.361   4.306  1.00  0.00     0.011 A 
HETATM    8  C   UNL     1      43.315 -16.746   4.040  1.00  0.00     0.005 A 
HETATM    9  C   UNL     1      43.106 -16.953   2.673  1.00  0.00     0.043 A 
HETATM   10  C   UNL     1      43.683 -17.853   4.835  1.00  0.00     0.033 A 
HETATM   11  C   UNL     1      43.250 -18.203   2.060  1.00  0.00     0.031 A 
HETATM   12  N   UNL     1      42.752 -15.740   2.129  1.00  0.00    -0.364 N 
HETATM   13  C   UNL     1      43.613 -19.284   2.868  1.00  0.00     0.021 A 
HETATM   14  C   UNL     1      43.824 -19.108   4.233  1.00  0.00     0.012 A 
HETATM   15 BR   UNL     1      44.306 -20.597   5.298  1.00  0.00    -0.051 Br
HETATM   16  H   UNL     1      42.538 -15.587   1.153  1.00  0.00     0.165 HD
HETATM   17  C   UNL     1      42.719 -14.780   3.100  1.00  0.00     0.102 A 
ENDBRANCH   6   7
ENDBRANCH   2   5
BRANCH   1  18
HETATM   18  C   UNL     1      44.289 -11.193   8.439  1.00  0.00     0.280 C 
BRANCH  18  19
HETATM   19  O   UNL     1      44.603  -9.801   8.399  1.00  0.00    -0.342 OA
BRANCH  19  20
HETATM   20  C   UNL     1      44.089  -9.093   9.455  1.00  0.00     0.069 A 
HETATM   21  C   UNL     1      43.508  -7.829   9.341  1.00  0.00     0.044 A 
HETATM   22  C   UNL     1      42.986  -7.170  10.469  1.00  0.00    -0.053 A 
HETATM   23  C   UNL     1      43.066  -7.793  11.731  1.00  0.00    -0.056 A 
HETATM   24  C   UNL     1      42.380  -5.803  10.304  1.00  0.00     0.049 C 
HETATM   25  C   UNL     1      42.528  -7.131  12.971  1.00  0.00     0.049 C 
HETATM   26  C   UNL     1      43.621  -9.078  11.825  1.00  0.00     0.010 A 
HETATM   27  C   UNL     1      44.122  -9.726  10.694  1.00  0.00     0.037 A 
ENDBRANCH  19  20
ENDBRANCH  18  19
ENDBRANCH   1  18
TORSDOF 5
ENDMDL
MODEL 7
REMARK VINA RESULT:      -8.2      7.434     10.420
REMARK  5 active torsions:
REMARK  status: ('A' for Active; 'I' for Inactive)
REMARK    1  A    between atoms: C_6  and  O_7 
REMARK    2  A    between atoms: O_7  and  C_8 
REMARK    3  A    between atoms: C_8  and  C_9 
REMARK       I    between atoms: C_9  and  N_10 
REMARK    4  A    between atoms: N_10  and  N_11 
REMARK    5  A    between atoms: C_12  and  C_13 
ROOT
HETATM    1  C   UNL     1      41.310 -14.089   2.475  1.00  0.00     0.261 C 
HETATM    2  N   UNL     1      40.414 -14.582   1.536  1.00  0.00    -0.246 N 
HETATM    3  O   UNL     1      41.647 -12.913   2.589  1.00  0.00    -0.269 OA
HETATM    4  H   UNL     1      40.229 -15.581   1.499  1.00  0.00     0.192 HD
ENDROOT
BRANCH   2   5
HETATM    5  N   UNL     1      39.848 -13.733   0.632  1.00  0.00    -0.184 NA
HETATM    6  C   UNL     1      40.240 -13.852  -0.594  1.00  0.00     0.152 C 
BRANCH   6   7
HETATM    7  C   UNL     1      39.668 -12.980  -1.602  1.00  0.00     0.011 A 
HETATM    8  C   UNL     1      40.074 -11.652  -1.951  1.00  0.00     0.005 A 
HETATM    9  C   UNL     1      39.238 -11.218  -2.984  1.00  0.00     0.043 A 
HETATM   10  C   UNL     1      41.086 -10.778  -1.498  1.00  0.00     0.033 A 
HETATM   11  C   UNL     1      39.357  -9.959  -3.584  1.00  0.00     0.031 A 
HETATM   12  N   UNL     1      38.355 -12.239  -3.248  1.00  0.00    -0.364 N 
HETATM   13  C   UNL     1      40.367  -9.111  -3.119  1.00  0.00     0.021 A 
HETATM   14  C   UNL     1      41.216  -9.518  -2.093  1.00  0.00     0.012 A 
HETATM   15 BR   UNL     1      42.579  -8.349  -1.496  1.00  0.00    -0.051 Br
HETATM   16  H   UNL     1      37.631 -12.208  -3.954  1.00  0.00     0.165 HD
HETATM   17  C   UNL     1      38.608 -13.303  -2.430  1.00  0.00     0.102 A 
ENDBRANCH   6   7
ENDBRANCH   2   5
BRANCH   1  18
HETATM   18  C   UNL     1      41.774 -15.148   3.470  1.00  0.00     0.280 C 
BRANCH  18  19
HETATM   19  O   UNL     1      43.125 -15.536   3.218  1.00  0.00    -0.342 OA
BRANCH  19  20
HETATM   20  C   UNL     1      43.396 -16.833   3.568  1.00  0.00     0.069 A 
HETATM   21  C   UNL     1      43.419 -17.899   2.666  1.00  0.00     0.044 A 
HETATM   22  C   UNL     1      43.722 -19.203   3.097  1.00  0.00    -0.053 A 
HETATM   23  C   UNL     1      43.992 -19.434   4.460  1.00  0.00    -0.056 A 
HETATM   24  C   UNL     1      43.724 -20.324   2.093  1.00  0.00     0.049 C 
HETATM   25  C   UNL     1      44.316 -20.811   4.976  1.00  0.00     0.049 C 
HETATM   26  C   UNL     1      43.999 -18.350   5.350  1.00  0.00     0.010 A 
HETATM   27  C   UNL     1      43.710 -17.058   4.904  1.00  0.00     0.037 A 
ENDBRANCH  19  20
ENDBRANCH  18  19
ENDBRANCH   1  18
TORSDOF 5
ENDMDL
MODEL 8
REMARK VINA RESULT:      -8.0      2.110      2.703
REMARK  5 active torsions:
REMARK  status: ('A' for Active; 'I' for Inactive)
REMARK    1  A    between atoms: C_6  and  O_7 
REMARK    2  A    between atoms: O_7  and  C_8 
REMARK    3  A    between atoms: C_8  and  C_9 
REMARK       I    between atoms: C_9  and  N_10 
REMARK    4  A    between atoms: N_10  and  N_11 
REMARK    5  A    between atoms: C_12  and  C_13 
ROOT
HETATM    1  C   UNL     1      43.646 -10.784   7.744  1.00  0.00     0.261 C 
HETATM    2  N   UNL     1      44.217 -11.978   7.323  1.00  0.00    -0.246 N 
HETATM    3  O   UNL     1      42.985 -10.024   7.039  1.00  0.00    -0.269 OA
HETATM    4  H   UNL     1      44.779 -12.519   7.975  1.00  0.00     0.192 HD
ENDROOT
BRANCH   2   5
HETATM    5  N   UNL     1      44.074 -12.376   6.027  1.00  0.00    -0.184 NA
HETATM    6  C   UNL     1      43.096 -13.183   5.777  1.00  0.00     0.152 C 
BRANCH   6   7
HETATM    7  C   UNL     1      42.890 -13.635   4.415  1.00  0.00     0.011 A 
HETATM    8  C   UNL     1      43.077 -14.954   3.886  1.00  0.00     0.005 A 
HETATM    9  C   UNL     1      42.743 -14.911   2.530  1.00  0.00     0.043 A 
HETATM   10  C   UNL     1      43.485 -16.188   4.436  1.00  0.00     0.033 A 
HETATM   11  C   UNL     1      42.798 -16.033   1.694  1.00  0.00     0.031 A 
HETATM   12  N   UNL     1      42.373 -13.617   2.243  1.00  0.00    -0.364 N 
HETATM   13  C   UNL     1      43.203 -17.244   2.262  1.00  0.00     0.021 A 
HETATM   14  C   UNL     1      43.540 -17.317   3.611  1.00  0.00     0.012 A 
HETATM   15 BR   UNL     1      44.074 -18.976   4.347  1.00  0.00    -0.051 Br
HETATM   16  H   UNL     1      42.077 -13.290   1.334  1.00  0.00     0.165 HD
HETATM   17  C   UNL     1      42.452 -12.846   3.367  1.00  0.00     0.102 A 
ENDBRANCH   6   7
ENDBRANCH   2   5
BRANCH   1  18
HETATM   18  C   UNL     1      43.815 -10.536   9.239  1.00  0.00     0.280 C 
BRANCH  18  19
HETATM   19  O   UNL     1      43.428  -9.206   9.588  1.00  0.00    -0.342 OA
BRANCH  19  20
HETATM   20  C   UNL     1      42.925  -9.098  10.858  1.00  0.00     0.069 A 
HETATM   21  C   UNL     1      41.782  -9.763  11.306  1.00  0.00     0.044 A 
HETATM   22  C   UNL     1      41.334  -9.615  12.631  1.00  0.00    -0.053 A 
HETATM   23  C   UNL     1      42.044  -8.773  13.511  1.00  0.00    -0.056 A 
HETATM   24  C   UNL     1      40.091 -10.341  13.069  1.00  0.00     0.049 C 
HETATM   25  C   UNL     1      41.605  -8.575  14.937  1.00  0.00     0.049 C 
HETATM   26  C   UNL     1      43.210  -8.138  13.057  1.00  0.00     0.010 A 
HETATM   27  C   UNL     1      43.650  -8.306  11.742  1.00  0.00     0.037 A 
ENDBRANCH  19  20
ENDBRANCH  18  19
ENDBRANCH   1  18
TORSDOF 5
ENDMDL
MODEL 9
REMARK VINA RESULT:      -7.6      4.367     10.239
REMARK  5 active torsions:
REMARK  status: ('A' for Active; 'I' for Inactive)
REMARK    1  A    between atoms: C_6  and  O_7 
REMARK    2  A    between atoms: O_7  and  C_8 
REMARK    3  A    between atoms: C_8  and  C_9 
REMARK       I    between atoms: C_9  and  N_10 
REMARK    4  A    between atoms: N_10  and  N_11 
REMARK    5  A    between atoms: C_12  and  C_13 
ROOT
HETATM    1  C   UNL     1      40.770 -14.083   3.347  1.00  0.00     0.261 C 
HETATM    2  N   UNL     1      41.427 -13.579   4.461  1.00  0.00    -0.246 N 
HETATM    3  O   UNL     1      40.184 -13.411   2.501  1.00  0.00    -0.269 OA
HETATM    4  H   UNL     1      41.851 -14.222   5.124  1.00  0.00     0.192 HD
ENDROOT
BRANCH   2   5
HETATM    5  N   UNL     1      41.436 -12.235   4.689  1.00  0.00    -0.184 NA
HETATM    6  C   UNL     1      41.275 -11.857   5.915  1.00  0.00     0.152 C 
BRANCH   6   7
HETATM    7  C   UNL     1      41.282 -10.439   6.220  1.00  0.00     0.011 A 
HETATM    8  C   UNL     1      42.151  -9.735   7.114  1.00  0.00     0.005 A 
HETATM    9  C   UNL     1      41.790  -8.385   7.071  1.00  0.00     0.043 A 
HETATM   10  C   UNL     1      43.226 -10.113   7.949  1.00  0.00     0.033 A 
HETATM   11  C   UNL     1      42.441  -7.397   7.818  1.00  0.00     0.031 A 
HETATM   12  N   UNL     1      40.739  -8.274   6.190  1.00  0.00    -0.364 N 
HETATM   13  C   UNL     1      43.503  -7.795   8.635  1.00  0.00     0.021 A 
HETATM   14  C   UNL     1      43.886  -9.132   8.697  1.00  0.00     0.012 A 
HETATM   15 BR   UNL     1      45.334  -9.634   9.807  1.00  0.00    -0.051 Br
HETATM   16  H   UNL     1      40.271  -7.409   5.956  1.00  0.00     0.165 HD
HETATM   17  C   UNL     1      40.431  -9.499   5.670  1.00  0.00     0.102 A 
ENDBRANCH   6   7
ENDBRANCH   2   5
BRANCH   1  18
HETATM   18  C   UNL     1      40.938 -15.591   3.187  1.00  0.00     0.280 C 
BRANCH  18  19
HETATM   19  O   UNL     1      42.194 -15.910   2.587  1.00  0.00    -0.342 OA
BRANCH  19  20
HETATM   20  C   UNL     1      42.753 -17.065   3.070  1.00  0.00     0.069 A 
HETATM   21  C   UNL     1      42.983 -18.205   2.298  1.00  0.00     0.044 A 
HETATM   22  C   UNL     1      43.577 -19.349   2.860  1.00  0.00    -0.053 A 
HETATM   23  C   UNL     1      43.930 -19.345   4.224  1.00  0.00    -0.056 A 
HETATM   24  C   UNL     1      43.796 -20.561   1.994  1.00  0.00     0.049 C 
HETATM   25  C   UNL     1      44.562 -20.545   4.877  1.00  0.00     0.049 C 
HETATM   26  C   UNL     1      43.724 -18.181   4.980  1.00  0.00     0.010 A 
HETATM   27  C   UNL     1      43.146 -17.047   4.404  1.00  0.00     0.037 A 
ENDBRANCH  19  20
ENDBRANCH  18  19
ENDBRANCH   1  18
TORSDOF 5
ENDMDL
MODEL 10
REMARK VINA RESULT:      -7.4     18.022     19.982
REMARK  5 active torsions:
REMARK  status: ('A' for Active; 'I' for Inactive)
REMARK    1  A    between atoms: C_6  and  O_7 
REMARK    2  A    between atoms: O_7  and  C_8 
REMARK    3  A    between atoms: C_8  and  C_9 
REMARK       I    between atoms: C_9  and  N_10 
REMARK    4  A    between atoms: N_10  and  N_11 
REMARK    5  A    between atoms: C_12  and  C_13 
ROOT
HETATM    1  C   UNL     1      41.703 -30.345   2.912  1.00  0.00     0.261 C 
HETATM    2  N   UNL     1      42.884 -29.845   3.443  1.00  0.00    -0.246 N 
HETATM    3  O   UNL     1      41.363 -30.266   1.734  1.00  0.00    -0.269 OA
HETATM    4  H   UNL     1      43.057 -29.929   4.441  1.00  0.00     0.192 HD
ENDROOT
BRANCH   2   5
HETATM    5  N   UNL     1      43.765 -29.190   2.635  1.00  0.00    -0.184 NA
HETATM    6  C   UNL     1      44.943 -29.710   2.525  1.00  0.00     0.152 C 
BRANCH   6   7
HETATM    7  C   UNL     1      45.921 -29.062   1.673  1.00  0.00     0.011 A 
HETATM    8  C   UNL     1      45.882 -28.902   0.250  1.00  0.00     0.005 A 
HETATM    9  C   UNL     1      47.034 -28.203  -0.123  1.00  0.00     0.043 A 
HETATM   10  C   UNL     1      44.968 -29.272  -0.760  1.00  0.00     0.033 A 
HETATM   11  C   UNL     1      47.322 -27.859  -1.448  1.00  0.00     0.031 A 
HETATM   12  N   UNL     1      47.748 -27.954   1.026  1.00  0.00    -0.364 N 
HETATM   13  C   UNL     1      46.401 -28.234  -2.431  1.00  0.00     0.021 A 
HETATM   14  C   UNL     1      45.244 -28.928  -2.088  1.00  0.00     0.012 A 
HETATM   15 BR   UNL     1      44.014 -29.412  -3.443  1.00  0.00    -0.051 Br
HETATM   16  H   UNL     1      48.629 -27.459   1.063  1.00  0.00     0.165 HD
HETATM   17  C   UNL     1      47.087 -28.459   2.110  1.00  0.00     0.102 A 
ENDBRANCH   6   7
ENDBRANCH   2   5
BRANCH   1  18
HETATM   18  C   UNL     1      40.879 -31.133   3.926  1.00  0.00     0.280 C 
BRANCH  18  19
HETATM   19  O   UNL     1      40.075 -32.121   3.281  1.00  0.00    -0.342 OA
BRANCH  19  20
HETATM   20  C   UNL     1      39.175 -32.726   4.119  1.00  0.00     0.069 A 
HETATM   21  C   UNL     1      38.103 -33.508   3.683  1.00  0.00     0.044 A 
HETATM   22  C   UNL     1      37.229 -34.112   4.605  1.00  0.00    -0.053 A 
HETATM   23  C   UNL     1      37.433 -33.911   5.985  1.00  0.00    -0.056 A 
HETATM   24  C   UNL     1      36.081 -34.938   4.092  1.00  0.00     0.049 C 
HETATM   25  C   UNL     1      36.525 -34.528   7.013  1.00  0.00     0.049 C 
HETATM   26  C   UNL     1      38.533 -33.150   6.410  1.00  0.00     0.010 A 
HETATM   27  C   UNL     1      39.402 -32.569   5.483  1.00  0.00     0.037 A 
ENDBRANCH  19  20
ENDBRANCH  18  19
ENDBRANCH   1  18
TORSDOF 5
ENDMDL
