MODEL 1
REMARK VINA RESULT:      -7.3      0.000      0.000
REMARK  5 active torsions:
REMARK  status: ('A' for Active; 'I' for Inactive)
REMARK    1  A    between atoms: C_2  and  C_3 
REMARK    2  A    between atoms: C_3  and  N_4 
REMARK    3  A    between atoms: C_3  and  C_14 
REMARK       I    between atoms: N_4  and  C_5 
REMARK    4  A    between atoms: C_5  and  C_6 
REMARK    5  A    between atoms: C_17  and  O_18 
ROOT
HETATM    1  C   UNL     1      40.788 -13.468   2.210  1.00  0.00     0.117 C 
ENDROOT
BRANCH   1   2
HETATM    2  C   UNL     1      39.521 -13.086   3.002  1.00  0.00     0.025 C 
HETATM    3  C   UNL     1      39.812 -12.641   4.430  1.00  0.00     0.007 C 
ENDBRANCH   1   2
BRANCH   1   4
HETATM    4  N   UNL     1      41.368 -14.719   2.687  1.00  0.00    -0.348 N 
HETATM    5  C   UNL     1      42.722 -14.963   2.650  1.00  0.00     0.253 C 
HETATM    6  O   UNL     1      43.546 -14.161   2.228  1.00  0.00    -0.268 OA
HETATM    7  H   UNL     1      40.724 -15.468   2.891  1.00  0.00     0.163 HD
BRANCH   5   8
HETATM    8  C   UNL     1      43.172 -16.293   3.128  1.00  0.00     0.050 A 
HETATM    9  C   UNL     1      43.661 -16.402   4.426  1.00  0.00     0.133 A 
HETATM   10  N   UNL     1      44.104 -17.562   4.974  1.00  0.00    -0.271 NA
HETATM   11  C   UNL     1      44.040 -18.665   4.192  1.00  0.00     0.135 A 
HETATM   12  C   UNL     1      43.550 -18.656   2.894  1.00  0.00     0.029 A 
HETATM   13 BR   UNL     1      43.482 -20.244   1.881  1.00  0.00    -0.050 Br
HETATM   14  C   UNL     1      43.104 -17.454   2.351  1.00  0.00     0.039 A 
ENDBRANCH   5   8
ENDBRANCH   1   4
BRANCH   1  15
HETATM   15  C   UNL     1      40.504 -13.604   0.721  1.00  0.00    -0.035 A 
HETATM   16  C   UNL     1      39.854 -14.747   0.239  1.00  0.00     0.012 A 
HETATM   17  C   UNL     1      39.556 -14.877  -1.121  1.00  0.00     0.037 A 
HETATM   18  C   UNL     1      39.888 -13.866  -2.023  1.00  0.00     0.068 A 
HETATM   19  C   UNL     1      40.532 -12.722  -1.555  1.00  0.00     0.037 A 
HETATM   20  C   UNL     1      40.836 -12.591  -0.195  1.00  0.00     0.012 A 
BRANCH  18  21
HETATM   21  O   UNL     1      39.532 -14.116  -3.320  1.00  0.00    -0.356 OA
HETATM   22  C   UNL     1      38.263 -14.721  -3.533  1.00  0.00     0.210 C 
ENDBRANCH  18  21
ENDBRANCH   1  15
TORSDOF 5
ENDMDL
MODEL 2
REMARK VINA RESULT:      -7.1      3.849      7.050
REMARK  5 active torsions:
REMARK  status: ('A' for Active; 'I' for Inactive)
REMARK    1  A    between atoms: C_2  and  C_3 
REMARK    2  A    between atoms: C_3  and  N_4 
REMARK    3  A    between atoms: C_3  and  C_14 
REMARK       I    between atoms: N_4  and  C_5 
REMARK    4  A    between atoms: C_5  and  C_6 
REMARK    5  A    between atoms: C_17  and  O_18 
ROOT
HETATM    1  C   UNL     1      41.822 -15.292   3.032  1.00  0.00     0.117 C 
ENDROOT
BRANCH   1   2
HETATM    2  C   UNL     1      40.331 -15.628   2.826  1.00  0.00     0.025 C 
HETATM    3  C   UNL     1      39.941 -15.766   1.359  1.00  0.00     0.007 C 
ENDBRANCH   1   2
BRANCH   1   4
HETATM    4  N   UNL     1      42.010 -14.265   4.051  1.00  0.00    -0.348 N 
HETATM    5  C   UNL     1      42.735 -13.119   3.816  1.00  0.00     0.253 C 
HETATM    6  O   UNL     1      43.269 -12.861   2.745  1.00  0.00    -0.268 OA
HETATM    7  H   UNL     1      41.729 -14.502   4.990  1.00  0.00     0.163 HD
BRANCH   5   8
HETATM    8  C   UNL     1      42.881 -12.179   4.954  1.00  0.00     0.050 A 
HETATM    9  C   UNL     1      41.750 -11.509   5.412  1.00  0.00     0.133 A 
HETATM   10  N   UNL     1      41.758 -10.624   6.441  1.00  0.00    -0.271 NA
HETATM   11  C   UNL     1      42.949 -10.412   7.048  1.00  0.00     0.135 A 
HETATM   12  C   UNL     1      44.124 -11.047   6.672  1.00  0.00     0.029 A 
HETATM   13 BR   UNL     1      45.738 -10.703   7.585  1.00  0.00    -0.050 Br
HETATM   14  C   UNL     1      44.093 -11.949   5.612  1.00  0.00     0.039 A 
ENDBRANCH   5   8
ENDBRANCH   1   4
BRANCH   1  15
HETATM   15  C   UNL     1      42.629 -16.520   3.429  1.00  0.00    -0.035 A 
HETATM   16  C   UNL     1      42.987 -16.712   4.770  1.00  0.00     0.012 A 
HETATM   17  C   UNL     1      43.700 -17.849   5.161  1.00  0.00     0.037 A 
HETATM   18  C   UNL     1      44.058 -18.822   4.226  1.00  0.00     0.068 A 
HETATM   19  C   UNL     1      43.705 -18.643   2.890  1.00  0.00     0.037 A 
HETATM   20  C   UNL     1      42.994 -17.504   2.495  1.00  0.00     0.012 A 
BRANCH  18  21
HETATM   21  O   UNL     1      44.745 -19.886   4.743  1.00  0.00    -0.356 OA
HETATM   22  C   UNL     1      43.976 -20.897   5.383  1.00  0.00     0.210 C 
ENDBRANCH  18  21
ENDBRANCH   1  15
TORSDOF 5
ENDMDL
MODEL 3
REMARK VINA RESULT:      -7.1      2.940      6.844
REMARK  5 active torsions:
REMARK  status: ('A' for Active; 'I' for Inactive)
REMARK    1  A    between atoms: C_2  and  C_3 
REMARK    2  A    between atoms: C_3  and  N_4 
REMARK    3  A    between atoms: C_3  and  C_14 
REMARK       I    between atoms: N_4  and  C_5 
REMARK    4  A    between atoms: C_5  and  C_6 
REMARK    5  A    between atoms: C_17  and  O_18 
ROOT
HETATM    1  C   UNL     1      41.961 -14.703   3.386  1.00  0.00     0.117 C 
ENDROOT
BRANCH   1   2
HETATM    2  C   UNL     1      42.852 -13.674   4.112  1.00  0.00     0.025 C 
HETATM    3  C   UNL     1      43.480 -12.651   3.173  1.00  0.00     0.007 C 
ENDBRANCH   1   2
BRANCH   1   4
HETATM    4  N   UNL     1      41.695 -14.312   2.006  1.00  0.00    -0.348 N 
HETATM    5  C   UNL     1      40.449 -13.909   1.583  1.00  0.00     0.253 C 
HETATM    6  O   UNL     1      39.472 -13.836   2.319  1.00  0.00    -0.268 OA
HETATM    7  H   UNL     1      42.420 -14.508   1.332  1.00  0.00     0.163 HD
BRANCH   5   8
HETATM    8  C   UNL     1      40.310 -13.580   0.144  1.00  0.00     0.050 A 
HETATM    9  C   UNL     1      41.032 -12.504  -0.365  1.00  0.00     0.133 A 
HETATM   10  N   UNL     1      40.984 -12.104  -1.661  1.00  0.00    -0.271 NA
HETATM   11  C   UNL     1      40.190 -12.823  -2.488  1.00  0.00     0.135 A 
HETATM   12  C   UNL     1      39.449 -13.920  -2.075  1.00  0.00     0.029 A 
HETATM   13 BR   UNL     1      38.379 -14.875  -3.300  1.00  0.00    -0.050 Br
HETATM   14  C   UNL     1      39.510 -14.311  -0.740  1.00  0.00     0.039 A 
ENDBRANCH   5   8
ENDBRANCH   1   4
BRANCH   1  15
HETATM   15  C   UNL     1      42.588 -16.091   3.383  1.00  0.00    -0.035 A 
HETATM   16  C   UNL     1      43.270 -16.547   4.519  1.00  0.00     0.012 A 
HETATM   17  C   UNL     1      43.826 -17.830   4.548  1.00  0.00     0.037 A 
HETATM   18  C   UNL     1      43.702 -18.685   3.452  1.00  0.00     0.068 A 
HETATM   19  C   UNL     1      43.023 -18.243   2.319  1.00  0.00     0.037 A 
HETATM   20  C   UNL     1      42.469 -16.958   2.284  1.00  0.00     0.012 A 
BRANCH  18  21
HETATM   21  O   UNL     1      44.282 -19.913   3.616  1.00  0.00    -0.356 OA
HETATM   22  C   UNL     1      44.275 -20.458   4.930  1.00  0.00     0.210 C 
ENDBRANCH  18  21
ENDBRANCH   1  15
TORSDOF 5
ENDMDL
MODEL 4
REMARK VINA RESULT:      -6.9      4.516      6.784
REMARK  5 active torsions:
REMARK  status: ('A' for Active; 'I' for Inactive)
REMARK    1  A    between atoms: C_2  and  C_3 
REMARK    2  A    between atoms: C_3  and  N_4 
REMARK    3  A    between atoms: C_3  and  C_14 
REMARK       I    between atoms: N_4  and  C_5 
REMARK    4  A    between atoms: C_5  and  C_6 
REMARK    5  A    between atoms: C_17  and  O_18 
ROOT
HETATM    1  C   UNL     1      42.705 -13.660   3.053  1.00  0.00     0.117 C 
ENDROOT
BRANCH   1   2
HETATM    2  C   UNL     1      41.293 -13.377   2.500  1.00  0.00     0.025 C 
HETATM    3  C   UNL     1      40.209 -13.405   3.571  1.00  0.00     0.007 C 
ENDBRANCH   1   2
BRANCH   1   4
HETATM    4  N   UNL     1      42.914 -13.031   4.352  1.00  0.00    -0.348 N 
HETATM    5  C   UNL     1      43.709 -11.919   4.511  1.00  0.00     0.253 C 
HETATM    6  O   UNL     1      44.293 -11.363   3.589  1.00  0.00    -0.268 OA
HETATM    7  H   UNL     1      42.590 -13.541   5.160  1.00  0.00     0.163 HD
BRANCH   5   8
HETATM    8  C   UNL     1      43.869 -11.407   5.894  1.00  0.00     0.050 A 
HETATM    9  C   UNL     1      45.022 -11.742   6.598  1.00  0.00     0.133 A 
HETATM   10  N   UNL     1      45.279 -11.338   7.868  1.00  0.00    -0.271 NA
HETATM   11  C   UNL     1      44.347 -10.551   8.454  1.00  0.00     0.135 A 
HETATM   12  C   UNL     1      43.177 -10.151   7.824  1.00  0.00     0.029 A 
HETATM   13 BR   UNL     1      41.938  -9.040   8.711  1.00  0.00    -0.050 Br
HETATM   14  C   UNL     1      42.932 -10.581   6.522  1.00  0.00     0.039 A 
ENDBRANCH   5   8
ENDBRANCH   1   4
BRANCH   1  15
HETATM   15  C   UNL     1      42.969 -15.153   3.191  1.00  0.00    -0.035 A 
HETATM   16  C   UNL     1      42.998 -15.962   2.046  1.00  0.00     0.012 A 
HETATM   17  C   UNL     1      43.270 -17.329   2.148  1.00  0.00     0.037 A 
HETATM   18  C   UNL     1      43.530 -17.914   3.388  1.00  0.00     0.068 A 
HETATM   19  C   UNL     1      43.506 -17.120   4.532  1.00  0.00     0.037 A 
HETATM   20  C   UNL     1      43.230 -15.751   4.435  1.00  0.00     0.012 A 
BRANCH  18  21
HETATM   21  O   UNL     1      43.789 -19.256   3.344  1.00  0.00    -0.356 OA
HETATM   22  C   UNL     1      43.397 -19.950   2.166  1.00  0.00     0.210 C 
ENDBRANCH  18  21
ENDBRANCH   1  15
TORSDOF 5
ENDMDL
MODEL 5
REMARK VINA RESULT:      -6.6      3.279      6.786
REMARK  5 active torsions:
REMARK  status: ('A' for Active; 'I' for Inactive)
REMARK    1  A    between atoms: C_2  and  C_3 
REMARK    2  A    between atoms: C_3  and  N_4 
REMARK    3  A    between atoms: C_3  and  C_14 
REMARK       I    between atoms: N_4  and  C_5 
REMARK    4  A    between atoms: C_5  and  C_6 
REMARK    5  A    between atoms: C_17  and  O_18 
ROOT
HETATM    1  C   UNL     1      42.026 -14.465   3.516  1.00  0.00     0.117 C 
ENDROOT
BRANCH   1   2
HETATM    2  C   UNL     1      42.960 -13.476   4.243  1.00  0.00     0.025 C 
HETATM    3  C   UNL     1      42.226 -12.545   5.199  1.00  0.00     0.007 C 
ENDBRANCH   1   2
BRANCH   1   4
HETATM    4  N   UNL     1      41.772 -14.058   2.139  1.00  0.00    -0.348 N 
HETATM    5  C   UNL     1      40.505 -13.790   1.672  1.00  0.00     0.253 C 
HETATM    6  O   UNL     1      39.497 -13.858   2.366  1.00  0.00    -0.268 OA
HETATM    7  H   UNL     1      42.541 -14.144   1.492  1.00  0.00     0.163 HD
BRANCH   5   8
HETATM    8  C   UNL     1      40.386 -13.428   0.240  1.00  0.00     0.050 A 
HETATM    9  C   UNL     1      39.933 -14.393  -0.655  1.00  0.00     0.133 A 
HETATM   10  N   UNL     1      39.787 -14.182  -1.988  1.00  0.00    -0.271 NA
HETATM   11  C   UNL     1      40.093 -12.945  -2.443  1.00  0.00     0.135 A 
HETATM   12  C   UNL     1      40.533 -11.915  -1.624  1.00  0.00     0.029 A 
HETATM   13 BR   UNL     1      40.923 -10.215  -2.341  1.00  0.00    -0.050 Br
HETATM   14  C   UNL     1      40.680 -12.155  -0.260  1.00  0.00     0.039 A 
ENDBRANCH   5   8
ENDBRANCH   1   4
BRANCH   1  15
HETATM   15  C   UNL     1      42.596 -15.877   3.506  1.00  0.00    -0.035 A 
HETATM   16  C   UNL     1      42.468 -16.670   2.358  1.00  0.00     0.012 A 
HETATM   17  C   UNL     1      43.011 -17.957   2.318  1.00  0.00     0.037 A 
HETATM   18  C   UNL     1      43.703 -18.474   3.414  1.00  0.00     0.068 A 
HETATM   19  C   UNL     1      43.839 -17.693   4.561  1.00  0.00     0.037 A 
HETATM   20  C   UNL     1      43.292 -16.406   4.606  1.00  0.00     0.012 A 
BRANCH  18  21
HETATM   21  O   UNL     1      44.191 -19.739   3.238  1.00  0.00    -0.356 OA
HETATM   22  C   UNL     1      43.675 -20.481   2.140  1.00  0.00     0.210 C 
ENDBRANCH  18  21
ENDBRANCH   1  15
TORSDOF 5
ENDMDL
MODEL 6
REMARK VINA RESULT:      -6.4     14.546     15.606
REMARK  5 active torsions:
REMARK  status: ('A' for Active; 'I' for Inactive)
REMARK    1  A    between atoms: C_2  and  C_3 
REMARK    2  A    between atoms: C_3  and  N_4 
REMARK    3  A    between atoms: C_3  and  C_14 
REMARK       I    between atoms: N_4  and  C_5 
REMARK    4  A    between atoms: C_5  and  C_6 
REMARK    5  A    between atoms: C_17  and  O_18 
ROOT
HETATM    1  C   UNL     1      44.900 -29.251   0.371  1.00  0.00     0.117 C 
ENDROOT
BRANCH   1   2
HETATM    2  C   UNL     1      43.770 -30.041   1.061  1.00  0.00     0.025 C 
HETATM    3  C   UNL     1      42.498 -29.226   1.261  1.00  0.00     0.007 C 
ENDBRANCH   1   2
BRANCH   1   4
HETATM    4  N   UNL     1      46.218 -29.761   0.735  1.00  0.00    -0.348 N 
HETATM    5  C   UNL     1      47.152 -28.987   1.386  1.00  0.00     0.253 C 
HETATM    6  O   UNL     1      46.957 -27.825   1.721  1.00  0.00    -0.268 OA
HETATM    7  H   UNL     1      46.483 -30.651   0.342  1.00  0.00     0.163 HD
BRANCH   5   8
HETATM    8  C   UNL     1      48.465 -29.619   1.657  1.00  0.00     0.050 A 
HETATM    9  C   UNL     1      49.281 -29.947   0.578  1.00  0.00     0.133 A 
HETATM   10  N   UNL     1      50.501 -30.530   0.699  1.00  0.00    -0.271 NA
HETATM   11  C   UNL     1      50.929 -30.782   1.958  1.00  0.00     0.135 A 
HETATM   12  C   UNL     1      50.194 -30.474   3.093  1.00  0.00     0.029 A 
HETATM   13 BR   UNL     1      50.876 -30.847   4.811  1.00  0.00    -0.050 Br
HETATM   14  C   UNL     1      48.944 -29.878   2.945  1.00  0.00     0.039 A 
ENDBRANCH   5   8
ENDBRANCH   1   4
BRANCH   1  15
HETATM   15  C   UNL     1      44.770 -29.286  -1.145  1.00  0.00    -0.035 A 
HETATM   16  C   UNL     1      44.291 -30.443  -1.775  1.00  0.00     0.012 A 
HETATM   17  C   UNL     1      44.134 -30.484  -3.163  1.00  0.00     0.037 A 
HETATM   18  C   UNL     1      44.438 -29.372  -3.949  1.00  0.00     0.068 A 
HETATM   19  C   UNL     1      44.912 -28.215  -3.334  1.00  0.00     0.037 A 
HETATM   20  C   UNL     1      45.074 -28.171  -1.944  1.00  0.00     0.012 A 
BRANCH  18  21
HETATM   21  O   UNL     1      44.230 -29.544  -5.290  1.00  0.00    -0.356 OA
HETATM   22  C   UNL     1      44.040 -30.877  -5.745  1.00  0.00     0.210 C 
ENDBRANCH  18  21
ENDBRANCH   1  15
TORSDOF 5
ENDMDL
MODEL 7
REMARK VINA RESULT:      -6.4     14.552     17.223
REMARK  5 active torsions:
REMARK  status: ('A' for Active; 'I' for Inactive)
REMARK    1  A    between atoms: C_2  and  C_3 
REMARK    2  A    between atoms: C_3  and  N_4 
REMARK    3  A    between atoms: C_3  and  C_14 
REMARK       I    between atoms: N_4  and  C_5 
REMARK    4  A    between atoms: C_5  and  C_6 
REMARK    5  A    between atoms: C_17  and  O_18 
ROOT
HETATM    1  C   UNL     1      41.874  -6.681  16.223  1.00  0.00     0.117 C 
ENDROOT
BRANCH   1   2
HETATM    2  C   UNL     1      40.796  -5.616  15.933  1.00  0.00     0.025 C 
HETATM    3  C   UNL     1      39.403  -6.026  16.395  1.00  0.00     0.007 C 
ENDBRANCH   1   2
BRANCH   1   4
HETATM    4  N   UNL     1      41.478  -7.571  17.308  1.00  0.00    -0.348 N 
HETATM    5  C   UNL     1      41.853  -7.351  18.614  1.00  0.00     0.253 C 
HETATM    6  O   UNL     1      42.534  -6.398  18.975  1.00  0.00    -0.268 OA
HETATM    7  H   UNL     1      41.058  -8.449  17.044  1.00  0.00     0.163 HD
BRANCH   5   8
HETATM    8  C   UNL     1      41.416  -8.358  19.611  1.00  0.00     0.050 A 
HETATM    9  C   UNL     1      40.053  -8.513  19.846  1.00  0.00     0.133 A 
HETATM   10  N   UNL     1      39.532  -9.396  20.735  1.00  0.00    -0.271 NA
HETATM   11  C   UNL     1      40.415 -10.172  21.406  1.00  0.00     0.135 A 
HETATM   12  C   UNL     1      41.789 -10.102  21.224  1.00  0.00     0.029 A 
HETATM   13 BR   UNL     1      42.946 -11.232  22.192  1.00  0.00    -0.050 Br
HETATM   14  C   UNL     1      42.301  -9.185  20.310  1.00  0.00     0.039 A 
ENDBRANCH   5   8
ENDBRANCH   1   4
BRANCH   1  15
HETATM   15  C   UNL     1      42.180  -7.524  14.993  1.00  0.00    -0.035 A 
HETATM   16  C   UNL     1      41.432  -8.682  14.741  1.00  0.00     0.012 A 
HETATM   17  C   UNL     1      41.676  -9.453  13.601  1.00  0.00     0.037 A 
HETATM   18  C   UNL     1      42.660  -9.079  12.684  1.00  0.00     0.068 A 
HETATM   19  C   UNL     1      43.408  -7.928  12.923  1.00  0.00     0.037 A 
HETATM   20  C   UNL     1      43.169  -7.156  14.066  1.00  0.00     0.012 A 
BRANCH  18  21
HETATM   21  O   UNL     1      42.789  -9.915  11.610  1.00  0.00    -0.356 OA
HETATM   22  C   UNL     1      44.056  -9.943  10.965  1.00  0.00     0.210 C 
ENDBRANCH  18  21
ENDBRANCH   1  15
TORSDOF 5
ENDMDL
MODEL 8
REMARK VINA RESULT:      -6.3     14.772     16.054
REMARK  5 active torsions:
REMARK  status: ('A' for Active; 'I' for Inactive)
REMARK    1  A    between atoms: C_2  and  C_3 
REMARK    2  A    between atoms: C_3  and  N_4 
REMARK    3  A    between atoms: C_3  and  C_14 
REMARK       I    between atoms: N_4  and  C_5 
REMARK    4  A    between atoms: C_5  and  C_6 
REMARK    5  A    between atoms: C_17  and  O_18 
ROOT
HETATM    1  C   UNL     1      44.714 -28.969  -1.079  1.00  0.00     0.117 C 
ENDROOT
BRANCH   1   2
HETATM    2  C   UNL     1      43.516 -29.139  -0.122  1.00  0.00     0.025 C 
HETATM    3  C   UNL     1      43.907 -29.702   1.239  1.00  0.00     0.007 C 
ENDBRANCH   1   2
BRANCH   1   4
HETATM    4  N   UNL     1      45.962 -29.413  -0.469  1.00  0.00    -0.348 N 
HETATM    5  C   UNL     1      47.153 -28.751  -0.665  1.00  0.00     0.253 C 
HETATM    6  O   UNL     1      47.264 -27.741  -1.350  1.00  0.00    -0.268 OA
HETATM    7  H   UNL     1      45.955 -30.322  -0.033  1.00  0.00     0.163 HD
BRANCH   5   8
HETATM    8  C   UNL     1      48.353 -29.335  -0.020  1.00  0.00     0.050 A 
HETATM    9  C   UNL     1      49.464 -29.614  -0.810  1.00  0.00     0.133 A 
HETATM   10  N   UNL     1      50.617 -30.151  -0.336  1.00  0.00    -0.271 NA
HETATM   11  C   UNL     1      50.664 -30.406   0.992  1.00  0.00     0.135 A 
HETATM   12  C   UNL     1      49.614 -30.144   1.860  1.00  0.00     0.029 A 
HETATM   13 BR   UNL     1      49.773 -30.517   3.702  1.00  0.00    -0.050 Br
HETATM   14  C   UNL     1      48.440 -29.596   1.351  1.00  0.00     0.039 A 
ENDBRANCH   5   8
ENDBRANCH   1   4
BRANCH   1  15
HETATM   15  C   UNL     1      44.511 -29.736  -2.379  1.00  0.00    -0.035 A 
HETATM   16  C   UNL     1      44.450 -31.136  -2.357  1.00  0.00     0.012 A 
HETATM   17  C   UNL     1      44.233 -31.857  -3.534  1.00  0.00     0.037 A 
HETATM   18  C   UNL     1      44.060 -31.199  -4.752  1.00  0.00     0.068 A 
HETATM   19  C   UNL     1      44.115 -29.807  -4.786  1.00  0.00     0.037 A 
HETATM   20  C   UNL     1      44.336 -29.081  -3.609  1.00  0.00     0.012 A 
BRANCH  18  21
HETATM   21  O   UNL     1      43.846 -32.023  -5.823  1.00  0.00    -0.356 OA
HETATM   22  C   UNL     1      44.067 -31.469  -7.114  1.00  0.00     0.210 C 
ENDBRANCH  18  21
ENDBRANCH   1  15
TORSDOF 5
ENDMDL
MODEL 9
REMARK VINA RESULT:      -6.2      4.247      5.823
REMARK  5 active torsions:
REMARK  status: ('A' for Active; 'I' for Inactive)
REMARK    1  A    between atoms: C_2  and  C_3 
REMARK    2  A    between atoms: C_3  and  N_4 
REMARK    3  A    between atoms: C_3  and  C_14 
REMARK       I    between atoms: N_4  and  C_5 
REMARK    4  A    between atoms: C_5  and  C_6 
REMARK    5  A    between atoms: C_17  and  O_18 
ROOT
HETATM    1  C   UNL     1      42.626 -16.124   4.746  1.00  0.00     0.117 C 
ENDROOT
BRANCH   1   2
HETATM    2  C   UNL     1      43.748 -17.172   4.591  1.00  0.00     0.025 C 
HETATM    3  C   UNL     1      43.768 -18.204   5.712  1.00  0.00     0.007 C 
ENDBRANCH   1   2
BRANCH   1   4
HETATM    4  N   UNL     1      43.137 -14.854   5.249  1.00  0.00    -0.348 N 
HETATM    5  C   UNL     1      42.391 -14.032   6.063  1.00  0.00     0.253 C 
HETATM    6  O   UNL     1      41.255 -14.296   6.437  1.00  0.00    -0.268 OA
HETATM    7  H   UNL     1      43.997 -14.519   4.842  1.00  0.00     0.163 HD
BRANCH   5   8
HETATM    8  C   UNL     1      43.018 -12.750   6.467  1.00  0.00     0.050 A 
HETATM    9  C   UNL     1      44.375 -12.742   6.774  1.00  0.00     0.133 A 
HETATM   10  N   UNL     1      45.059 -11.634   7.159  1.00  0.00    -0.271 NA
HETATM   11  C   UNL     1      44.354 -10.480   7.225  1.00  0.00     0.135 A 
HETATM   12  C   UNL     1      43.004 -10.389   6.920  1.00  0.00     0.029 A 
HETATM   13 BR   UNL     1      42.104  -8.735   7.024  1.00  0.00    -0.050 Br
HETATM   14  C   UNL     1      42.322 -11.539   6.530  1.00  0.00     0.039 A 
ENDBRANCH   5   8
ENDBRANCH   1   4
BRANCH   1  15
HETATM   15  C   UNL     1      41.907 -15.869   3.428  1.00  0.00    -0.035 A 
HETATM   16  C   UNL     1      40.509 -15.944   3.374  1.00  0.00     0.012 A 
HETATM   17  C   UNL     1      39.827 -15.682   2.182  1.00  0.00     0.037 A 
HETATM   18  C   UNL     1      40.523 -15.328   1.026  1.00  0.00     0.068 A 
HETATM   19  C   UNL     1      41.914 -15.246   1.069  1.00  0.00     0.037 A 
HETATM   20  C   UNL     1      42.600 -15.512   2.260  1.00  0.00     0.012 A 
BRANCH  18  21
HETATM   21  O   UNL     1      39.735 -15.089  -0.066  1.00  0.00    -0.356 OA
HETATM   22  C   UNL     1      39.871 -13.820  -0.693  1.00  0.00     0.210 C 
ENDBRANCH  18  21
ENDBRANCH   1  15
TORSDOF 5
ENDMDL
MODEL 10
REMARK VINA RESULT:      -6.0      5.559      7.540
REMARK  5 active torsions:
REMARK  status: ('A' for Active; 'I' for Inactive)
REMARK    1  A    between atoms: C_2  and  C_3 
REMARK    2  A    between atoms: C_3  and  N_4 
REMARK    3  A    between atoms: C_3  and  C_14 
REMARK       I    between atoms: N_4  and  C_5 
REMARK    4  A    between atoms: C_5  and  C_6 
REMARK    5  A    between atoms: C_17  and  O_18 
ROOT
HETATM    1  C   UNL     1      41.147 -12.700   5.300  1.00  0.00     0.117 C 
ENDROOT
BRANCH   1   2
HETATM    2  C   UNL     1      39.650 -12.805   5.656  1.00  0.00     0.025 C 
HETATM    3  C   UNL     1      39.049 -11.488   6.131  1.00  0.00     0.007 C 
ENDBRANCH   1   2
BRANCH   1   4
HETATM    4  N   UNL     1      41.928 -12.143   6.399  1.00  0.00    -0.348 N 
HETATM    5  C   UNL     1      42.934 -11.226   6.195  1.00  0.00     0.253 C 
HETATM    6  O   UNL     1      43.250 -10.798   5.091  1.00  0.00    -0.268 OA
HETATM    7  H   UNL     1      41.816 -12.580   7.301  1.00  0.00     0.163 HD
BRANCH   5   8
HETATM    8  C   UNL     1      43.675 -10.773   7.397  1.00  0.00     0.050 A 
HETATM    9  C   UNL     1      44.984 -11.212   7.576  1.00  0.00     0.133 A 
HETATM   10  N   UNL     1      45.760 -10.871   8.635  1.00  0.00    -0.271 NA
HETATM   11  C   UNL     1      45.207 -10.039   9.548  1.00  0.00     0.135 A 
HETATM   12  C   UNL     1      43.918  -9.536   9.444  1.00  0.00     0.029 A 
HETATM   13 BR   UNL     1      43.231  -8.370  10.757  1.00  0.00    -0.050 Br
HETATM   14  C   UNL     1      43.137  -9.904   8.351  1.00  0.00     0.039 A 
ENDBRANCH   5   8
ENDBRANCH   1   4
BRANCH   1  15
HETATM   15  C   UNL     1      41.735 -14.054   4.927  1.00  0.00    -0.035 A 
HETATM   16  C   UNL     1      41.315 -15.205   5.607  1.00  0.00     0.012 A 
HETATM   17  C   UNL     1      41.819 -16.462   5.258  1.00  0.00     0.037 A 
HETATM   18  C   UNL     1      42.741 -16.597   4.220  1.00  0.00     0.068 A 
HETATM   19  C   UNL     1      43.164 -15.460   3.535  1.00  0.00     0.037 A 
HETATM   20  C   UNL     1      42.665 -14.199   3.884  1.00  0.00     0.012 A 
BRANCH  18  21
HETATM   21  O   UNL     1      43.145 -17.881   3.977  1.00  0.00    -0.356 OA
HETATM   22  C   UNL     1      44.363 -18.297   4.582  1.00  0.00     0.210 C 
ENDBRANCH  18  21
ENDBRANCH   1  15
TORSDOF 5
ENDMDL
