MODEL 1
REMARK VINA RESULT:      -9.3      0.000      0.000
REMARK  4 active torsions:
REMARK  status: ('A' for Active; 'I' for Inactive)
REMARK    1  A    between atoms: C_6  and  C_7 
REMARK    2  A    between atoms: C_7  and  N_8 
REMARK    3  A    between atoms: C_11  and  C_12 
REMARK    4  A    between atoms: C_12  and  C_13 
ROOT
HETATM    1  N   UNL     1      41.555 -14.336   2.386  1.00  0.00    -0.064 N 
HETATM    2  H   UNL     1      41.654 -15.110   1.701  1.00  0.00     0.280 HD
HETATM    3  C   UNL     1      42.865 -14.328   3.146  1.00  0.00     0.247 C 
HETATM    4  C   UNL     1      43.133 -15.716   3.745  1.00  0.00     0.086 C 
HETATM    5  C   UNL     1      41.945 -16.186   4.593  1.00  0.00     0.016 C 
HETATM    6  C   UNL     1      40.603 -16.058   3.868  1.00  0.00     0.029 C 
HETATM    7  C   UNL     1      40.390 -14.670   3.275  1.00  0.00     0.235 C 
ENDROOT
BRANCH   1   8
HETATM    8  C   UNL     1      41.340 -13.094   1.547  1.00  0.00     0.313 C 
BRANCH   8   9
HETATM    9  C   UNL     1      40.388 -13.242   0.405  1.00  0.00     0.131 A 
HETATM   10  N   UNL     1      39.359 -12.463   0.131  1.00  0.00    -0.232 NA
HETATM   11  C   UNL     1      38.809 -12.958  -1.026  1.00  0.00     0.085 A 
HETATM   12  C   UNL     1      39.513 -14.073  -1.465  1.00  0.00     0.062 A 
HETATM   13  C   UNL     1      37.710 -12.502  -1.766  1.00  0.00     0.034 A 
HETATM   14  C   UNL     1      39.181 -14.780  -2.623  1.00  0.00     0.032 A 
HETATM   15  N   UNL     1      40.506 -14.242  -0.533  1.00  0.00    -0.341 N 
HETATM   16  C   UNL     1      38.083 -14.308  -3.351  1.00  0.00     0.002 A 
HETATM   17  C   UNL     1      37.357 -13.191  -2.933  1.00  0.00     0.002 A 
HETATM   18  H   UNL     1      41.203 -14.974  -0.561  1.00  0.00     0.167 HD
ENDBRANCH   8   9
ENDBRANCH   1   8
BRANCH   4  19
HETATM   19  C   UNL     1      43.415 -16.694   2.609  1.00  0.00     0.165 C 
HETATM   20  O   UNL     1      43.525 -16.261   1.458  1.00  0.00    -0.292 OA
BRANCH  19  21
HETATM   21  C   UNL     1      43.539 -18.159   2.876  1.00  0.00     0.012 A 
HETATM   22  C   UNL     1      43.903 -18.670   4.126  1.00  0.00     0.039 A 
HETATM   23  C   UNL     1      44.013 -20.050   4.307  1.00  0.00     0.035 A 
HETATM   24 CL   UNL     1      44.466 -20.668   5.847  1.00  0.00    -0.084 Cl
HETATM   25  C   UNL     1      43.761 -20.929   3.257  1.00  0.00     0.024 A 
HETATM   26  C   UNL     1      43.391 -20.426   2.011  1.00  0.00     0.003 A 
HETATM   27  C   UNL     1      43.280 -19.047   1.822  1.00  0.00     0.015 A 
ENDBRANCH  19  21
ENDBRANCH   4  19
TORSDOF 4
ENDMDL
MODEL 2
REMARK VINA RESULT:      -9.1      4.959      7.424
REMARK  4 active torsions:
REMARK  status: ('A' for Active; 'I' for Inactive)
REMARK    1  A    between atoms: C_6  and  C_7 
REMARK    2  A    between atoms: C_7  and  N_8 
REMARK    3  A    between atoms: C_11  and  C_12 
REMARK    4  A    between atoms: C_12  and  C_13 
ROOT
HETATM    1  N   UNL     1      42.421 -13.756   5.305  1.00  0.00    -0.064 N 
HETATM    2  H   UNL     1      42.448 -14.205   4.369  1.00  0.00     0.280 HD
HETATM    3  C   UNL     1      43.476 -14.486   6.110  1.00  0.00     0.247 C 
HETATM    4  C   UNL     1      43.200 -15.996   6.089  1.00  0.00     0.086 C 
HETATM    5  C   UNL     1      41.770 -16.299   6.550  1.00  0.00     0.016 C 
HETATM    6  C   UNL     1      40.715 -15.454   5.832  1.00  0.00     0.029 C 
HETATM    7  C   UNL     1      41.040 -13.965   5.863  1.00  0.00     0.235 C 
ENDROOT
BRANCH   1   8
HETATM    8  C   UNL     1      42.757 -12.301   5.053  1.00  0.00     0.313 C 
BRANCH   8   9
HETATM    9  C   UNL     1      43.452 -11.595   6.171  1.00  0.00     0.131 A 
HETATM   10  N   UNL     1      44.709 -11.193   6.188  1.00  0.00    -0.232 NA
HETATM   11  C   UNL     1      44.885 -10.561   7.396  1.00  0.00     0.085 A 
HETATM   12  C   UNL     1      43.712 -10.587   8.138  1.00  0.00     0.062 A 
HETATM   13  C   UNL     1      46.021  -9.934   7.924  1.00  0.00     0.034 A 
HETATM   14  C   UNL     1      43.596 -10.014   9.406  1.00  0.00     0.032 A 
HETATM   15  N   UNL     1      42.817 -11.260   7.345  1.00  0.00    -0.341 N 
HETATM   16  C   UNL     1      44.739  -9.388   9.917  1.00  0.00     0.002 A 
HETATM   17  C   UNL     1      45.933  -9.348   9.192  1.00  0.00     0.002 A 
HETATM   18  H   UNL     1      41.856 -11.450   7.594  1.00  0.00     0.167 HD
ENDBRANCH   8   9
ENDBRANCH   1   8
BRANCH   4  19
HETATM   19  C   UNL     1      43.440 -16.518   4.676  1.00  0.00     0.165 C 
HETATM   20  O   UNL     1      43.468 -15.717   3.736  1.00  0.00    -0.292 OA
BRANCH  19  21
HETATM   21  C   UNL     1      43.622 -17.980   4.423  1.00  0.00     0.012 A 
HETATM   22  C   UNL     1      43.538 -18.540   3.144  1.00  0.00     0.039 A 
HETATM   23  C   UNL     1      43.706 -19.917   2.977  1.00  0.00     0.035 A 
HETATM   24 CL   UNL     1      43.596 -20.597   1.400  1.00  0.00    -0.084 Cl
HETATM   25  C   UNL     1      43.960 -20.742   4.069  1.00  0.00     0.024 A 
HETATM   26  C   UNL     1      44.051 -20.188   5.345  1.00  0.00     0.003 A 
HETATM   27  C   UNL     1      43.884 -18.813   5.521  1.00  0.00     0.015 A 
ENDBRANCH  19  21
ENDBRANCH   4  19
TORSDOF 4
ENDMDL
MODEL 3
REMARK VINA RESULT:      -8.9      3.244      6.148
REMARK  4 active torsions:
REMARK  status: ('A' for Active; 'I' for Inactive)
REMARK    1  A    between atoms: C_6  and  C_7 
REMARK    2  A    between atoms: C_7  and  N_8 
REMARK    3  A    between atoms: C_11  and  C_12 
REMARK    4  A    between atoms: C_12  and  C_13 
ROOT
HETATM    1  N   UNL     1      41.082 -13.199   2.801  1.00  0.00    -0.064 N 
HETATM    2  H   UNL     1      42.074 -13.435   2.610  1.00  0.00     0.280 HD
HETATM    3  C   UNL     1      40.664 -14.158   3.896  1.00  0.00     0.247 C 
HETATM    4  C   UNL     1      40.930 -15.605   3.456  1.00  0.00     0.086 C 
HETATM    5  C   UNL     1      40.264 -15.900   2.108  1.00  0.00     0.016 C 
HETATM    6  C   UNL     1      40.575 -14.847   1.041  1.00  0.00     0.029 C 
HETATM    7  C   UNL     1      40.313 -13.427   1.529  1.00  0.00     0.235 C 
ENDROOT
BRANCH   1   8
HETATM    8  C   UNL     1      41.101 -11.752   3.245  1.00  0.00     0.313 C 
BRANCH   8   9
HETATM    9  C   UNL     1      42.061 -11.424   4.342  1.00  0.00     0.131 A 
HETATM   10  N   UNL     1      41.788 -10.781   5.461  1.00  0.00    -0.232 NA
HETATM   11  C   UNL     1      42.963 -10.753   6.175  1.00  0.00     0.085 A 
HETATM   12  C   UNL     1      43.979 -11.385   5.470  1.00  0.00     0.062 A 
HETATM   13  C   UNL     1      43.234 -10.211   7.438  1.00  0.00     0.034 A 
HETATM   14  C   UNL     1      45.282 -11.512   5.956  1.00  0.00     0.032 A 
HETATM   15  N   UNL     1      43.386 -11.794   4.302  1.00  0.00    -0.341 N 
HETATM   16  C   UNL     1      45.535 -10.968   7.220  1.00  0.00     0.002 A 
HETATM   17  C   UNL     1      44.531 -10.327   7.951  1.00  0.00     0.002 A 
HETATM   18  H   UNL     1      43.858 -12.293   3.560  1.00  0.00     0.167 HD
ENDBRANCH   8   9
ENDBRANCH   1   8
BRANCH   4  19
HETATM   19  C   UNL     1      42.438 -15.824   3.380  1.00  0.00     0.165 C 
HETATM   20  O   UNL     1      43.174 -14.861   3.142  1.00  0.00    -0.292 OA
BRANCH  19  21
HETATM   21  C   UNL     1      43.022 -17.187   3.571  1.00  0.00     0.012 A 
HETATM   22  C   UNL     1      43.092 -18.129   2.539  1.00  0.00     0.039 A 
HETATM   23  C   UNL     1      43.639 -19.390   2.787  1.00  0.00     0.035 A 
HETATM   24 CL   UNL     1      43.716 -20.543   1.513  1.00  0.00    -0.084 Cl
HETATM   25  C   UNL     1      44.121 -19.723   4.051  1.00  0.00     0.024 A 
HETATM   26  C   UNL     1      44.060 -18.785   5.080  1.00  0.00     0.003 A 
HETATM   27  C   UNL     1      43.514 -17.522   4.841  1.00  0.00     0.015 A 
ENDBRANCH  19  21
ENDBRANCH   4  19
TORSDOF 4
ENDMDL
MODEL 4
REMARK VINA RESULT:      -8.9      3.811      6.864
REMARK  4 active torsions:
REMARK  status: ('A' for Active; 'I' for Inactive)
REMARK    1  A    between atoms: C_6  and  C_7 
REMARK    2  A    between atoms: C_7  and  N_8 
REMARK    3  A    between atoms: C_11  and  C_12 
REMARK    4  A    between atoms: C_12  and  C_13 
ROOT
HETATM    1  N   UNL     1      41.173 -13.389   4.623  1.00  0.00    -0.064 N 
HETATM    2  H   UNL     1      42.098 -13.607   4.204  1.00  0.00     0.280 HD
HETATM    3  C   UNL     1      41.042 -14.352   5.784  1.00  0.00     0.247 C 
HETATM    4  C   UNL     1      41.224 -15.794   5.292  1.00  0.00     0.086 C 
HETATM    5  C   UNL     1      40.265 -16.106   4.137  1.00  0.00     0.016 C 
HETATM    6  C   UNL     1      40.299 -15.051   3.029  1.00  0.00     0.029 C 
HETATM    7  C   UNL     1      40.132 -13.634   3.566  1.00  0.00     0.235 C 
ENDROOT
BRANCH   1   8
HETATM    8  C   UNL     1      41.269 -11.940   5.052  1.00  0.00     0.313 C 
BRANCH   8   9
HETATM    9  C   UNL     1      42.471 -11.584   5.865  1.00  0.00     0.131 A 
HETATM   10  N   UNL     1      43.732 -11.685   5.491  1.00  0.00    -0.232 NA
HETATM   11  C   UNL     1      44.476 -11.206   6.543  1.00  0.00     0.085 A 
HETATM   12  C   UNL     1      43.650 -10.812   7.587  1.00  0.00     0.062 A 
HETATM   13  C   UNL     1      45.865 -11.070   6.673  1.00  0.00     0.034 A 
HETATM   14  C   UNL     1      44.133 -10.279   8.784  1.00  0.00     0.032 A 
HETATM   15  N   UNL     1      42.379 -11.072   7.139  1.00  0.00    -0.341 N 
HETATM   16  C   UNL     1      45.521 -10.147   8.896  1.00  0.00     0.002 A 
HETATM   17  C   UNL     1      46.375 -10.536   7.862  1.00  0.00     0.002 A 
HETATM   18  H   UNL     1      41.535 -10.895   7.666  1.00  0.00     0.167 HD
ENDBRANCH   8   9
ENDBRANCH   1   8
BRANCH   4  19
HETATM   19  C   UNL     1      42.676 -15.987   4.865  1.00  0.00     0.165 C 
HETATM   20  O   UNL     1      43.475 -15.057   5.017  1.00  0.00    -0.292 OA
BRANCH  19  21
HETATM   21  C   UNL     1      43.127 -17.273   4.252  1.00  0.00     0.012 A 
HETATM   22  C   UNL     1      43.596 -18.348   5.014  1.00  0.00     0.039 A 
HETATM   23  C   UNL     1      44.015 -19.519   4.378  1.00  0.00     0.035 A 
HETATM   24 CL   UNL     1      44.595 -20.833   5.324  1.00  0.00    -0.084 Cl
HETATM   25  C   UNL     1      43.968 -19.633   2.991  1.00  0.00     0.024 A 
HETATM   26  C   UNL     1      43.494 -18.568   2.227  1.00  0.00     0.003 A 
HETATM   27  C   UNL     1      43.075 -17.393   2.855  1.00  0.00     0.015 A 
ENDBRANCH  19  21
ENDBRANCH   4  19
TORSDOF 4
ENDMDL
MODEL 5
REMARK VINA RESULT:      -8.8      1.451      1.877
REMARK  4 active torsions:
REMARK  status: ('A' for Active; 'I' for Inactive)
REMARK    1  A    between atoms: C_6  and  C_7 
REMARK    2  A    between atoms: C_7  and  N_8 
REMARK    3  A    between atoms: C_11  and  C_12 
REMARK    4  A    between atoms: C_12  and  C_13 
ROOT
HETATM    1  N   UNL     1      41.032 -12.972   2.831  1.00  0.00    -0.064 N 
HETATM    2  H   UNL     1      40.680 -13.877   2.463  1.00  0.00     0.280 HD
HETATM    3  C   UNL     1      42.531 -13.159   2.937  1.00  0.00     0.247 C 
HETATM    4  C   UNL     1      42.846 -14.393   3.794  1.00  0.00     0.086 C 
HETATM    5  C   UNL     1      42.149 -14.307   5.157  1.00  0.00     0.016 C 
HETATM    6  C   UNL     1      40.659 -13.977   5.049  1.00  0.00     0.029 C 
HETATM    7  C   UNL     1      40.394 -12.756   4.175  1.00  0.00     0.235 C 
ENDROOT
BRANCH   1   8
HETATM    8  C   UNL     1      40.627 -11.943   1.797  1.00  0.00     0.313 C 
BRANCH   8   9
HETATM    9  C   UNL     1      39.896 -12.474   0.607  1.00  0.00     0.131 A 
HETATM   10  N   UNL     1      38.885 -11.899  -0.017  1.00  0.00    -0.232 NA
HETATM   11  C   UNL     1      38.571 -12.728  -1.068  1.00  0.00     0.085 A 
HETATM   12  C   UNL     1      39.404 -13.839  -1.080  1.00  0.00     0.062 A 
HETATM   13  C   UNL     1      37.591 -12.590  -2.059  1.00  0.00     0.034 A 
HETATM   14  C   UNL     1      39.318 -14.848  -2.042  1.00  0.00     0.032 A 
HETATM   15  N   UNL     1      40.231 -13.663   0.001  1.00  0.00    -0.341 N 
HETATM   16  C   UNL     1      38.336 -14.693  -3.026  1.00  0.00     0.002 A 
HETATM   17  C   UNL     1      37.485 -13.586  -3.037  1.00  0.00     0.002 A 
HETATM   18  H   UNL     1      40.964 -14.302   0.276  1.00  0.00     0.167 HD
ENDBRANCH   8   9
ENDBRANCH   1   8
BRANCH   4  19
HETATM   19  C   UNL     1      42.409 -15.642   3.035  1.00  0.00     0.165 C 
HETATM   20  O   UNL     1      41.526 -15.544   2.177  1.00  0.00    -0.292 OA
BRANCH  19  21
HETATM   21  C   UNL     1      43.024 -16.971   3.333  1.00  0.00     0.012 A 
HETATM   22  C   UNL     1      43.048 -18.016   2.404  1.00  0.00     0.039 A 
HETATM   23  C   UNL     1      43.628 -19.239   2.750  1.00  0.00     0.035 A 
HETATM   24 CL   UNL     1      43.648 -20.520   1.601  1.00  0.00    -0.084 Cl
HETATM   25  C   UNL     1      44.189 -19.432   4.010  1.00  0.00     0.024 A 
HETATM   26  C   UNL     1      44.174 -18.391   4.937  1.00  0.00     0.003 A 
HETATM   27  C   UNL     1      43.595 -17.165   4.599  1.00  0.00     0.015 A 
ENDBRANCH  19  21
ENDBRANCH   4  19
TORSDOF 4
ENDMDL
MODEL 6
REMARK VINA RESULT:      -8.8      4.882      8.202
REMARK  4 active torsions:
REMARK  status: ('A' for Active; 'I' for Inactive)
REMARK    1  A    between atoms: C_6  and  C_7 
REMARK    2  A    between atoms: C_7  and  N_8 
REMARK    3  A    between atoms: C_11  and  C_12 
REMARK    4  A    between atoms: C_12  and  C_13 
ROOT
HETATM    1  N   UNL     1      42.513 -14.200   4.238  1.00  0.00    -0.064 N 
HETATM    2  H   UNL     1      43.065 -14.537   5.049  1.00  0.00     0.280 HD
HETATM    3  C   UNL     1      42.853 -12.728   4.129  1.00  0.00     0.247 C 
HETATM    4  C   UNL     1      42.572 -12.024   5.464  1.00  0.00     0.086 C 
HETATM    5  C   UNL     1      41.133 -12.279   5.926  1.00  0.00     0.016 C 
HETATM    6  C   UNL     1      40.747 -13.760   5.899  1.00  0.00     0.029 C 
HETATM    7  C   UNL     1      41.061 -14.420   4.561  1.00  0.00     0.235 C 
ENDROOT
BRANCH   1   8
HETATM    8  C   UNL     1      43.001 -15.018   3.061  1.00  0.00     0.313 C 
BRANCH   8   9
HETATM    9  C   UNL     1      43.294 -16.455   3.349  1.00  0.00     0.131 A 
HETATM   10  N   UNL     1      43.644 -16.968   4.513  1.00  0.00    -0.232 NA
HETATM   11  C   UNL     1      43.764 -18.322   4.306  1.00  0.00     0.085 A 
HETATM   12  C   UNL     1      43.489 -18.641   2.983  1.00  0.00     0.062 A 
HETATM   13  C   UNL     1      44.096 -19.342   5.207  1.00  0.00     0.034 A 
HETATM   14  C   UNL     1      43.527 -19.946   2.487  1.00  0.00     0.032 A 
HETATM   15  N   UNL     1      43.204 -17.437   2.390  1.00  0.00    -0.341 N 
HETATM   16  C   UNL     1      43.857 -20.953   3.401  1.00  0.00     0.002 A 
HETATM   17  C   UNL     1      44.138 -20.660   4.737  1.00  0.00     0.002 A 
HETATM   18  H   UNL     1      42.957 -17.318   1.417  1.00  0.00     0.167 HD
ENDBRANCH   8   9
ENDBRANCH   1   8
BRANCH   4  19
HETATM   19  C   UNL     1      43.575 -12.521   6.500  1.00  0.00     0.165 C 
HETATM   20  O   UNL     1      43.696 -13.736   6.685  1.00  0.00    -0.292 OA
BRANCH  19  21
HETATM   21  C   UNL     1      44.390 -11.554   7.298  1.00  0.00     0.012 A 
HETATM   22  C   UNL     1      43.914 -10.951   8.466  1.00  0.00     0.039 A 
HETATM   23  C   UNL     1      44.723 -10.047   9.159  1.00  0.00     0.035 A 
HETATM   24 CL   UNL     1      44.126  -9.306  10.593  1.00  0.00    -0.084 Cl
HETATM   25  C   UNL     1      46.002  -9.739   8.703  1.00  0.00     0.024 A 
HETATM   26  C   UNL     1      46.483 -10.344   7.543  1.00  0.00     0.003 A 
HETATM   27  C   UNL     1      45.681 -11.248   6.844  1.00  0.00     0.015 A 
ENDBRANCH  19  21
ENDBRANCH   4  19
TORSDOF 4
ENDMDL
MODEL 7
REMARK VINA RESULT:      -8.4      7.788     10.392
REMARK  4 active torsions:
REMARK  status: ('A' for Active; 'I' for Inactive)
REMARK    1  A    between atoms: C_6  and  C_7 
REMARK    2  A    between atoms: C_7  and  N_8 
REMARK    3  A    between atoms: C_11  and  C_12 
REMARK    4  A    between atoms: C_12  and  C_13 
ROOT
HETATM    1  N   UNL     1      44.149 -10.815   7.829  1.00  0.00    -0.064 N 
HETATM    2  H   UNL     1      43.839 -11.310   8.687  1.00  0.00     0.280 HD
HETATM    3  C   UNL     1      45.176  -9.813   8.315  1.00  0.00     0.247 C 
HETATM    4  C   UNL     1      44.567  -8.927   9.410  1.00  0.00     0.086 C 
HETATM    5  C   UNL     1      43.266  -8.274   8.928  1.00  0.00     0.016 C 
HETATM    6  C   UNL     1      42.288  -9.273   8.306  1.00  0.00     0.029 C 
HETATM    7  C   UNL     1      42.941 -10.142   7.238  1.00  0.00     0.235 C 
ENDROOT
BRANCH   1   8
HETATM    8  C   UNL     1      44.735 -11.893   6.942  1.00  0.00     0.313 C 
BRANCH   8   9
HETATM    9  C   UNL     1      43.764 -12.906   6.428  1.00  0.00     0.131 A 
HETATM   10  N   UNL     1      43.399 -13.079   5.172  1.00  0.00    -0.232 NA
HETATM   11  C   UNL     1      42.529 -14.144   5.177  1.00  0.00     0.085 A 
HETATM   12  C   UNL     1      42.352 -14.626   6.467  1.00  0.00     0.062 A 
HETATM   13  C   UNL     1      41.858 -14.759   4.113  1.00  0.00     0.034 A 
HETATM   14  C   UNL     1      41.526 -15.709   6.772  1.00  0.00     0.032 A 
HETATM   15  N   UNL     1      43.138 -13.816   7.248  1.00  0.00    -0.341 N 
HETATM   16  C   UNL     1      40.865 -16.315   5.697  1.00  0.00     0.002 A 
HETATM   17  C   UNL     1      41.025 -15.850   4.390  1.00  0.00     0.002 A 
HETATM   18  H   UNL     1      43.237 -13.903   8.251  1.00  0.00     0.167 HD
ENDBRANCH   8   9
ENDBRANCH   1   8
BRANCH   4  19
HETATM   19  C   UNL     1      44.322  -9.780  10.651  1.00  0.00     0.165 C 
HETATM   20  O   UNL     1      44.957 -10.830  10.792  1.00  0.00    -0.292 OA
BRANCH  19  21
HETATM   21  C   UNL     1      43.317  -9.365  11.677  1.00  0.00     0.012 A 
HETATM   22  C   UNL     1      42.137 -10.080  11.908  1.00  0.00     0.039 A 
HETATM   23  C   UNL     1      41.233  -9.632  12.873  1.00  0.00     0.035 A 
HETATM   24 CL   UNL     1      39.782 -10.515  13.146  1.00  0.00    -0.084 Cl
HETATM   25  C   UNL     1      41.492  -8.482  13.614  1.00  0.00     0.024 A 
HETATM   26  C   UNL     1      42.670  -7.770  13.393  1.00  0.00     0.003 A 
HETATM   27  C   UNL     1      43.579  -8.211  12.429  1.00  0.00     0.015 A 
ENDBRANCH  19  21
ENDBRANCH   4  19
TORSDOF 4
ENDMDL
MODEL 8
REMARK VINA RESULT:      -8.2      1.701      2.179
REMARK  4 active torsions:
REMARK  status: ('A' for Active; 'I' for Inactive)
REMARK    1  A    between atoms: C_6  and  C_7 
REMARK    2  A    between atoms: C_7  and  N_8 
REMARK    3  A    between atoms: C_11  and  C_12 
REMARK    4  A    between atoms: C_12  and  C_13 
ROOT
HETATM    1  N   UNL     1      41.252 -13.380   4.033  1.00  0.00    -0.064 N 
HETATM    2  H   UNL     1      40.676 -14.238   4.128  1.00  0.00     0.280 HD
HETATM    3  C   UNL     1      42.520 -13.844   3.348  1.00  0.00     0.247 C 
HETATM    4  C   UNL     1      43.160 -14.988   4.147  1.00  0.00     0.086 C 
HETATM    5  C   UNL     1      43.376 -14.583   5.609  1.00  0.00     0.016 C 
HETATM    6  C   UNL     1      42.127 -13.981   6.257  1.00  0.00     0.029 C 
HETATM    7  C   UNL     1      41.517 -12.862   5.420  1.00  0.00     0.235 C 
ENDROOT
BRANCH   1   8
HETATM    8  C   UNL     1      40.421 -12.440   3.186  1.00  0.00     0.313 C 
BRANCH   8   9
HETATM    9  C   UNL     1      40.418 -12.723   1.719  1.00  0.00     0.131 A 
HETATM   10  N   UNL     1      39.850 -13.750   1.116  1.00  0.00    -0.232 NA
HETATM   11  C   UNL     1      40.071 -13.567  -0.228  1.00  0.00     0.085 A 
HETATM   12  C   UNL     1      40.801 -12.406  -0.451  1.00  0.00     0.062 A 
HETATM   13  C   UNL     1      39.671 -14.350  -1.318  1.00  0.00     0.034 A 
HETATM   14  C   UNL     1      41.167 -11.966  -1.724  1.00  0.00     0.032 A 
HETATM   15  N   UNL     1      41.021 -11.892   0.802  1.00  0.00    -0.341 N 
HETATM   16  C   UNL     1      40.757 -12.758  -2.802  1.00  0.00     0.002 A 
HETATM   17  C   UNL     1      40.022 -13.930  -2.607  1.00  0.00     0.002 A 
HETATM   18  H   UNL     1      41.527 -11.038   0.994  1.00  0.00     0.167 HD
ENDBRANCH   8   9
ENDBRANCH   1   8
BRANCH   4  19
HETATM   19  C   UNL     1      42.261 -16.217   4.048  1.00  0.00     0.165 C 
HETATM   20  O   UNL     1      41.055 -16.099   4.289  1.00  0.00    -0.292 OA
BRANCH  19  21
HETATM   21  C   UNL     1      42.828 -17.551   3.682  1.00  0.00     0.012 A 
HETATM   22  C   UNL     1      43.390 -18.415   4.627  1.00  0.00     0.039 A 
HETATM   23  C   UNL     1      43.914 -19.644   4.217  1.00  0.00     0.035 A 
HETATM   24 CL   UNL     1      44.607 -20.699   5.387  1.00  0.00    -0.084 Cl
HETATM   25  C   UNL     1      43.881 -20.022   2.878  1.00  0.00     0.024 A 
HETATM   26  C   UNL     1      43.316 -19.167   1.934  1.00  0.00     0.003 A 
HETATM   27  C   UNL     1      42.791 -17.937   2.334  1.00  0.00     0.015 A 
ENDBRANCH  19  21
ENDBRANCH   4  19
TORSDOF 4
ENDMDL
MODEL 9
REMARK VINA RESULT:      -7.9      3.281      7.777
REMARK  4 active torsions:
REMARK  status: ('A' for Active; 'I' for Inactive)
REMARK    1  A    between atoms: C_6  and  C_7 
REMARK    2  A    between atoms: C_7  and  N_8 
REMARK    3  A    between atoms: C_11  and  C_12 
REMARK    4  A    between atoms: C_12  and  C_13 
ROOT
HETATM    1  N   UNL     1      42.303 -13.417   4.438  1.00  0.00    -0.064 N 
HETATM    2  H   UNL     1      42.232 -13.975   3.566  1.00  0.00     0.280 HD
HETATM    3  C   UNL     1      40.874 -13.044   4.773  1.00  0.00     0.247 C 
HETATM    4  C   UNL     1      40.224 -12.332   3.579  1.00  0.00     0.086 C 
HETATM    5  C   UNL     1      41.070 -11.137   3.126  1.00  0.00     0.016 C 
HETATM    6  C   UNL     1      42.546 -11.487   2.925  1.00  0.00     0.029 C 
HETATM    7  C   UNL     1      43.143 -12.208   4.128  1.00  0.00     0.235 C 
ENDROOT
BRANCH   1   8
HETATM    8  C   UNL     1      42.935 -14.348   5.451  1.00  0.00     0.313 C 
BRANCH   8   9
HETATM    9  C   UNL     1      43.190 -15.742   4.978  1.00  0.00     0.131 A 
HETATM   10  N   UNL     1      43.554 -16.771   5.719  1.00  0.00    -0.232 NA
HETATM   11  C   UNL     1      43.626 -17.844   4.864  1.00  0.00     0.085 A 
HETATM   12  C   UNL     1      43.307 -17.460   3.568  1.00  0.00     0.062 A 
HETATM   13  C   UNL     1      43.949 -19.182   5.127  1.00  0.00     0.034 A 
HETATM   14  C   UNL     1      43.292 -18.347   2.489  1.00  0.00     0.032 A 
HETATM   15  N   UNL     1      43.045 -16.116   3.662  1.00  0.00    -0.341 N 
HETATM   16  C   UNL     1      43.614 -19.679   2.770  1.00  0.00     0.002 A 
HETATM   17  C   UNL     1      43.938 -20.093   4.064  1.00  0.00     0.002 A 
HETATM   18  H   UNL     1      42.777 -15.526   2.886  1.00  0.00     0.167 HD
ENDBRANCH   8   9
ENDBRANCH   1   8
BRANCH   4  19
HETATM   19  C   UNL     1      40.048 -13.338   2.445  1.00  0.00     0.165 C 
HETATM   20  O   UNL     1      40.334 -14.523   2.644  1.00  0.00    -0.292 OA
BRANCH  19  21
HETATM   21  C   UNL     1      39.554 -12.898   1.105  1.00  0.00     0.012 A 
HETATM   22  C   UNL     1      40.050 -13.426  -0.092  1.00  0.00     0.039 A 
HETATM   23  C   UNL     1      39.554 -12.963  -1.312  1.00  0.00     0.035 A 
HETATM   24 CL   UNL     1      40.175 -13.615  -2.779  1.00  0.00    -0.084 Cl
HETATM   25  C   UNL     1      38.566 -11.983  -1.356  1.00  0.00     0.024 A 
HETATM   26  C   UNL     1      38.062 -11.459  -0.166  1.00  0.00     0.003 A 
HETATM   27  C   UNL     1      38.554 -11.916   1.059  1.00  0.00     0.015 A 
ENDBRANCH  19  21
ENDBRANCH   4  19
TORSDOF 4
ENDMDL
MODEL 10
REMARK VINA RESULT:      -7.9      2.012      2.589
REMARK  4 active torsions:
REMARK  status: ('A' for Active; 'I' for Inactive)
REMARK    1  A    between atoms: C_6  and  C_7 
REMARK    2  A    between atoms: C_7  and  N_8 
REMARK    3  A    between atoms: C_11  and  C_12 
REMARK    4  A    between atoms: C_12  and  C_13 
ROOT
HETATM    1  N   UNL     1      40.918 -14.527   1.562  1.00  0.00    -0.064 N 
HETATM    2  H   UNL     1      40.529 -15.107   2.331  1.00  0.00     0.280 HD
HETATM    3  C   UNL     1      42.346 -15.008   1.406  1.00  0.00     0.247 C 
HETATM    4  C   UNL     1      43.082 -14.912   2.750  1.00  0.00     0.086 C 
HETATM    5  C   UNL     1      42.980 -13.497   3.331  1.00  0.00     0.016 C 
HETATM    6  C   UNL     1      41.548 -12.959   3.355  1.00  0.00     0.029 C 
HETATM    7  C   UNL     1      40.852 -13.092   2.005  1.00  0.00     0.235 C 
ENDROOT
BRANCH   1   8
HETATM    8  C   UNL     1      40.047 -14.831   0.361  1.00  0.00     0.313 C 
BRANCH   8   9
HETATM    9  C   UNL     1      39.883 -13.713  -0.617  1.00  0.00     0.131 A 
HETATM   10  N   UNL     1      38.792 -13.000  -0.821  1.00  0.00    -0.232 NA
HETATM   11  C   UNL     1      39.124 -12.068  -1.775  1.00  0.00     0.085 A 
HETATM   12  C   UNL     1      40.447 -12.221  -2.169  1.00  0.00     0.062 A 
HETATM   13  C   UNL     1      38.348 -11.051  -2.346  1.00  0.00     0.034 A 
HETATM   14  C   UNL     1      41.060 -11.406  -3.123  1.00  0.00     0.032 A 
HETATM   15  N   UNL     1      40.907 -13.281  -1.428  1.00  0.00    -0.341 N 
HETATM   16  C   UNL     1      40.271 -10.394  -3.682  1.00  0.00     0.002 A 
HETATM   17  C   UNL     1      38.938 -10.218  -3.303  1.00  0.00     0.002 A 
HETATM   18  H   UNL     1      41.846 -13.653  -1.476  1.00  0.00     0.167 HD
ENDBRANCH   8   9
ENDBRANCH   1   8
BRANCH   4  19
HETATM   19  C   UNL     1      42.488 -15.940   3.709  1.00  0.00     0.165 C 
HETATM   20  O   UNL     1      41.538 -15.612   4.427  1.00  0.00    -0.292 OA
BRANCH  19  21
HETATM   21  C   UNL     1      43.056 -17.319   3.796  1.00  0.00     0.012 A 
HETATM   22  C   UNL     1      43.120 -18.180   2.696  1.00  0.00     0.039 A 
HETATM   23  C   UNL     1      43.652 -19.462   2.848  1.00  0.00     0.035 A 
HETATM   24 CL   UNL     1      43.720 -20.516   1.489  1.00  0.00    -0.084 Cl
HETATM   25  C   UNL     1      44.125 -19.897   4.084  1.00  0.00     0.024 A 
HETATM   26  C   UNL     1      44.071 -19.040   5.182  1.00  0.00     0.003 A 
HETATM   27  C   UNL     1      43.540 -17.756   5.039  1.00  0.00     0.015 A 
ENDBRANCH  19  21
ENDBRANCH   4  19
TORSDOF 4
ENDMDL
