MODEL 1
REMARK VINA RESULT:      -7.5      0.000      0.000
REMARK  10 active torsions:
REMARK  status: ('A' for Active; 'I' for Inactive)
REMARK    1  A    between atoms: C_2  and  O_3 
REMARK    2  A    between atoms: O_3  and  C_4 
REMARK    3  A    between atoms: C_4  and  C_5 
REMARK    4  A    between atoms: C_6  and  N_7 
REMARK       I    between atoms: N_7  and  C_8 
REMARK    5  A    between atoms: C_14  and  O_15 
REMARK    6  A    between atoms: O_15  and  C_16 
REMARK    7  A    between atoms: C_16  and  C_17 
REMARK    8  A    between atoms: C_17  and  O_18 
REMARK    9  A    between atoms: C_17  and  C_19 
REMARK   10  A    between atoms: C_19  and  N_20 
ROOT
HETATM    1  C   UNL     1      42.850 -12.920   6.290  1.00  0.00     0.085 A 
HETATM    2  C   UNL     1      41.678 -12.456   5.714  1.00  0.00     0.094 A 
HETATM    3  S   UNL     1      40.950 -13.611   4.712  1.00  0.00    -0.068 SA
HETATM    4  C   UNL     1      42.183 -14.787   4.972  1.00  0.00     0.053 A 
HETATM    5  C   UNL     1      43.128 -14.296   5.879  1.00  0.00     0.003 A 
HETATM    6  C   UNL     1      42.270 -16.080   4.370  1.00  0.00     0.104 A 
HETATM    7  C   UNL     1      43.389 -16.867   4.713  1.00  0.00     0.045 A 
HETATM    8 BR   UNL     1      43.850 -18.533   3.912  1.00  0.00    -0.048 Br
HETATM    9  C   UNL     1      44.314 -16.419   5.653  1.00  0.00     0.023 A 
HETATM   10  C   UNL     1      44.192 -15.159   6.233  1.00  0.00     0.015 A 
ENDROOT
BRANCH   6  11
HETATM   11  O   UNL     1      41.300 -16.385   3.445  1.00  0.00    -0.346 OA
BRANCH  11  12
HETATM   12  C   UNL     1      41.592 -16.140   2.071  1.00  0.00     0.209 C 
BRANCH  12  13
HETATM   13  C   UNL     1      40.373 -15.490   1.402  1.00  0.00     0.168 C 
BRANCH  13  14
HETATM   14  O   UNL     1      39.231 -15.516   2.281  1.00  0.00    -0.392 OA
HETATM   15  H   UNL     1      39.331 -14.736   2.871  1.00  0.00     0.210 HD
ENDBRANCH  13  14
BRANCH  13  16
HETATM   16  C   UNL     1      40.671 -14.011   1.094  1.00  0.00     0.268 C 
BRANCH  16  17
HETATM   17  N   UNL     1      40.681 -13.801  -0.418  1.00  0.00    -0.069 N 
HETATM   18  H   UNL     1      41.527 -14.325  -0.717  1.00  0.00     0.280 HD
HETATM   19  C   UNL     1      39.485 -14.432  -1.084  1.00  0.00     0.235 C 
HETATM   20  C   UNL     1      39.596 -14.302  -2.595  1.00  0.00     0.028 C 
HETATM   21  C   UNL     1      39.787 -12.852  -3.022  1.00  0.00     0.003 C 
HETATM   22  C   UNL     1      40.991 -12.238  -2.318  1.00  0.00     0.028 C 
HETATM   23  C   UNL     1      40.882 -12.360  -0.805  1.00  0.00     0.235 C 
ENDBRANCH  16  17
ENDBRANCH  13  16
ENDBRANCH  12  13
ENDBRANCH  11  12
ENDBRANCH   6  11
BRANCH   2  24
HETATM   24  N   UNL     1      41.114 -11.196   5.875  1.00  0.00    -0.321 N 
HETATM   25  C   UNL     1      39.901 -10.879   6.461  1.00  0.00     0.218 C 
HETATM   26  C   UNL     1      39.604  -9.399   6.398  1.00  0.00     0.117 C 
HETATM   27  O   UNL     1      39.095 -11.646   6.974  1.00  0.00    -0.274 OA
HETATM   28  H   UNL     1      41.676 -10.428   5.519  1.00  0.00     0.169 HD
ENDBRANCH   2  24
BRANCH   1  29
HETATM   29  C   UNL     1      43.724 -12.137   7.178  1.00  0.00     0.297 C 
HETATM   30  O   UNL     1      43.876 -12.391   8.366  1.00  0.00    -0.259 OA
BRANCH  29  31
HETATM   31  O   UNL     1      44.366 -11.106   6.545  1.00  0.00    -0.318 OA
BRANCH  31  32
HETATM   32  C   UNL     1      45.801 -11.208   6.489  1.00  0.00     0.174 C 
HETATM   33  C   UNL     1      46.441 -10.413   7.612  1.00  0.00     0.034 C 
ENDBRANCH  31  32
ENDBRANCH  29  31
ENDBRANCH   1  29
TORSDOF 10
ENDMDL
MODEL 2
REMARK VINA RESULT:      -7.4      1.247      1.566
REMARK  10 active torsions:
REMARK  status: ('A' for Active; 'I' for Inactive)
REMARK    1  A    between atoms: C_2  and  O_3 
REMARK    2  A    between atoms: O_3  and  C_4 
REMARK    3  A    between atoms: C_4  and  C_5 
REMARK    4  A    between atoms: C_6  and  N_7 
REMARK       I    between atoms: N_7  and  C_8 
REMARK    5  A    between atoms: C_14  and  O_15 
REMARK    6  A    between atoms: O_15  and  C_16 
REMARK    7  A    between atoms: C_16  and  C_17 
REMARK    8  A    between atoms: C_17  and  O_18 
REMARK    9  A    between atoms: C_17  and  C_19 
REMARK   10  A    between atoms: C_19  and  N_20 
ROOT
HETATM    1  C   UNL     1      43.445 -12.366   5.978  1.00  0.00     0.085 A 
HETATM    2  C   UNL     1      42.668 -11.710   5.035  1.00  0.00     0.094 A 
HETATM    3  S   UNL     1      42.034 -12.765   3.874  1.00  0.00    -0.068 SA
HETATM    4  C   UNL     1      42.789 -14.158   4.553  1.00  0.00     0.053 A 
HETATM    5  C   UNL     1      43.488 -13.803   5.713  1.00  0.00     0.003 A 
HETATM    6  C   UNL     1      42.739 -15.491   4.043  1.00  0.00     0.104 A 
HETATM    7  C   UNL     1      43.460 -16.472   4.755  1.00  0.00     0.045 A 
HETATM    8 BR   UNL     1      43.724 -18.272   4.189  1.00  0.00    -0.048 Br
HETATM    9  C   UNL     1      44.120 -16.152   5.940  1.00  0.00     0.023 A 
HETATM   10  C   UNL     1      44.137 -14.844   6.419  1.00  0.00     0.015 A 
ENDROOT
BRANCH   6  11
HETATM   11  O   UNL     1      42.069 -15.661   2.855  1.00  0.00    -0.346 OA
BRANCH  11  12
HETATM   12  C   UNL     1      40.807 -16.325   2.894  1.00  0.00     0.209 C 
BRANCH  12  13
HETATM   13  C   UNL     1      39.827 -15.607   1.955  1.00  0.00     0.168 C 
BRANCH  13  14
HETATM   14  O   UNL     1      39.020 -14.660   2.682  1.00  0.00    -0.392 OA
HETATM   15  H   UNL     1      38.981 -14.995   3.606  1.00  0.00     0.210 HD
ENDBRANCH  13  14
BRANCH  13  16
HETATM   16  C   UNL     1      40.609 -14.811   0.893  1.00  0.00     0.268 C 
BRANCH  16  17
HETATM   17  N   UNL     1      39.639 -13.943   0.096  1.00  0.00    -0.069 N 
HETATM   18  H   UNL     1      38.751 -14.044   0.627  1.00  0.00     0.280 HD
HETATM   19  C   UNL     1      40.031 -12.488   0.122  1.00  0.00     0.235 C 
HETATM   20  C   UNL     1      38.976 -11.647  -0.580  1.00  0.00     0.028 C 
HETATM   21  C   UNL     1      38.716 -12.142  -1.997  1.00  0.00     0.003 C 
HETATM   22  C   UNL     1      38.340 -13.619  -1.991  1.00  0.00     0.028 C 
HETATM   23  C   UNL     1      39.396 -14.466  -1.294  1.00  0.00     0.235 C 
ENDBRANCH  16  17
ENDBRANCH  13  16
ENDBRANCH  12  13
ENDBRANCH  11  12
ENDBRANCH   6  11
BRANCH   2  24
HETATM   24  N   UNL     1      42.413 -10.345   4.973  1.00  0.00    -0.321 N 
HETATM   25  C   UNL     1      41.270  -9.677   5.376  1.00  0.00     0.218 C 
HETATM   26  C   UNL     1      41.344  -8.194   5.094  1.00  0.00     0.117 C 
HETATM   27  O   UNL     1      40.265 -10.156   5.888  1.00  0.00    -0.274 OA
HETATM   28  H   UNL     1      43.170  -9.786   4.588  1.00  0.00     0.169 HD
ENDBRANCH   2  24
BRANCH   1  29
HETATM   29  C   UNL     1      44.156 -11.715   7.089  1.00  0.00     0.297 C 
HETATM   30  O   UNL     1      43.966 -11.996   8.266  1.00  0.00    -0.259 OA
BRANCH  29  31
HETATM   31  O   UNL     1      45.068 -10.776   6.681  1.00  0.00    -0.318 OA
BRANCH  31  32
HETATM   32  C   UNL     1      46.181 -10.565   7.567  1.00  0.00     0.174 C 
HETATM   33  C   UNL     1      46.123  -9.179   8.183  1.00  0.00     0.034 C 
ENDBRANCH  31  32
ENDBRANCH  29  31
ENDBRANCH   1  29
TORSDOF 10
ENDMDL
MODEL 3
REMARK VINA RESULT:      -7.2      2.650      7.901
REMARK  10 active torsions:
REMARK  status: ('A' for Active; 'I' for Inactive)
REMARK    1  A    between atoms: C_2  and  O_3 
REMARK    2  A    between atoms: O_3  and  C_4 
REMARK    3  A    between atoms: C_4  and  C_5 
REMARK    4  A    between atoms: C_6  and  N_7 
REMARK       I    between atoms: N_7  and  C_8 
REMARK    5  A    between atoms: C_14  and  O_15 
REMARK    6  A    between atoms: O_15  and  C_16 
REMARK    7  A    between atoms: C_16  and  C_17 
REMARK    8  A    between atoms: C_17  and  O_18 
REMARK    9  A    between atoms: C_17  and  C_19 
REMARK   10  A    between atoms: C_19  and  N_20 
ROOT
HETATM    1  C   UNL     1      40.435 -14.609   2.222  1.00  0.00     0.085 A 
HETATM    2  C   UNL     1      39.779 -13.520   2.777  1.00  0.00     0.094 A 
HETATM    3  S   UNL     1      40.416 -13.084   4.283  1.00  0.00    -0.068 SA
HETATM    4  C   UNL     1      41.587 -14.348   4.289  1.00  0.00     0.053 A 
HETATM    5  C   UNL     1      41.513 -15.072   3.094  1.00  0.00     0.003 A 
HETATM    6  C   UNL     1      42.512 -14.651   5.335  1.00  0.00     0.104 A 
HETATM    7  C   UNL     1      43.364 -15.756   5.129  1.00  0.00     0.045 A 
HETATM    8 BR   UNL     1      44.543 -16.493   6.432  1.00  0.00    -0.048 Br
HETATM    9  C   UNL     1      43.343 -16.459   3.927  1.00  0.00     0.023 A 
HETATM   10  C   UNL     1      42.439 -16.128   2.920  1.00  0.00     0.015 A 
ENDROOT
BRANCH   6  11
HETATM   11  O   UNL     1      42.409 -13.889   6.475  1.00  0.00    -0.346 OA
BRANCH  11  12
HETATM   12  C   UNL     1      43.518 -13.062   6.822  1.00  0.00     0.209 C 
BRANCH  12  13
HETATM   13  C   UNL     1      43.173 -11.597   6.517  1.00  0.00     0.168 C 
BRANCH  13  14
HETATM   14  O   UNL     1      41.893 -11.245   7.076  1.00  0.00    -0.392 OA
HETATM   15  H   UNL     1      41.895 -10.264   7.151  1.00  0.00     0.210 HD
ENDBRANCH  13  14
BRANCH  13  16
HETATM   16  C   UNL     1      44.218 -10.669   7.162  1.00  0.00     0.268 C 
BRANCH  16  17
HETATM   17  N   UNL     1      43.605  -9.988   8.383  1.00  0.00    -0.069 N 
HETATM   18  H   UNL     1      42.593 -10.205   8.282  1.00  0.00     0.280 HD
HETATM   19  C   UNL     1      44.084 -10.603   9.673  1.00  0.00     0.235 C 
HETATM   20  C   UNL     1      43.359  -9.977  10.855  1.00  0.00     0.028 C 
HETATM   21  C   UNL     1      43.499  -8.460  10.859  1.00  0.00     0.003 C 
HETATM   22  C   UNL     1      43.024  -7.871   9.537  1.00  0.00     0.028 C 
HETATM   23  C   UNL     1      43.752  -8.490   8.351  1.00  0.00     0.235 C 
ENDBRANCH  16  17
ENDBRANCH  13  16
ENDBRANCH  12  13
ENDBRANCH  11  12
ENDBRANCH   6  11
BRANCH   2  24
HETATM   24  N   UNL     1      38.703 -12.830   2.231  1.00  0.00    -0.321 N 
HETATM   25  C   UNL     1      38.740 -11.747   1.370  1.00  0.00     0.218 C 
HETATM   26  C   UNL     1      37.358 -11.232   1.039  1.00  0.00     0.117 C 
HETATM   27  O   UNL     1      39.730 -11.198   0.902  1.00  0.00    -0.274 OA
HETATM   28  H   UNL     1      37.788 -13.180   2.503  1.00  0.00     0.169 HD
ENDBRANCH   2  24
BRANCH   1  29
HETATM   29  C   UNL     1      40.088 -15.241   0.939  1.00  0.00     0.297 C 
HETATM   30  O   UNL     1      39.547 -16.336   0.854  1.00  0.00    -0.259 OA
BRANCH  29  31
HETATM   31  O   UNL     1      40.412 -14.478  -0.153  1.00  0.00    -0.318 OA
BRANCH  31  32
HETATM   32  C   UNL     1      39.440 -14.468  -1.214  1.00  0.00     0.174 C 
HETATM   33  C   UNL     1      40.041 -13.907  -2.489  1.00  0.00     0.034 C 
ENDBRANCH  31  32
ENDBRANCH  29  31
ENDBRANCH   1  29
TORSDOF 10
ENDMDL
MODEL 4
REMARK VINA RESULT:      -7.1      2.168      2.565
REMARK  10 active torsions:
REMARK  status: ('A' for Active; 'I' for Inactive)
REMARK    1  A    between atoms: C_2  and  O_3 
REMARK    2  A    between atoms: O_3  and  C_4 
REMARK    3  A    between atoms: C_4  and  C_5 
REMARK    4  A    between atoms: C_6  and  N_7 
REMARK       I    between atoms: N_7  and  C_8 
REMARK    5  A    between atoms: C_14  and  O_15 
REMARK    6  A    between atoms: O_15  and  C_16 
REMARK    7  A    between atoms: C_16  and  C_17 
REMARK    8  A    between atoms: C_17  and  O_18 
REMARK    9  A    between atoms: C_17  and  C_19 
REMARK   10  A    between atoms: C_19  and  N_20 
ROOT
HETATM    1  C   UNL     1      43.553 -11.428   7.069  1.00  0.00     0.085 A 
HETATM    2  C   UNL     1      42.630 -10.480   6.656  1.00  0.00     0.094 A 
HETATM    3  S   UNL     1      41.486 -11.118   5.584  1.00  0.00    -0.068 SA
HETATM    4  C   UNL     1      42.182 -12.694   5.590  1.00  0.00     0.053 A 
HETATM    5  C   UNL     1      43.271 -12.731   6.469  1.00  0.00     0.003 A 
HETATM    6  C   UNL     1      41.749 -13.822   4.827  1.00  0.00     0.104 A 
HETATM    7  C   UNL     1      42.493 -15.011   4.975  1.00  0.00     0.045 A 
HETATM    8 BR   UNL     1      42.256 -16.592   3.937  1.00  0.00    -0.048 Br
HETATM    9  C   UNL     1      43.548 -15.086   5.881  1.00  0.00     0.023 A 
HETATM   10  C   UNL     1      43.935 -13.971   6.621  1.00  0.00     0.015 A 
ENDROOT
BRANCH   6  11
HETATM   11  O   UNL     1      40.708 -13.602   3.958  1.00  0.00    -0.346 OA
BRANCH  11  12
HETATM   12  C   UNL     1      41.025 -13.394   2.583  1.00  0.00     0.209 C 
BRANCH  12  13
HETATM   13  C   UNL     1      39.752 -13.555   1.739  1.00  0.00     0.168 C 
BRANCH  13  14
HETATM   14  O   UNL     1      38.598 -13.742   2.583  1.00  0.00    -0.392 OA
HETATM   15  H   UNL     1      38.768 -13.207   3.391  1.00  0.00     0.210 HD
ENDBRANCH  13  14
BRANCH  13  16
HETATM   16  C   UNL     1      39.505 -12.277   0.916  1.00  0.00     0.268 C 
BRANCH  16  17
HETATM   17  N   UNL     1      39.290 -12.651  -0.547  1.00  0.00    -0.069 N 
HETATM   18  H   UNL     1      39.993 -12.064  -1.040  1.00  0.00     0.280 HD
HETATM   19  C   UNL     1      39.622 -14.096  -0.816  1.00  0.00     0.235 C 
HETATM   20  C   UNL     1      39.509 -14.394  -2.303  1.00  0.00     0.028 C 
HETATM   21  C   UNL     1      38.139 -14.013  -2.849  1.00  0.00     0.003 C 
HETATM   22  C   UNL     1      37.825 -12.553  -2.546  1.00  0.00     0.028 C 
HETATM   23  C   UNL     1      37.931 -12.252  -1.058  1.00  0.00     0.235 C 
ENDBRANCH  16  17
ENDBRANCH  13  16
ENDBRANCH  12  13
ENDBRANCH  11  12
ENDBRANCH   6  11
BRANCH   2  24
HETATM   24  N   UNL     1      42.596  -9.139   7.020  1.00  0.00    -0.321 N 
HETATM   25  C   UNL     1      41.933  -8.568   8.092  1.00  0.00     0.218 C 
HETATM   26  C   UNL     1      42.087  -7.065   8.125  1.00  0.00     0.117 C 
HETATM   27  O   UNL     1      41.263  -9.136   8.946  1.00  0.00    -0.274 OA
HETATM   28  H   UNL     1      43.132  -8.519   6.418  1.00  0.00     0.169 HD
ENDBRANCH   2  24
BRANCH   1  29
HETATM   29  C   UNL     1      44.687 -11.169   7.971  1.00  0.00     0.297 C 
HETATM   30  O   UNL     1      45.853 -11.159   7.599  1.00  0.00    -0.259 OA
BRANCH  29  31
HETATM   31  O   UNL     1      44.311 -10.920   9.265  1.00  0.00    -0.318 OA
BRANCH  31  32
HETATM   32  C   UNL     1      44.999  -9.835   9.914  1.00  0.00     0.174 C 
HETATM   33  C   UNL     1      44.159  -9.262  11.040  1.00  0.00     0.034 C 
ENDBRANCH  31  32
ENDBRANCH  29  31
ENDBRANCH   1  29
TORSDOF 10
ENDMDL
MODEL 5
REMARK VINA RESULT:      -7.1      3.283      8.903
REMARK  10 active torsions:
REMARK  status: ('A' for Active; 'I' for Inactive)
REMARK    1  A    between atoms: C_2  and  O_3 
REMARK    2  A    between atoms: O_3  and  C_4 
REMARK    3  A    between atoms: C_4  and  C_5 
REMARK    4  A    between atoms: C_6  and  N_7 
REMARK       I    between atoms: N_7  and  C_8 
REMARK    5  A    between atoms: C_14  and  O_15 
REMARK    6  A    between atoms: O_15  and  C_16 
REMARK    7  A    between atoms: C_16  and  C_17 
REMARK    8  A    between atoms: C_17  and  O_18 
REMARK    9  A    between atoms: C_17  and  C_19 
REMARK   10  A    between atoms: C_19  and  N_20 
ROOT
HETATM    1  C   UNL     1      41.001 -14.293   3.671  1.00  0.00     0.085 A 
HETATM    2  C   UNL     1      42.042 -15.083   4.135  1.00  0.00     0.094 A 
HETATM    3  S   UNL     1      42.935 -14.323   5.355  1.00  0.00    -0.068 SA
HETATM    4  C   UNL     1      41.995 -12.879   5.310  1.00  0.00     0.053 A 
HETATM    5  C   UNL     1      40.956 -13.016   4.382  1.00  0.00     0.003 A 
HETATM    6  C   UNL     1      42.209 -11.696   6.082  1.00  0.00     0.104 A 
HETATM    7  C   UNL     1      41.323 -10.623   5.856  1.00  0.00     0.045 A 
HETATM    8 BR   UNL     1      41.499  -8.877   6.599  1.00  0.00    -0.048 Br
HETATM    9  C   UNL     1      40.251 -10.754   4.976  1.00  0.00     0.023 A 
HETATM   10  C   UNL     1      40.062 -11.927   4.250  1.00  0.00     0.015 A 
ENDROOT
BRANCH   6  11
HETATM   11  O   UNL     1      43.315 -11.696   6.897  1.00  0.00    -0.346 OA
BRANCH  11  12
HETATM   12  C   UNL     1      44.538 -11.200   6.356  1.00  0.00     0.209 C 
BRANCH  12  13
HETATM   13  C   UNL     1      45.494 -10.846   7.504  1.00  0.00     0.168 C 
BRANCH  13  14
HETATM   14  O   UNL     1      46.862 -10.840   7.049  1.00  0.00    -0.392 OA
HETATM   15  H   UNL     1      46.939 -11.597   6.425  1.00  0.00     0.210 HD
ENDBRANCH  13  14
BRANCH  13  16
HETATM   16  C   UNL     1      45.186  -9.430   8.023  1.00  0.00     0.268 C 
BRANCH  16  17
HETATM   17  N   UNL     1      44.227  -9.522   9.207  1.00  0.00    -0.069 N 
HETATM   18  H   UNL     1      43.421 -10.043   8.809  1.00  0.00     0.280 HD
HETATM   19  C   UNL     1      44.799 -10.344  10.335  1.00  0.00     0.235 C 
HETATM   20  C   UNL     1      43.768 -10.510  11.440  1.00  0.00     0.028 C 
HETATM   21  C   UNL     1      43.243  -9.164  11.924  1.00  0.00     0.003 C 
HETATM   22  C   UNL     1      42.689  -8.351  10.760  1.00  0.00     0.028 C 
HETATM   23  C   UNL     1      43.720  -8.177   9.654  1.00  0.00     0.235 C 
ENDBRANCH  16  17
ENDBRANCH  13  16
ENDBRANCH  12  13
ENDBRANCH  11  12
ENDBRANCH   6  11
BRANCH   2  24
HETATM   24  N   UNL     1      42.387 -16.352   3.684  1.00  0.00    -0.321 N 
HETATM   25  C   UNL     1      43.048 -16.686   2.515  1.00  0.00     0.218 C 
HETATM   26  C   UNL     1      43.191 -18.181   2.345  1.00  0.00     0.117 C 
HETATM   27  O   UNL     1      43.480 -15.926   1.657  1.00  0.00    -0.274 OA
HETATM   28  H   UNL     1      42.117 -17.113   4.303  1.00  0.00     0.169 HD
ENDBRANCH   2  24
BRANCH   1  29
HETATM   29  C   UNL     1      40.073 -14.664   2.592  1.00  0.00     0.297 C 
HETATM   30  O   UNL     1      39.453 -15.720   2.571  1.00  0.00    -0.259 OA
BRANCH  29  31
HETATM   31  O   UNL     1      39.954 -13.706   1.618  1.00  0.00    -0.318 OA
BRANCH  31  32
HETATM   32  C   UNL     1      40.726 -13.934   0.425  1.00  0.00     0.174 C 
HETATM   33  C   UNL     1      39.834 -14.399  -0.712  1.00  0.00     0.034 C 
ENDBRANCH  31  32
ENDBRANCH  29  31
ENDBRANCH   1  29
TORSDOF 10
ENDMDL
MODEL 6
REMARK VINA RESULT:      -6.9      3.540      5.542
REMARK  10 active torsions:
REMARK  status: ('A' for Active; 'I' for Inactive)
REMARK    1  A    between atoms: C_2  and  O_3 
REMARK    2  A    between atoms: O_3  and  C_4 
REMARK    3  A    between atoms: C_4  and  C_5 
REMARK    4  A    between atoms: C_6  and  N_7 
REMARK       I    between atoms: N_7  and  C_8 
REMARK    5  A    between atoms: C_14  and  O_15 
REMARK    6  A    between atoms: O_15  and  C_16 
REMARK    7  A    between atoms: C_16  and  C_17 
REMARK    8  A    between atoms: C_17  and  O_18 
REMARK    9  A    between atoms: C_17  and  C_19 
REMARK   10  A    between atoms: C_19  and  N_20 
ROOT
HETATM    1  C   UNL     1      41.707 -15.462   4.382  1.00  0.00     0.085 A 
HETATM    2  C   UNL     1      42.091 -15.880   3.117  1.00  0.00     0.094 A 
HETATM    3  S   UNL     1      42.419 -14.582   2.081  1.00  0.00    -0.068 SA
HETATM    4  C   UNL     1      42.035 -13.387   3.262  1.00  0.00     0.053 A 
HETATM    5  C   UNL     1      41.706 -14.003   4.474  1.00  0.00     0.003 A 
HETATM    6  C   UNL     1      42.036 -11.971   3.075  1.00  0.00     0.104 A 
HETATM    7  C   UNL     1      41.660 -11.184   4.183  1.00  0.00     0.045 A 
HETATM    8 BR   UNL     1      41.388  -9.298   4.151  1.00  0.00    -0.048 Br
HETATM    9  C   UNL     1      41.378 -11.772   5.414  1.00  0.00     0.023 A 
HETATM   10  C   UNL     1      41.401 -13.157   5.566  1.00  0.00     0.015 A 
ENDROOT
BRANCH   6  11
HETATM   11  O   UNL     1      42.315 -11.526   1.804  1.00  0.00    -0.346 OA
BRANCH  11  12
HETATM   12  C   UNL     1      41.244 -11.495   0.863  1.00  0.00     0.209 C 
BRANCH  12  13
HETATM   13  C   UNL     1      41.099 -10.071   0.308  1.00  0.00     0.168 C 
BRANCH  13  14
HETATM   14  O   UNL     1      42.374  -9.399   0.282  1.00  0.00    -0.392 OA
HETATM   15  H   UNL     1      42.512  -9.052   1.192  1.00  0.00     0.210 HD
ENDBRANCH  13  14
BRANCH  13  16
HETATM   16  C   UNL     1      40.589 -10.125  -1.144  1.00  0.00     0.268 C 
BRANCH  16  17
HETATM   17  N   UNL     1      40.103 -11.537  -1.457  1.00  0.00    -0.069 N 
HETATM   18  H   UNL     1      40.326 -12.056  -0.584  1.00  0.00     0.280 HD
HETATM   19  C   UNL     1      38.609 -11.590  -1.658  1.00  0.00     0.235 C 
HETATM   20  C   UNL     1      38.155 -13.028  -1.848  1.00  0.00     0.028 C 
HETATM   21  C   UNL     1      38.907 -13.709  -2.984  1.00  0.00     0.003 C 
HETATM   22  C   UNL     1      40.412 -13.624  -2.761  1.00  0.00     0.028 C 
HETATM   23  C   UNL     1      40.873 -12.185  -2.577  1.00  0.00     0.235 C 
ENDBRANCH  16  17
ENDBRANCH  13  16
ENDBRANCH  12  13
ENDBRANCH  11  12
ENDBRANCH   6  11
BRANCH   2  24
HETATM   24  N   UNL     1      42.197 -17.192   2.671  1.00  0.00    -0.321 N 
HETATM   25  C   UNL     1      43.250 -18.070   2.861  1.00  0.00     0.218 C 
HETATM   26  C   UNL     1      43.021 -19.396   2.174  1.00  0.00     0.117 C 
HETATM   27  O   UNL     1      44.289 -17.869   3.480  1.00  0.00    -0.274 OA
HETATM   28  H   UNL     1      41.393 -17.533   2.150  1.00  0.00     0.169 HD
ENDBRANCH   2  24
BRANCH   1  29
HETATM   29  C   UNL     1      41.325 -16.355   5.488  1.00  0.00     0.297 C 
HETATM   30  O   UNL     1      40.174 -16.472   5.890  1.00  0.00    -0.259 OA
BRANCH  29  31
HETATM   31  O   UNL     1      42.378 -17.057   6.014  1.00  0.00    -0.318 OA
BRANCH  31  32
HETATM   32  C   UNL     1      43.422 -16.262   6.603  1.00  0.00     0.174 C 
HETATM   33  C   UNL     1      42.961 -15.652   7.913  1.00  0.00     0.034 C 
ENDBRANCH  31  32
ENDBRANCH  29  31
ENDBRANCH   1  29
TORSDOF 10
ENDMDL
MODEL 7
REMARK VINA RESULT:      -6.8      3.622      5.912
REMARK  10 active torsions:
REMARK  status: ('A' for Active; 'I' for Inactive)
REMARK    1  A    between atoms: C_2  and  O_3 
REMARK    2  A    between atoms: O_3  and  C_4 
REMARK    3  A    between atoms: C_4  and  C_5 
REMARK    4  A    between atoms: C_6  and  N_7 
REMARK       I    between atoms: N_7  and  C_8 
REMARK    5  A    between atoms: C_14  and  O_15 
REMARK    6  A    between atoms: O_15  and  C_16 
REMARK    7  A    between atoms: C_16  and  C_17 
REMARK    8  A    between atoms: C_17  and  O_18 
REMARK    9  A    between atoms: C_17  and  C_19 
REMARK   10  A    between atoms: C_19  and  N_20 
ROOT
HETATM    1  C   UNL     1      42.319 -10.490   6.202  1.00  0.00     0.085 A 
HETATM    2  C   UNL     1      43.550 -10.875   6.712  1.00  0.00     0.094 A 
HETATM    3  S   UNL     1      44.038 -12.392   6.142  1.00  0.00    -0.068 SA
HETATM    4  C   UNL     1      42.613 -12.631   5.203  1.00  0.00     0.053 A 
HETATM    5  C   UNL     1      41.787 -11.505   5.295  1.00  0.00     0.003 A 
HETATM    6  C   UNL     1      42.281 -13.789   4.435  1.00  0.00     0.104 A 
HETATM    7  C   UNL     1      41.040 -13.772   3.764  1.00  0.00     0.045 A 
HETATM    8 BR   UNL     1      40.269 -15.249   2.840  1.00  0.00    -0.048 Br
HETATM    9  C   UNL     1      40.226 -12.642   3.799  1.00  0.00     0.023 A 
HETATM   10  C   UNL     1      40.586 -11.523   4.546  1.00  0.00     0.015 A 
ENDROOT
BRANCH   6  11
HETATM   11  O   UNL     1      43.166 -14.838   4.505  1.00  0.00    -0.346 OA
BRANCH  11  12
HETATM   12  C   UNL     1      43.039 -15.741   5.602  1.00  0.00     0.209 C 
BRANCH  12  13
HETATM   13  C   UNL     1      44.268 -16.659   5.648  1.00  0.00     0.168 C 
BRANCH  13  14
HETATM   14  O   UNL     1      45.086 -16.364   6.798  1.00  0.00    -0.392 OA
HETATM   15  H   UNL     1      45.527 -15.508   6.599  1.00  0.00     0.210 HD
ENDBRANCH  13  14
BRANCH  13  16
HETATM   16  C   UNL     1      43.820 -18.127   5.778  1.00  0.00     0.268 C 
BRANCH  16  17
HETATM   17  N   UNL     1      43.995 -18.831   4.435  1.00  0.00    -0.069 N 
HETATM   18  H   UNL     1      45.000 -18.673   4.223  1.00  0.00     0.280 HD
HETATM   19  C   UNL     1      43.772 -20.318   4.543  1.00  0.00     0.235 C 
HETATM   20  C   UNL     1      44.072 -20.992   3.213  1.00  0.00     0.028 C 
HETATM   21  C   UNL     1      43.267 -20.375   2.077  1.00  0.00     0.003 C 
HETATM   22  C   UNL     1      43.500 -18.871   2.006  1.00  0.00     0.028 C 
HETATM   23  C   UNL     1      43.195 -18.190   3.333  1.00  0.00     0.235 C 
ENDBRANCH  16  17
ENDBRANCH  13  16
ENDBRANCH  12  13
ENDBRANCH  11  12
ENDBRANCH   6  11
BRANCH   2  24
HETATM   24  N   UNL     1      44.339 -10.162   7.607  1.00  0.00    -0.321 N 
HETATM   25  C   UNL     1      44.525 -10.408   8.956  1.00  0.00     0.218 C 
HETATM   26  C   UNL     1      45.414  -9.376   9.610  1.00  0.00     0.117 C 
HETATM   27  O   UNL     1      44.047 -11.319   9.623  1.00  0.00    -0.274 OA
HETATM   28  H   UNL     1      44.836  -9.372   7.204  1.00  0.00     0.169 HD
ENDBRANCH   2  24
BRANCH   1  29
HETATM   29  C   UNL     1      41.617  -9.242   6.539  1.00  0.00     0.297 C 
HETATM   30  O   UNL     1      41.452  -8.327   5.742  1.00  0.00    -0.259 OA
BRANCH  29  31
HETATM   31  O   UNL     1      41.149  -9.207   7.827  1.00  0.00    -0.318 OA
BRANCH  31  32
HETATM   32  C   UNL     1      39.721  -9.096   7.966  1.00  0.00     0.174 C 
HETATM   33  C   UNL     1      39.061 -10.456   7.832  1.00  0.00     0.034 C 
ENDBRANCH  31  32
ENDBRANCH  29  31
ENDBRANCH   1  29
TORSDOF 10
ENDMDL
MODEL 8
REMARK VINA RESULT:      -6.8      2.509      8.271
REMARK  10 active torsions:
REMARK  status: ('A' for Active; 'I' for Inactive)
REMARK    1  A    between atoms: C_2  and  O_3 
REMARK    2  A    between atoms: O_3  and  C_4 
REMARK    3  A    between atoms: C_4  and  C_5 
REMARK    4  A    between atoms: C_6  and  N_7 
REMARK       I    between atoms: N_7  and  C_8 
REMARK    5  A    between atoms: C_14  and  O_15 
REMARK    6  A    between atoms: O_15  and  C_16 
REMARK    7  A    between atoms: C_16  and  C_17 
REMARK    8  A    between atoms: C_17  and  O_18 
REMARK    9  A    between atoms: C_17  and  C_19 
REMARK   10  A    between atoms: C_19  and  N_20 
ROOT
HETATM    1  C   UNL     1      40.284 -13.345   0.390  1.00  0.00     0.085 A 
HETATM    2  C   UNL     1      40.826 -12.075   0.519  1.00  0.00     0.094 A 
HETATM    3  S   UNL     1      41.808 -11.929   1.890  1.00  0.00    -0.068 SA
HETATM    4  C   UNL     1      41.537 -13.552   2.404  1.00  0.00     0.053 A 
HETATM    5  C   UNL     1      40.726 -14.217   1.477  1.00  0.00     0.003 A 
HETATM    6  C   UNL     1      42.040 -14.167   3.591  1.00  0.00     0.104 A 
HETATM    7  C   UNL     1      41.664 -15.507   3.821  1.00  0.00     0.045 A 
HETATM    8 BR   UNL     1      42.028 -16.495   5.409  1.00  0.00    -0.048 Br
HETATM    9  C   UNL     1      40.901 -16.204   2.887  1.00  0.00     0.023 A 
HETATM   10  C   UNL     1      40.438 -15.579   1.732  1.00  0.00     0.015 A 
ENDROOT
BRANCH   6  11
HETATM   11  O   UNL     1      42.764 -13.357   4.434  1.00  0.00    -0.346 OA
BRANCH  11  12
HETATM   12  C   UNL     1      42.062 -12.702   5.489  1.00  0.00     0.209 C 
BRANCH  12  13
HETATM   13  C   UNL     1      43.001 -12.530   6.692  1.00  0.00     0.168 C 
BRANCH  13  14
HETATM   14  O   UNL     1      43.189 -13.783   7.378  1.00  0.00    -0.392 OA
HETATM   15  H   UNL     1      44.150 -13.836   7.579  1.00  0.00     0.210 HD
ENDBRANCH  13  14
BRANCH  13  16
HETATM   16  C   UNL     1      44.388 -12.067   6.210  1.00  0.00     0.268 C 
BRANCH  16  17
HETATM   17  N   UNL     1      44.720 -10.719   6.845  1.00  0.00    -0.069 N 
HETATM   18  H   UNL     1      44.770 -10.085   6.022  1.00  0.00     0.280 HD
HETATM   19  C   UNL     1      43.611 -10.227   7.740  1.00  0.00     0.235 C 
HETATM   20  C   UNL     1      43.930  -8.832   8.254  1.00  0.00     0.028 C 
HETATM   21  C   UNL     1      45.286  -8.785   8.946  1.00  0.00     0.003 C 
HETATM   22  C   UNL     1      46.381  -9.304   8.023  1.00  0.00     0.028 C 
HETATM   23  C   UNL     1      46.070 -10.703   7.511  1.00  0.00     0.235 C 
ENDBRANCH  16  17
ENDBRANCH  13  16
ENDBRANCH  12  13
ENDBRANCH  11  12
ENDBRANCH   6  11
BRANCH   2  24
HETATM   24  N   UNL     1      40.617 -10.992  -0.326  1.00  0.00    -0.321 N 
HETATM   25  C   UNL     1      41.036 -10.846  -1.637  1.00  0.00     0.218 C 
HETATM   26  C   UNL     1      40.666  -9.498  -2.210  1.00  0.00     0.117 C 
HETATM   27  O   UNL     1      41.656 -11.654  -2.318  1.00  0.00    -0.274 OA
HETATM   28  H   UNL     1      40.086 -10.227   0.082  1.00  0.00     0.169 HD
ENDBRANCH   2  24
BRANCH   1  29
HETATM   29  C   UNL     1      39.364 -13.768  -0.678  1.00  0.00     0.297 C 
HETATM   30  O   UNL     1      39.488 -14.818  -1.295  1.00  0.00    -0.259 OA
BRANCH  29  31
HETATM   31  O   UNL     1      38.344 -12.881  -0.905  1.00  0.00    -0.318 OA
BRANCH  31  32
HETATM   32  C   UNL     1      37.775 -12.914  -2.226  1.00  0.00     0.174 C 
HETATM   33  C   UNL     1      37.185 -11.564  -2.592  1.00  0.00     0.034 C 
ENDBRANCH  31  32
ENDBRANCH  29  31
ENDBRANCH   1  29
TORSDOF 10
ENDMDL
MODEL 9
REMARK VINA RESULT:      -6.8      3.558      5.717
REMARK  10 active torsions:
REMARK  status: ('A' for Active; 'I' for Inactive)
REMARK    1  A    between atoms: C_2  and  O_3 
REMARK    2  A    between atoms: O_3  and  C_4 
REMARK    3  A    between atoms: C_4  and  C_5 
REMARK    4  A    between atoms: C_6  and  N_7 
REMARK       I    between atoms: N_7  and  C_8 
REMARK    5  A    between atoms: C_14  and  O_15 
REMARK    6  A    between atoms: O_15  and  C_16 
REMARK    7  A    between atoms: C_16  and  C_17 
REMARK    8  A    between atoms: C_17  and  O_18 
REMARK    9  A    between atoms: C_17  and  C_19 
REMARK   10  A    between atoms: C_19  and  N_20 
ROOT
HETATM    1  C   UNL     1      41.868 -14.825   3.905  1.00  0.00     0.085 A 
HETATM    2  C   UNL     1      42.547 -13.633   4.109  1.00  0.00     0.094 A 
HETATM    3  S   UNL     1      42.355 -12.552   2.821  1.00  0.00    -0.068 SA
HETATM    4  C   UNL     1      41.375 -13.633   1.903  1.00  0.00     0.053 A 
HETATM    5  C   UNL     1      41.157 -14.810   2.628  1.00  0.00     0.003 A 
HETATM    6  C   UNL     1      40.845 -13.405   0.596  1.00  0.00     0.104 A 
HETATM    7  C   UNL     1      40.087 -14.449   0.027  1.00  0.00     0.045 A 
HETATM    8 BR   UNL     1      39.438 -14.487  -1.764  1.00  0.00    -0.048 Br
HETATM    9  C   UNL     1      39.814 -15.609   0.750  1.00  0.00     0.023 A 
HETATM   10  C   UNL     1      40.333 -15.793   2.029  1.00  0.00     0.015 A 
ENDROOT
BRANCH   6  11
HETATM   11  O   UNL     1      41.210 -12.226  -0.009  1.00  0.00    -0.346 OA
BRANCH  11  12
HETATM   12  C   UNL     1      40.296 -11.133   0.064  1.00  0.00     0.209 C 
BRANCH  12  13
HETATM   13  C   UNL     1      41.063  -9.818  -0.138  1.00  0.00     0.168 C 
BRANCH  13  14
HETATM   14  O   UNL     1      42.068  -9.649   0.881  1.00  0.00    -0.392 OA
HETATM   15  H   UNL     1      41.577  -9.461   1.713  1.00  0.00     0.210 HD
ENDBRANCH  13  14
BRANCH  13  16
HETATM   16  C   UNL     1      41.794  -9.841  -1.493  1.00  0.00     0.268 C 
BRANCH  16  17
HETATM   17  N   UNL     1      41.878  -8.422  -2.047  1.00  0.00    -0.069 N 
HETATM   18  H   UNL     1      41.171  -7.912  -1.480  1.00  0.00     0.280 HD
HETATM   19  C   UNL     1      43.222  -7.791  -1.786  1.00  0.00     0.235 C 
HETATM   20  C   UNL     1      43.222  -6.342  -2.247  1.00  0.00     0.028 C 
HETATM   21  C   UNL     1      42.807  -6.217  -3.707  1.00  0.00     0.003 C 
HETATM   22  C   UNL     1      41.454  -6.879  -3.941  1.00  0.00     0.028 C 
HETATM   23  C   UNL     1      41.452  -8.332  -3.488  1.00  0.00     0.235 C 
ENDBRANCH  16  17
ENDBRANCH  13  16
ENDBRANCH  12  13
ENDBRANCH  11  12
ENDBRANCH   6  11
BRANCH   2  24
HETATM   24  N   UNL     1      43.332 -13.301   5.207  1.00  0.00    -0.321 N 
HETATM   25  C   UNL     1      43.061 -12.365   6.190  1.00  0.00     0.218 C 
HETATM   26  C   UNL     1      44.185 -12.246   7.193  1.00  0.00     0.117 C 
HETATM   27  O   UNL     1      42.064 -11.661   6.299  1.00  0.00    -0.274 OA
HETATM   28  H   UNL     1      44.202 -13.821   5.284  1.00  0.00     0.169 HD
ENDBRANCH   2  24
BRANCH   1  29
HETATM   29  C   UNL     1      41.873 -15.970   4.829  1.00  0.00     0.297 C 
HETATM   30  O   UNL     1      40.865 -16.393   5.381  1.00  0.00    -0.259 OA
BRANCH  29  31
HETATM   31  O   UNL     1      43.112 -16.531   4.999  1.00  0.00    -0.318 OA
BRANCH  31  32
HETATM   32  C   UNL     1      43.558 -17.388   3.932  1.00  0.00     0.174 C 
HETATM   33  C   UNL     1      44.329 -18.574   4.480  1.00  0.00     0.034 C 
ENDBRANCH  31  32
ENDBRANCH  29  31
ENDBRANCH   1  29
TORSDOF 10
ENDMDL
MODEL 10
REMARK VINA RESULT:      -6.8      3.852      8.812
REMARK  10 active torsions:
REMARK  status: ('A' for Active; 'I' for Inactive)
REMARK    1  A    between atoms: C_2  and  O_3 
REMARK    2  A    between atoms: O_3  and  C_4 
REMARK    3  A    between atoms: C_4  and  C_5 
REMARK    4  A    between atoms: C_6  and  N_7 
REMARK       I    between atoms: N_7  and  C_8 
REMARK    5  A    between atoms: C_14  and  O_15 
REMARK    6  A    between atoms: O_15  and  C_16 
REMARK    7  A    between atoms: C_16  and  C_17 
REMARK    8  A    between atoms: C_17  and  O_18 
REMARK    9  A    between atoms: C_17  and  C_19 
REMARK   10  A    between atoms: C_19  and  N_20 
ROOT
HETATM    1  C   UNL     1      42.741 -14.009   5.279  1.00  0.00     0.085 A 
HETATM    2  C   UNL     1      41.535 -13.702   4.667  1.00  0.00     0.094 A 
HETATM    3  S   UNL     1      41.059 -12.102   4.947  1.00  0.00    -0.068 SA
HETATM    4  C   UNL     1      42.428 -11.740   5.930  1.00  0.00     0.053 A 
HETATM    5  C   UNL     1      43.277 -12.850   5.991  1.00  0.00     0.003 A 
HETATM    6  C   UNL     1      42.695 -10.508   6.602  1.00  0.00     0.104 A 
HETATM    7  C   UNL     1      43.872 -10.450   7.377  1.00  0.00     0.045 A 
HETATM    8 BR   UNL     1      44.363  -9.010   8.524  1.00  0.00    -0.048 Br
HETATM    9  C   UNL     1      44.758 -11.524   7.411  1.00  0.00     0.023 A 
HETATM   10  C   UNL     1      44.475 -12.706   6.731  1.00  0.00     0.015 A 
ENDROOT
BRANCH   6  11
HETATM   11  O   UNL     1      41.727  -9.538   6.499  1.00  0.00    -0.346 OA
BRANCH  11  12
HETATM   12  C   UNL     1      40.574  -9.660   7.330  1.00  0.00     0.209 C 
BRANCH  12  13
HETATM   13  C   UNL     1      40.619  -8.582   8.421  1.00  0.00     0.168 C 
BRANCH  13  14
HETATM   14  O   UNL     1      39.693  -7.517   8.129  1.00  0.00    -0.392 OA
HETATM   15  H   UNL     1      38.971  -7.601   8.791  1.00  0.00     0.210 HD
ENDBRANCH  13  14
BRANCH  13  16
HETATM   16  C   UNL     1      40.197  -9.187   9.773  1.00  0.00     0.268 C 
BRANCH  16  17
HETATM   17  N   UNL     1      41.359  -9.089  10.757  1.00  0.00    -0.069 N 
HETATM   18  H   UNL     1      42.136  -9.547  10.240  1.00  0.00     0.280 HD
HETATM   19  C   UNL     1      41.758  -7.659  11.020  1.00  0.00     0.235 C 
HETATM   20  C   UNL     1      42.992  -7.612  11.908  1.00  0.00     0.028 C 
HETATM   21  C   UNL     1      42.783  -8.394  13.199  1.00  0.00     0.003 C 
HETATM   22  C   UNL     1      42.364  -9.828  12.900  1.00  0.00     0.028 C 
HETATM   23  C   UNL     1      41.126  -9.880  12.016  1.00  0.00     0.235 C 
ENDBRANCH  16  17
ENDBRANCH  13  16
ENDBRANCH  12  13
ENDBRANCH  11  12
ENDBRANCH   6  11
BRANCH   2  24
HETATM   24  N   UNL     1      40.742 -14.560   3.914  1.00  0.00    -0.321 N 
HETATM   25  C   UNL     1      40.730 -14.714   2.539  1.00  0.00     0.218 C 
HETATM   26  C   UNL     1      39.685 -15.707   2.084  1.00  0.00     0.117 C 
HETATM   27  O   UNL     1      41.432 -14.140   1.716  1.00  0.00    -0.274 OA
HETATM   28  H   UNL     1      40.106 -15.139   4.456  1.00  0.00     0.169 HD
ENDBRANCH   2  24
BRANCH   1  29
HETATM   29  C   UNL     1      43.394 -15.327   5.247  1.00  0.00     0.297 C 
HETATM   30  O   UNL     1      43.750 -15.926   6.254  1.00  0.00    -0.259 OA
BRANCH  29  31
HETATM   31  O   UNL     1      43.551 -15.830   3.981  1.00  0.00    -0.318 OA
BRANCH  31  32
HETATM   32  C   UNL     1      43.222 -17.222   3.821  1.00  0.00     0.174 C 
HETATM   33  C   UNL     1      43.159 -17.594   2.351  1.00  0.00     0.034 C 
ENDBRANCH  31  32
ENDBRANCH  29  31
ENDBRANCH   1  29
TORSDOF 10
ENDMDL
