MODEL 1
REMARK VINA RESULT:      -8.2      0.000      0.000
REMARK  5 active torsions:
REMARK  status: ('A' for Active; 'I' for Inactive)
REMARK    1  A    between atoms: C_3  and  N_4 
REMARK       I    between atoms: N_4  and  C_5 
REMARK       I    between atoms: C_5  and  N_6 
REMARK    2  A    between atoms: N_6  and  C_7 
REMARK    3  A    between atoms: C_7  and  C_8 
REMARK    4  A    between atoms: C_10  and  O_11 
REMARK    5  A    between atoms: O_11  and  C_12 
ROOT
HETATM    1  N   UNL     1      42.442 -15.050   5.560  1.00  0.00    -0.308 N 
HETATM    2  C   UNL     1      42.772 -13.731   5.325  1.00  0.00     0.321 C 
HETATM    3  N   UNL     1      42.337 -12.929   6.357  1.00  0.00    -0.339 N 
HETATM    4  O   UNL     1      43.403 -13.299   4.371  1.00  0.00    -0.247 OA
HETATM    5  H   UNL     1      42.487 -15.278   6.540  1.00  0.00     0.170 HD
HETATM    6  H   UNL     1      41.602 -13.291   6.945  1.00  0.00     0.164 HD
ENDROOT
BRANCH   3   7
HETATM    7  C   UNL     1      42.501 -11.491   6.301  1.00  0.00     0.163 C 
BRANCH   7   8
HETATM    8  C   UNL     1      43.720 -10.997   7.036  1.00  0.00    -0.035 A 
HETATM    9  C   UNL     1      43.642 -10.419   8.307  1.00  0.00     0.066 A 
HETATM   10  C   UNL     1      44.814 -10.044   8.946  1.00  0.00     0.164 A 
HETATM   11  N   UNL     1      46.046 -10.212   8.424  1.00  0.00    -0.237 NA
HETATM   12  C   UNL     1      46.105 -10.793   7.209  1.00  0.00     0.120 A 
HETATM   13  C   UNL     1      44.992 -11.197   6.487  1.00  0.00     0.028 A 
BRANCH  10  14
HETATM   14  O   UNL     1      44.679  -9.458  10.191  1.00  0.00    -0.329 OA
BRANCH  14  15
HETATM   15  C   UNL     1      43.435  -9.707  10.879  1.00  0.00     0.130 C 
HETATM   16  C   UNL     1      43.431 -10.824  11.956  1.00  0.00     0.032 C 
HETATM   17  C   UNL     1      42.537  -9.910  12.812  1.00  0.00     0.005 C 
HETATM   18  C   UNL     1      43.131  -8.720  12.037  1.00  0.00     0.032 C 
ENDBRANCH  14  15
ENDBRANCH  10  14
ENDBRANCH   7   8
ENDBRANCH   3   7
BRANCH   1  19
HETATM   19  C   UNL     1      42.649 -16.122   4.653  1.00  0.00     0.048 A 
HETATM   20  C   UNL     1      43.741 -16.992   4.902  1.00  0.00    -0.033 A 
HETATM   21  C   UNL     1      44.670 -16.812   6.075  1.00  0.00     0.050 C 
HETATM   22  C   UNL     1      44.006 -18.050   4.015  1.00  0.00     0.033 A 
HETATM   23  C   UNL     1      43.199 -18.257   2.904  1.00  0.00     0.035 A 
HETATM   24  C   UNL     1      42.102 -17.437   2.677  1.00  0.00     0.033 A 
HETATM   25 CL   UNL     1      43.546 -19.548   1.820  1.00  0.00    -0.084 Cl
HETATM   26  C   UNL     1      41.790 -16.384   3.559  1.00  0.00    -0.033 A 
HETATM   27  C   UNL     1      40.519 -15.629   3.273  1.00  0.00     0.050 C 
ENDBRANCH   1  19
TORSDOF 5
ENDMDL
MODEL 2
REMARK VINA RESULT:      -8.0      0.869      2.043
REMARK  5 active torsions:
REMARK  status: ('A' for Active; 'I' for Inactive)
REMARK    1  A    between atoms: C_3  and  N_4 
REMARK       I    between atoms: N_4  and  C_5 
REMARK       I    between atoms: C_5  and  N_6 
REMARK    2  A    between atoms: N_6  and  C_7 
REMARK    3  A    between atoms: C_7  and  C_8 
REMARK    4  A    between atoms: C_10  and  O_11 
REMARK    5  A    between atoms: O_11  and  C_12 
ROOT
HETATM    1  N   UNL     1      42.309 -14.539   5.746  1.00  0.00    -0.308 N 
HETATM    2  C   UNL     1      42.759 -13.250   5.546  1.00  0.00     0.321 C 
HETATM    3  N   UNL     1      42.206 -12.392   6.471  1.00  0.00    -0.339 N 
HETATM    4  O   UNL     1      43.571 -12.886   4.707  1.00  0.00    -0.247 OA
HETATM    5  H   UNL     1      42.171 -14.739   6.723  1.00  0.00     0.170 HD
HETATM    6  H   UNL     1      41.360 -12.691   6.931  1.00  0.00     0.164 HD
ENDROOT
BRANCH   3   7
HETATM    7  C   UNL     1      42.471 -10.969   6.416  1.00  0.00     0.163 C 
BRANCH   7   8
HETATM    8  C   UNL     1      43.440 -10.497   7.470  1.00  0.00    -0.035 A 
HETATM    9  C   UNL     1      43.052  -9.654   8.516  1.00  0.00     0.066 A 
HETATM   10  C   UNL     1      43.987  -9.311   9.481  1.00  0.00     0.164 A 
HETATM   11  N   UNL     1      45.261  -9.753   9.490  1.00  0.00    -0.237 NA
HETATM   12  C   UNL     1      45.611 -10.584   8.488  1.00  0.00     0.120 A 
HETATM   13  C   UNL     1      44.753 -10.981   7.473  1.00  0.00     0.028 A 
BRANCH  10  14
HETATM   14  O   UNL     1      43.558  -8.458  10.481  1.00  0.00    -0.329 OA
BRANCH  14  15
HETATM   15  C   UNL     1      43.540  -9.003  11.817  1.00  0.00     0.130 C 
HETATM   16  C   UNL     1      43.175  -8.036  12.974  1.00  0.00     0.032 C 
HETATM   17  C   UNL     1      42.364  -9.185  13.597  1.00  0.00     0.005 C 
HETATM   18  C   UNL     1      42.244  -9.776  12.181  1.00  0.00     0.032 C 
ENDBRANCH  14  15
ENDBRANCH  10  14
ENDBRANCH   7   8
ENDBRANCH   3   7
BRANCH   1  19
HETATM   19  C   UNL     1      42.598 -15.648   4.910  1.00  0.00     0.048 A 
HETATM   20  C   UNL     1      41.799 -15.825   3.752  1.00  0.00    -0.033 A 
HETATM   21  C   UNL     1      40.672 -14.890   3.395  1.00  0.00     0.050 C 
HETATM   22  C   UNL     1      42.026 -16.927   2.908  1.00  0.00     0.033 A 
HETATM   23  C   UNL     1      43.036 -17.836   3.194  1.00  0.00     0.035 A 
HETATM   24  C   UNL     1      43.852 -17.646   4.301  1.00  0.00     0.033 A 
HETATM   25 CL   UNL     1      43.292 -19.187   2.160  1.00  0.00    -0.084 Cl
HETATM   26  C   UNL     1      43.671 -16.539   5.153  1.00  0.00    -0.033 A 
HETATM   27  C   UNL     1      44.680 -16.376   6.258  1.00  0.00     0.050 C 
ENDBRANCH   1  19
TORSDOF 5
ENDMDL
MODEL 3
REMARK VINA RESULT:      -7.9      5.340      8.425
REMARK  5 active torsions:
REMARK  status: ('A' for Active; 'I' for Inactive)
REMARK    1  A    between atoms: C_3  and  N_4 
REMARK       I    between atoms: N_4  and  C_5 
REMARK       I    between atoms: C_5  and  N_6 
REMARK    2  A    between atoms: N_6  and  C_7 
REMARK    3  A    between atoms: C_7  and  C_8 
REMARK    4  A    between atoms: C_10  and  O_11 
REMARK    5  A    between atoms: O_11  and  C_12 
ROOT
HETATM    1  N   UNL     1      42.365 -15.331   4.082  1.00  0.00    -0.308 N 
HETATM    2  C   UNL     1      41.044 -15.081   3.774  1.00  0.00     0.321 C 
HETATM    3  N   UNL     1      40.826 -13.729   3.625  1.00  0.00    -0.339 N 
HETATM    4  O   UNL     1      40.168 -15.916   3.602  1.00  0.00    -0.247 OA
HETATM    5  H   UNL     1      42.986 -14.683   3.623  1.00  0.00     0.170 HD
HETATM    6  H   UNL     1      41.496 -13.103   4.046  1.00  0.00     0.164 HD
ENDROOT
BRANCH   3   7
HETATM    7  C   UNL     1      39.497 -13.213   3.373  1.00  0.00     0.163 C 
BRANCH   7   8
HETATM    8  C   UNL     1      39.446 -12.201   2.258  1.00  0.00    -0.035 A 
HETATM    9  C   UNL     1      39.421 -12.576   0.910  1.00  0.00     0.066 A 
HETATM   10  C   UNL     1      39.313 -11.589  -0.057  1.00  0.00     0.164 A 
HETATM   11  N   UNL     1      39.215 -10.272   0.214  1.00  0.00    -0.237 NA
HETATM   12  C   UNL     1      39.217  -9.930   1.517  1.00  0.00     0.120 A 
HETATM   13  C   UNL     1      39.326 -10.840   2.559  1.00  0.00     0.028 A 
BRANCH  10  14
HETATM   14  O   UNL     1      39.314 -12.012  -1.374  1.00  0.00    -0.329 OA
BRANCH  14  15
HETATM   15  C   UNL     1      38.897 -13.374  -1.605  1.00  0.00     0.130 C 
HETATM   16  C   UNL     1      37.759 -13.604  -2.634  1.00  0.00     0.032 C 
HETATM   17  C   UNL     1      38.535 -14.841  -3.122  1.00  0.00     0.005 C 
HETATM   18  C   UNL     1      39.809 -14.172  -2.575  1.00  0.00     0.032 C 
ENDBRANCH  14  15
ENDBRANCH  10  14
ENDBRANCH   7   8
ENDBRANCH   3   7
BRANCH   1  19
HETATM   19  C   UNL     1      42.907 -16.603   4.402  1.00  0.00     0.048 A 
HETATM   20  C   UNL     1      43.440 -17.377   3.341  1.00  0.00    -0.033 A 
HETATM   21  C   UNL     1      43.443 -16.899   1.912  1.00  0.00     0.050 C 
HETATM   22  C   UNL     1      43.959 -18.657   3.603  1.00  0.00     0.033 A 
HETATM   23  C   UNL     1      43.966 -19.163   4.896  1.00  0.00     0.035 A 
HETATM   24  C   UNL     1      43.487 -18.394   5.948  1.00  0.00     0.033 A 
HETATM   25 CL   UNL     1      44.592 -20.737   5.198  1.00  0.00    -0.084 Cl
HETATM   26  C   UNL     1      42.984 -17.097   5.726  1.00  0.00    -0.033 A 
HETATM   27  C   UNL     1      42.592 -16.316   6.952  1.00  0.00     0.050 C 
ENDBRANCH   1  19
TORSDOF 5
ENDMDL
MODEL 4
REMARK VINA RESULT:      -7.7      5.122      7.884
REMARK  5 active torsions:
REMARK  status: ('A' for Active; 'I' for Inactive)
REMARK    1  A    between atoms: C_3  and  N_4 
REMARK       I    between atoms: N_4  and  C_5 
REMARK       I    between atoms: C_5  and  N_6 
REMARK    2  A    between atoms: N_6  and  C_7 
REMARK    3  A    between atoms: C_7  and  C_8 
REMARK    4  A    between atoms: C_10  and  O_11 
REMARK    5  A    between atoms: O_11  and  C_12 
ROOT
HETATM    1  N   UNL     1      42.665 -15.219   4.550  1.00  0.00    -0.308 N 
HETATM    2  C   UNL     1      41.362 -14.812   4.352  1.00  0.00     0.321 C 
HETATM    3  N   UNL     1      41.262 -13.440   4.430  1.00  0.00    -0.339 N 
HETATM    4  O   UNL     1      40.408 -15.532   4.093  1.00  0.00    -0.247 OA
HETATM    5  H   UNL     1      43.324 -14.559   4.169  1.00  0.00     0.170 HD
HETATM    6  H   UNL     1      42.000 -12.950   4.911  1.00  0.00     0.164 HD
ENDROOT
BRANCH   3   7
HETATM    7  C   UNL     1      39.976 -12.781   4.329  1.00  0.00     0.163 C 
BRANCH   7   8
HETATM    8  C   UNL     1      39.771 -12.062   3.021  1.00  0.00    -0.035 A 
HETATM    9  C   UNL     1      40.375 -12.487   1.833  1.00  0.00     0.066 A 
HETATM   10  C   UNL     1      40.090 -11.809   0.658  1.00  0.00     0.164 A 
HETATM   11  N   UNL     1      39.247 -10.759   0.576  1.00  0.00    -0.237 NA
HETATM   12  C   UNL     1      38.656 -10.378   1.725  1.00  0.00     0.120 A 
HETATM   13  C   UNL     1      38.879 -10.986   2.951  1.00  0.00     0.028 A 
BRANCH  10  14
HETATM   14  O   UNL     1      40.728 -12.257  -0.484  1.00  0.00    -0.329 OA
BRANCH  14  15
HETATM   15  C   UNL     1      39.874 -12.731  -1.546  1.00  0.00     0.130 C 
HETATM   16  C   UNL     1      40.559 -13.425  -2.753  1.00  0.00     0.032 C 
HETATM   17  C   UNL     1      39.396 -14.432  -2.755  1.00  0.00     0.005 C 
HETATM   18  C   UNL     1      39.195 -14.098  -1.266  1.00  0.00     0.032 C 
ENDBRANCH  14  15
ENDBRANCH  10  14
ENDBRANCH   7   8
ENDBRANCH   3   7
BRANCH   1  19
HETATM   19  C   UNL     1      43.099 -16.567   4.638  1.00  0.00     0.048 A 
HETATM   20  C   UNL     1      43.149 -17.159   5.925  1.00  0.00    -0.033 A 
HETATM   21  C   UNL     1      42.766 -16.412   7.176  1.00  0.00     0.050 C 
HETATM   22  C   UNL     1      43.603 -18.482   6.068  1.00  0.00     0.033 A 
HETATM   23  C   UNL     1      43.991 -19.218   4.955  1.00  0.00     0.035 A 
HETATM   24  C   UNL     1      43.903 -18.661   3.686  1.00  0.00     0.033 A 
HETATM   25 CL   UNL     1      44.557 -20.831   5.148  1.00  0.00    -0.084 Cl
HETATM   26  C   UNL     1      43.427 -17.347   3.504  1.00  0.00    -0.033 A 
HETATM   27  C   UNL     1      43.274 -16.886   2.079  1.00  0.00     0.050 C 
ENDBRANCH   1  19
TORSDOF 5
ENDMDL
MODEL 5
REMARK VINA RESULT:      -7.7      2.102      3.359
REMARK  5 active torsions:
REMARK  status: ('A' for Active; 'I' for Inactive)
REMARK    1  A    between atoms: C_3  and  N_4 
REMARK       I    between atoms: N_4  and  C_5 
REMARK       I    between atoms: C_5  and  N_6 
REMARK    2  A    between atoms: N_6  and  C_7 
REMARK    3  A    between atoms: C_7  and  C_8 
REMARK    4  A    between atoms: C_10  and  O_11 
REMARK    5  A    between atoms: O_11  and  C_12 
ROOT
HETATM    1  N   UNL     1      43.047 -15.152   4.445  1.00  0.00    -0.308 N 
HETATM    2  C   UNL     1      41.782 -14.605   4.492  1.00  0.00     0.321 C 
HETATM    3  N   UNL     1      41.845 -13.252   4.742  1.00  0.00    -0.339 N 
HETATM    4  O   UNL     1      40.729 -15.194   4.298  1.00  0.00    -0.247 OA
HETATM    5  H   UNL     1      43.717 -14.512   4.049  1.00  0.00     0.170 HD
HETATM    6  H   UNL     1      42.692 -12.898   5.161  1.00  0.00     0.164 HD
ENDROOT
BRANCH   3   7
HETATM    7  C   UNL     1      40.638 -12.470   4.911  1.00  0.00     0.163 C 
BRANCH   7   8
HETATM    8  C   UNL     1      40.741 -11.433   5.999  1.00  0.00    -0.035 A 
HETATM    9  C   UNL     1      41.952 -10.814   6.327  1.00  0.00     0.066 A 
HETATM   10  C   UNL     1      41.957  -9.825   7.300  1.00  0.00     0.164 A 
HETATM   11  N   UNL     1      40.855  -9.402   7.952  1.00  0.00    -0.237 NA
HETATM   12  C   UNL     1      39.693  -9.991   7.606  1.00  0.00     0.120 A 
HETATM   13  C   UNL     1      39.585 -10.992   6.652  1.00  0.00     0.028 A 
BRANCH  10  14
HETATM   14  O   UNL     1      43.182  -9.261   7.602  1.00  0.00    -0.329 OA
BRANCH  14  15
HETATM   15  C   UNL     1      44.034 -10.025   8.482  1.00  0.00     0.130 C 
HETATM   16  C   UNL     1      45.439  -9.442   8.792  1.00  0.00     0.032 C 
HETATM   17  C   UNL     1      45.245  -9.914  10.244  1.00  0.00     0.005 C 
HETATM   18  C   UNL     1      43.728  -9.843   9.992  1.00  0.00     0.032 C 
ENDBRANCH  14  15
ENDBRANCH  10  14
ENDBRANCH   7   8
ENDBRANCH   3   7
BRANCH   1  19
HETATM   19  C   UNL     1      43.340 -16.534   4.311  1.00  0.00     0.048 A 
HETATM   20  C   UNL     1      43.362 -17.077   3.001  1.00  0.00    -0.033 A 
HETATM   21  C   UNL     1      43.084 -16.247   1.775  1.00  0.00     0.050 C 
HETATM   22  C   UNL     1      43.616 -18.448   2.818  1.00  0.00     0.033 A 
HETATM   23  C   UNL     1      43.858 -19.271   3.910  1.00  0.00     0.035 A 
HETATM   24  C   UNL     1      43.882 -18.739   5.192  1.00  0.00     0.033 A 
HETATM   25 CL   UNL     1      44.153 -20.949   3.670  1.00  0.00    -0.084 Cl
HETATM   26  C   UNL     1      43.659 -17.366   5.410  1.00  0.00    -0.033 A 
HETATM   27  C   UNL     1      43.816 -16.882   6.828  1.00  0.00     0.050 C 
ENDBRANCH   1  19
TORSDOF 5
ENDMDL
MODEL 6
REMARK VINA RESULT:      -7.5      1.794      2.420
REMARK  5 active torsions:
REMARK  status: ('A' for Active; 'I' for Inactive)
REMARK    1  A    between atoms: C_3  and  N_4 
REMARK       I    between atoms: N_4  and  C_5 
REMARK       I    between atoms: C_5  and  N_6 
REMARK    2  A    between atoms: N_6  and  C_7 
REMARK    3  A    between atoms: C_7  and  C_8 
REMARK    4  A    between atoms: C_10  and  O_11 
REMARK    5  A    between atoms: O_11  and  C_12 
ROOT
HETATM    1  N   UNL     1      42.362 -13.491   6.061  1.00  0.00    -0.308 N 
HETATM    2  C   UNL     1      43.161 -12.387   6.269  1.00  0.00     0.321 C 
HETATM    3  N   UNL     1      42.438 -11.362   6.838  1.00  0.00    -0.339 N 
HETATM    4  O   UNL     1      44.359 -12.303   6.037  1.00  0.00    -0.247 OA
HETATM    5  H   UNL     1      41.669 -13.593   6.785  1.00  0.00     0.170 HD
HETATM    6  H   UNL     1      41.435 -11.394   6.740  1.00  0.00     0.164 HD
ENDROOT
BRANCH   3   7
HETATM    7  C   UNL     1      43.045 -10.070   7.082  1.00  0.00     0.163 C 
BRANCH   7   8
HETATM    8  C   UNL     1      43.453  -9.859   8.517  1.00  0.00    -0.035 A 
HETATM    9  C   UNL     1      42.556  -9.400   9.488  1.00  0.00     0.066 A 
HETATM   10  C   UNL     1      42.989  -9.289  10.800  1.00  0.00     0.164 A 
HETATM   11  N   UNL     1      44.231  -9.611  11.216  1.00  0.00    -0.237 NA
HETATM   12  C   UNL     1      45.075 -10.074  10.273  1.00  0.00     0.120 A 
HETATM   13  C   UNL     1      44.740 -10.216   8.935  1.00  0.00     0.028 A 
BRANCH  10  14
HETATM   14  O   UNL     1      42.070  -8.810  11.716  1.00  0.00    -0.329 OA
BRANCH  14  15
HETATM   15  C   UNL     1      42.463  -8.873  13.103  1.00  0.00     0.130 C 
HETATM   16  C   UNL     1      42.844  -7.537  13.795  1.00  0.00     0.032 C 
HETATM   17  C   UNL     1      42.102  -8.044  15.044  1.00  0.00     0.005 C 
HETATM   18  C   UNL     1      41.281  -8.946  14.105  1.00  0.00     0.032 C 
ENDBRANCH  14  15
ENDBRANCH  10  14
ENDBRANCH   7   8
ENDBRANCH   3   7
BRANCH   1  19
HETATM   19  C   UNL     1      42.761 -14.681   5.398  1.00  0.00     0.048 A 
HETATM   20  C   UNL     1      43.030 -15.821   6.199  1.00  0.00    -0.033 A 
HETATM   21  C   UNL     1      42.910 -15.802   7.701  1.00  0.00     0.050 C 
HETATM   22  C   UNL     1      43.459 -17.014   5.592  1.00  0.00     0.033 A 
HETATM   23  C   UNL     1      43.609 -17.089   4.213  1.00  0.00     0.035 A 
HETATM   24  C   UNL     1      43.305 -15.992   3.419  1.00  0.00     0.033 A 
HETATM   25 CL   UNL     1      44.149 -18.553   3.487  1.00  0.00    -0.084 Cl
HETATM   26  C   UNL     1      42.847 -14.789   3.990  1.00  0.00    -0.033 A 
HETATM   27  C   UNL     1      42.447 -13.703   3.026  1.00  0.00     0.050 C 
ENDBRANCH   1  19
TORSDOF 5
ENDMDL
MODEL 7
REMARK VINA RESULT:      -7.3      2.168      3.249
REMARK  5 active torsions:
REMARK  status: ('A' for Active; 'I' for Inactive)
REMARK    1  A    between atoms: C_3  and  N_4 
REMARK       I    between atoms: N_4  and  C_5 
REMARK       I    between atoms: C_5  and  N_6 
REMARK    2  A    between atoms: N_6  and  C_7 
REMARK    3  A    between atoms: C_7  and  C_8 
REMARK    4  A    between atoms: C_10  and  O_11 
REMARK    5  A    between atoms: O_11  and  C_12 
ROOT
HETATM    1  N   UNL     1      42.526 -12.950   6.065  1.00  0.00    -0.308 N 
HETATM    2  C   UNL     1      43.630 -12.493   6.754  1.00  0.00     0.321 C 
HETATM    3  N   UNL     1      43.349 -11.303   7.390  1.00  0.00    -0.339 N 
HETATM    4  O   UNL     1      44.711 -13.056   6.850  1.00  0.00    -0.247 OA
HETATM    5  H   UNL     1      41.668 -12.729   6.544  1.00  0.00     0.170 HD
HETATM    6  H   UNL     1      42.565 -10.770   7.048  1.00  0.00     0.164 HD
ENDROOT
BRANCH   3   7
HETATM    7  C   UNL     1      44.378 -10.589   8.118  1.00  0.00     0.163 C 
BRANCH   7   8
HETATM    8  C   UNL     1      43.833  -9.535   9.047  1.00  0.00    -0.035 A 
HETATM    9  C   UNL     1      43.782  -9.718  10.433  1.00  0.00     0.066 A 
HETATM   10  C   UNL     1      43.323  -8.678  11.228  1.00  0.00     0.164 A 
HETATM   11  N   UNL     1      42.930  -7.479  10.753  1.00  0.00    -0.237 NA
HETATM   12  C   UNL     1      43.009  -7.312   9.418  1.00  0.00     0.120 A 
HETATM   13  C   UNL     1      43.447  -8.290   8.538  1.00  0.00     0.028 A 
BRANCH  10  14
HETATM   14  O   UNL     1      43.272  -8.918  12.589  1.00  0.00    -0.329 OA
BRANCH  14  15
HETATM   15  C   UNL     1      42.468  -8.005  13.366  1.00  0.00     0.130 C 
HETATM   16  C   UNL     1      41.803  -8.562  14.653  1.00  0.00     0.032 C 
HETATM   17  C   UNL     1      42.146  -7.226  15.334  1.00  0.00     0.005 C 
HETATM   18  C   UNL     1      43.277  -7.069  14.302  1.00  0.00     0.032 C 
ENDBRANCH  14  15
ENDBRANCH  10  14
ENDBRANCH   7   8
ENDBRANCH   3   7
BRANCH   1  19
HETATM   19  C   UNL     1      42.501 -14.090   5.219  1.00  0.00     0.048 A 
HETATM   20  C   UNL     1      42.807 -13.898   3.848  1.00  0.00    -0.033 A 
HETATM   21  C   UNL     1      43.148 -12.546   3.276  1.00  0.00     0.050 C 
HETATM   22  C   UNL     1      42.765 -14.990   2.964  1.00  0.00     0.033 A 
HETATM   23  C   UNL     1      42.437 -16.258   3.426  1.00  0.00     0.035 A 
HETATM   24  C   UNL     1      42.179 -16.463   4.775  1.00  0.00     0.033 A 
HETATM   25 CL   UNL     1      42.376 -17.582   2.329  1.00  0.00    -0.084 Cl
HETATM   26  C   UNL     1      42.239 -15.397   5.694  1.00  0.00    -0.033 A 
HETATM   27  C   UNL     1      42.047 -15.755   7.144  1.00  0.00     0.050 C 
ENDBRANCH   1  19
TORSDOF 5
ENDMDL
MODEL 8
REMARK VINA RESULT:      -7.3      3.738      9.031
REMARK  5 active torsions:
REMARK  status: ('A' for Active; 'I' for Inactive)
REMARK    1  A    between atoms: C_3  and  N_4 
REMARK       I    between atoms: N_4  and  C_5 
REMARK       I    between atoms: C_5  and  N_6 
REMARK    2  A    between atoms: N_6  and  C_7 
REMARK    3  A    between atoms: C_7  and  C_8 
REMARK    4  A    between atoms: C_10  and  O_11 
REMARK    5  A    between atoms: O_11  and  C_12 
ROOT
HETATM    1  N   UNL     1      43.368  -9.661   8.192  1.00  0.00    -0.308 N 
HETATM    2  C   UNL     1      43.746 -10.869   7.644  1.00  0.00     0.321 C 
HETATM    3  N   UNL     1      43.884 -10.762   6.278  1.00  0.00    -0.339 N 
HETATM    4  O   UNL     1      43.980 -11.902   8.255  1.00  0.00    -0.247 OA
HETATM    5  H   UNL     1      43.781  -8.883   7.703  1.00  0.00     0.170 HD
HETATM    6  H   UNL     1      43.415  -9.993   5.825  1.00  0.00     0.164 HD
ENDROOT
BRANCH   3   7
HETATM    7  C   UNL     1      44.202 -11.922   5.470  1.00  0.00     0.163 C 
BRANCH   7   8
HETATM    8  C   UNL     1      42.986 -12.658   4.970  1.00  0.00    -0.035 A 
HETATM    9  C   UNL     1      42.954 -14.051   4.851  1.00  0.00     0.066 A 
HETATM   10  C   UNL     1      41.777 -14.660   4.441  1.00  0.00     0.164 A 
HETATM   11  N   UNL     1      40.639 -13.994   4.158  1.00  0.00    -0.237 NA
HETATM   12  C   UNL     1      40.681 -12.655   4.301  1.00  0.00     0.120 A 
HETATM   13  C   UNL     1      41.808 -11.951   4.699  1.00  0.00     0.028 A 
BRANCH  10  14
HETATM   14  O   UNL     1      41.805 -16.037   4.319  1.00  0.00    -0.329 OA
BRANCH  14  15
HETATM   15  C   UNL     1      42.918 -16.588   3.583  1.00  0.00     0.130 C 
HETATM   16  C   UNL     1      43.691 -17.764   4.238  1.00  0.00     0.032 C 
HETATM   17  C   UNL     1      43.774 -18.405   2.842  1.00  0.00     0.005 C 
HETATM   18  C   UNL     1      42.521 -17.593   2.470  1.00  0.00     0.032 C 
ENDBRANCH  14  15
ENDBRANCH  10  14
ENDBRANCH   7   8
ENDBRANCH   3   7
BRANCH   1  19
HETATM   19  C   UNL     1      43.039  -9.445   9.556  1.00  0.00     0.048 A 
HETATM   20  C   UNL     1      44.108  -9.319  10.478  1.00  0.00    -0.033 A 
HETATM   21  C   UNL     1      45.553  -9.410  10.061  1.00  0.00     0.050 C 
HETATM   22  C   UNL     1      43.833  -9.135  11.845  1.00  0.00     0.033 A 
HETATM   23  C   UNL     1      42.521  -9.064  12.296  1.00  0.00     0.035 A 
HETATM   24  C   UNL     1      41.469  -9.142  11.394  1.00  0.00     0.033 A 
HETATM   25 CL   UNL     1      42.201  -8.853  13.973  1.00  0.00    -0.084 Cl
HETATM   26  C   UNL     1      41.708  -9.299  10.014  1.00  0.00    -0.033 A 
HETATM   27  C   UNL     1      40.497  -9.264   9.120  1.00  0.00     0.050 C 
ENDBRANCH   1  19
TORSDOF 5
ENDMDL
MODEL 9
REMARK VINA RESULT:      -7.3      5.670      8.983
REMARK  5 active torsions:
REMARK  status: ('A' for Active; 'I' for Inactive)
REMARK    1  A    between atoms: C_3  and  N_4 
REMARK       I    between atoms: N_4  and  C_5 
REMARK       I    between atoms: C_5  and  N_6 
REMARK    2  A    between atoms: N_6  and  C_7 
REMARK    3  A    between atoms: C_7  and  C_8 
REMARK    4  A    between atoms: C_10  and  O_11 
REMARK    5  A    between atoms: O_11  and  C_12 
ROOT
HETATM    1  N   UNL     1      42.356 -15.069   1.715  1.00  0.00    -0.308 N 
HETATM    2  C   UNL     1      41.078 -15.207   1.213  1.00  0.00     0.321 C 
HETATM    3  N   UNL     1      40.961 -14.568  -0.002  1.00  0.00    -0.339 N 
HETATM    4  O   UNL     1      40.163 -15.839   1.721  1.00  0.00    -0.247 OA
HETATM    5  H   UNL     1      43.047 -15.068   0.983  1.00  0.00     0.170 HD
HETATM    6  H   UNL     1      41.639 -13.854  -0.216  1.00  0.00     0.164 HD
ENDROOT
BRANCH   3   7
HETATM    7  C   UNL     1      39.688 -14.510  -0.691  1.00  0.00     0.163 C 
BRANCH   7   8
HETATM    8  C   UNL     1      39.277 -13.113  -1.076  1.00  0.00    -0.035 A 
HETATM    9  C   UNL     1      40.078 -11.998  -0.806  1.00  0.00     0.066 A 
HETATM   10  C   UNL     1      39.660 -10.751  -1.245  1.00  0.00     0.164 A 
HETATM   11  N   UNL     1      38.522 -10.535  -1.937  1.00  0.00    -0.237 NA
HETATM   12  C   UNL     1      37.774 -11.623  -2.209  1.00  0.00     0.120 A 
HETATM   13  C   UNL     1      38.102 -12.910  -1.810  1.00  0.00     0.028 A 
BRANCH  10  14
HETATM   14  O   UNL     1      40.477  -9.680  -0.934  1.00  0.00    -0.329 OA
BRANCH  14  15
HETATM   15  C   UNL     1      41.451  -9.313  -1.934  1.00  0.00     0.130 C 
HETATM   16  C   UNL     1      41.112  -8.103  -2.845  1.00  0.00     0.032 C 
HETATM   17  C   UNL     1      42.587  -7.680  -2.727  1.00  0.00     0.005 C 
HETATM   18  C   UNL     1      42.632  -8.459  -1.400  1.00  0.00     0.032 C 
ENDBRANCH  14  15
ENDBRANCH  10  14
ENDBRANCH   7   8
ENDBRANCH   3   7
BRANCH   1  19
HETATM   19  C   UNL     1      42.789 -15.515   2.991  1.00  0.00     0.048 A 
HETATM   20  C   UNL     1      42.775 -14.577   4.054  1.00  0.00    -0.033 A 
HETATM   21  C   UNL     1      42.328 -13.150   3.871  1.00  0.00     0.050 C 
HETATM   22  C   UNL     1      43.225 -14.962   5.330  1.00  0.00     0.033 A 
HETATM   23  C   UNL     1      43.669 -16.257   5.559  1.00  0.00     0.035 A 
HETATM   24  C   UNL     1      43.644 -17.194   4.535  1.00  0.00     0.033 A 
HETATM   25 CL   UNL     1      44.229 -16.708   7.122  1.00  0.00    -0.084 Cl
HETATM   26  C   UNL     1      43.175 -16.851   3.251  1.00  0.00    -0.033 A 
HETATM   27  C   UNL     1      43.092 -17.973   2.250  1.00  0.00     0.050 C 
ENDBRANCH   1  19
TORSDOF 5
ENDMDL
MODEL 10
REMARK VINA RESULT:      -7.2      4.120      9.758
REMARK  5 active torsions:
REMARK  status: ('A' for Active; 'I' for Inactive)
REMARK    1  A    between atoms: C_3  and  N_4 
REMARK       I    between atoms: N_4  and  C_5 
REMARK       I    between atoms: C_5  and  N_6 
REMARK    2  A    between atoms: N_6  and  C_7 
REMARK    3  A    between atoms: C_7  and  C_8 
REMARK    4  A    between atoms: C_10  and  O_11 
REMARK    5  A    between atoms: O_11  and  C_12 
ROOT
HETATM    1  N   UNL     1      41.644  -9.726   9.275  1.00  0.00    -0.308 N 
HETATM    2  C   UNL     1      42.305  -9.632   8.068  1.00  0.00     0.321 C 
HETATM    3  N   UNL     1      41.774 -10.513   7.151  1.00  0.00    -0.339 N 
HETATM    4  O   UNL     1      43.209  -8.856   7.794  1.00  0.00    -0.247 OA
HETATM    5  H   UNL     1      40.664  -9.925   9.150  1.00  0.00     0.170 HD
HETATM    6  H   UNL     1      41.246 -11.292   7.512  1.00  0.00     0.164 HD
ENDROOT
BRANCH   3   7
HETATM    7  C   UNL     1      42.353 -10.650   5.831  1.00  0.00     0.163 C 
BRANCH   7   8
HETATM    8  C   UNL     1      41.908 -11.894   5.106  1.00  0.00    -0.035 A 
HETATM    9  C   UNL     1      42.781 -12.953   4.835  1.00  0.00     0.066 A 
HETATM   10  C   UNL     1      42.283 -14.090   4.218  1.00  0.00     0.164 A 
HETATM   11  N   UNL     1      40.991 -14.255   3.867  1.00  0.00    -0.237 NA
HETATM   12  C   UNL     1      40.159 -13.236   4.157  1.00  0.00     0.120 A 
HETATM   13  C   UNL     1      40.560 -12.056   4.766  1.00  0.00     0.028 A 
BRANCH  10  14
HETATM   14  O   UNL     1      43.192 -15.098   3.954  1.00  0.00    -0.329 OA
BRANCH  14  15
HETATM   15  C   UNL     1      42.655 -16.298   3.359  1.00  0.00     0.130 C 
HETATM   16  C   UNL     1      43.109 -16.640   1.915  1.00  0.00     0.032 C 
HETATM   17  C   UNL     1      43.177 -18.114   2.351  1.00  0.00     0.005 C 
HETATM   18  C   UNL     1      43.368 -17.607   3.792  1.00  0.00     0.032 C 
ENDBRANCH  14  15
ENDBRANCH  10  14
ENDBRANCH   7   8
ENDBRANCH   3   7
BRANCH   1  19
HETATM   19  C   UNL     1      42.001  -9.038  10.463  1.00  0.00     0.048 A 
HETATM   20  C   UNL     1      41.217  -7.916  10.834  1.00  0.00    -0.033 A 
HETATM   21  C   UNL     1      40.043  -7.442  10.017  1.00  0.00     0.050 C 
HETATM   22  C   UNL     1      41.551  -7.182  11.986  1.00  0.00     0.033 A 
HETATM   23  C   UNL     1      42.634  -7.555  12.770  1.00  0.00     0.035 A 
HETATM   24  C   UNL     1      43.380  -8.678  12.439  1.00  0.00     0.033 A 
HETATM   25 CL   UNL     1      43.037  -6.637  14.169  1.00  0.00    -0.084 Cl
HETATM   26  C   UNL     1      43.058  -9.453  11.307  1.00  0.00    -0.033 A 
HETATM   27  C   UNL     1      43.868 -10.707  11.106  1.00  0.00     0.050 C 
ENDBRANCH   1  19
TORSDOF 5
ENDMDL
