MODEL 1
REMARK VINA RESULT:      -8.7      0.000      0.000
REMARK  5 active torsions:
REMARK  status: ('A' for Active; 'I' for Inactive)
REMARK    1  A    between atoms: O_2  and  C_3 
REMARK    2  A    between atoms: C_4  and  N_5 
REMARK    3  A    between atoms: N_5  and  C_6 
REMARK    4  A    between atoms: C_6  and  C_7 
REMARK    5  A    between atoms: C_15  and  C_16 
ROOT
HETATM    1  C   UNL     1      41.089 -14.633   2.535  1.00  0.00     0.120 A 
HETATM    2  N   UNL     1      41.231 -15.853   2.119  1.00  0.00    -0.233 NA
HETATM    3  C   UNL     1      42.156 -16.674   2.780  1.00  0.00     0.075 A 
HETATM    4  C   UNL     1      42.891 -16.242   3.885  1.00  0.00     0.061 A 
HETATM    5  C   UNL     1      42.674 -14.860   4.344  1.00  0.00     0.259 A 
HETATM    6  O   UNL     1      43.280 -14.388   5.298  1.00  0.00    -0.267 OA
HETATM    7  N   UNL     1      41.766 -14.133   3.621  1.00  0.00    -0.310 N 
HETATM    8  C   UNL     1      42.376 -17.963   2.289  1.00  0.00     0.048 A 
HETATM    9  C   UNL     1      43.315 -18.818   2.891  1.00  0.00     0.050 A 
HETATM   10  C   UNL     1      44.035 -18.360   4.008  1.00  0.00     0.017 A 
HETATM   11  C   UNL     1      43.824 -17.075   4.509  1.00  0.00     0.020 A 
HETATM   12  H   UNL     1      41.675 -13.161   3.881  1.00  0.00     0.170 HD
ENDROOT
BRANCH   1  13
HETATM   13  C   UNL     1      40.158 -13.655   1.825  1.00  0.00     0.171 C 
BRANCH  13  14
HETATM   14  N   UNL     1      39.687 -14.167   0.522  1.00  0.00    -0.284 NA
HETATM   15  H   UNL     1      38.668 -14.086   0.505  1.00  0.00     0.128 HD
BRANCH  14  16
HETATM   16  C   UNL     1      40.156 -13.415  -0.586  1.00  0.00     0.042 A 
HETATM   17  C   UNL     1      39.834 -13.796  -1.904  1.00  0.00     0.089 A 
HETATM   18  C   UNL     1      40.235 -12.998  -2.979  1.00  0.00     0.038 A 
HETATM   19  C   UNL     1      40.975 -11.834  -2.749  1.00  0.00     0.003 A 
HETATM   20  C   UNL     1      41.315 -11.465  -1.450  1.00  0.00     0.002 A 
HETATM   21  C   UNL     1      40.905 -12.252  -0.374  1.00  0.00     0.026 A 
BRANCH  17  22
HETATM   22  O   UNL     1      39.093 -14.946  -2.034  1.00  0.00    -0.354 OA
HETATM   23  C   UNL     1      38.308 -15.017  -3.221  1.00  0.00     0.210 C 
ENDBRANCH  17  22
ENDBRANCH  14  16
ENDBRANCH  13  14
ENDBRANCH   1  13
BRANCH   9  24
HETATM   24  C   UNL     1      43.580 -20.194   2.331  1.00  0.00     0.417 C 
HETATM   25  F   UNL     1      44.668 -20.253   1.514  1.00  0.00    -0.166 F 
HETATM   26  F   UNL     1      43.797 -21.115   3.311  1.00  0.00    -0.166 F 
HETATM   27  F   UNL     1      42.536 -20.667   1.597  1.00  0.00    -0.166 F 
ENDBRANCH   9  24
TORSDOF 5
ENDMDL
MODEL 2
REMARK VINA RESULT:      -8.6      1.130      2.034
REMARK  5 active torsions:
REMARK  status: ('A' for Active; 'I' for Inactive)
REMARK    1  A    between atoms: O_2  and  C_3 
REMARK    2  A    between atoms: C_4  and  N_5 
REMARK    3  A    between atoms: N_5  and  C_6 
REMARK    4  A    between atoms: C_6  and  C_7 
REMARK    5  A    between atoms: C_15  and  C_16 
ROOT
HETATM    1  C   UNL     1      41.495 -14.553   2.430  1.00  0.00     0.120 A 
HETATM    2  N   UNL     1      41.596 -15.775   2.009  1.00  0.00    -0.233 NA
HETATM    3  C   UNL     1      42.389 -16.665   2.749  1.00  0.00     0.075 A 
HETATM    4  C   UNL     1      43.032 -16.296   3.931  1.00  0.00     0.061 A 
HETATM    5  C   UNL     1      42.863 -14.907   4.388  1.00  0.00     0.259 A 
HETATM    6  O   UNL     1      43.396 -14.487   5.408  1.00  0.00    -0.267 OA
HETATM    7  N   UNL     1      42.086 -14.112   3.589  1.00  0.00    -0.310 N 
HETATM    8  C   UNL     1      42.571 -17.961   2.261  1.00  0.00     0.048 A 
HETATM    9  C   UNL     1      43.382 -18.884   2.942  1.00  0.00     0.050 A 
HETATM   10  C   UNL     1      44.010 -18.489   4.136  1.00  0.00     0.017 A 
HETATM   11  C   UNL     1      43.836 -17.198   4.634  1.00  0.00     0.020 A 
HETATM   12  H   UNL     1      42.035 -13.138   3.854  1.00  0.00     0.170 HD
ENDROOT
BRANCH   1  13
HETATM   13  C   UNL     1      40.712 -13.505   1.644  1.00  0.00     0.171 C 
BRANCH  13  14
HETATM   14  N   UNL     1      41.369 -13.145   0.371  1.00  0.00    -0.284 NA
HETATM   15  H   UNL     1      42.178 -13.759   0.252  1.00  0.00     0.128 HD
BRANCH  14  16
HETATM   16  C   UNL     1      40.550 -13.356  -0.769  1.00  0.00     0.042 A 
HETATM   17  C   UNL     1      40.608 -12.478  -1.870  1.00  0.00     0.089 A 
HETATM   18  C   UNL     1      39.856 -12.747  -3.017  1.00  0.00     0.038 A 
HETATM   19  C   UNL     1      39.029 -13.873  -3.063  1.00  0.00     0.003 A 
HETATM   20  C   UNL     1      38.951 -14.731  -1.969  1.00  0.00     0.002 A 
HETATM   21  C   UNL     1      39.710 -14.473  -0.828  1.00  0.00     0.026 A 
BRANCH  17  22
HETATM   22  O   UNL     1      41.458 -11.406  -1.741  1.00  0.00    -0.354 OA
HETATM   23  C   UNL     1      40.816 -10.134  -1.748  1.00  0.00     0.210 C 
ENDBRANCH  17  22
ENDBRANCH  14  16
ENDBRANCH  13  14
ENDBRANCH   1  13
BRANCH   9  24
HETATM   24  C   UNL     1      43.610 -20.270   2.390  1.00  0.00     0.417 C 
HETATM   25  F   UNL     1      43.850 -21.209   3.346  1.00  0.00    -0.166 F 
HETATM   26  F   UNL     1      42.541 -20.724   1.679  1.00  0.00    -0.166 F 
HETATM   27  F   UNL     1      44.673 -20.323   1.540  1.00  0.00    -0.166 F 
ENDBRANCH   9  24
TORSDOF 5
ENDMDL
MODEL 3
REMARK VINA RESULT:      -8.5      4.055      6.801
REMARK  5 active torsions:
REMARK  status: ('A' for Active; 'I' for Inactive)
REMARK    1  A    between atoms: O_2  and  C_3 
REMARK    2  A    between atoms: C_4  and  N_5 
REMARK    3  A    between atoms: N_5  and  C_6 
REMARK    4  A    between atoms: C_6  and  C_7 
REMARK    5  A    between atoms: C_15  and  C_16 
ROOT
HETATM    1  C   UNL     1      43.323 -14.702   5.642  1.00  0.00     0.120 A 
HETATM    2  N   UNL     1      43.644 -15.929   5.909  1.00  0.00    -0.233 NA
HETATM    3  C   UNL     1      43.630 -16.860   4.860  1.00  0.00     0.075 A 
HETATM    4  C   UNL     1      43.328 -16.507   3.545  1.00  0.00     0.061 A 
HETATM    5  C   UNL     1      43.000 -15.096   3.281  1.00  0.00     0.259 A 
HETATM    6  O   UNL     1      42.712 -14.693   2.161  1.00  0.00    -0.267 OA
HETATM    7  N   UNL     1      43.023 -14.270   4.372  1.00  0.00    -0.310 N 
HETATM    8  C   UNL     1      43.895 -18.200   5.153  1.00  0.00     0.048 A 
HETATM    9  C   UNL     1      43.862 -19.181   4.147  1.00  0.00     0.050 A 
HETATM   10  C   UNL     1      43.563 -18.796   2.829  1.00  0.00     0.017 A 
HETATM   11  C   UNL     1      43.298 -17.461   2.524  1.00  0.00     0.020 A 
HETATM   12  H   UNL     1      42.720 -13.319   4.211  1.00  0.00     0.170 HD
ENDROOT
BRANCH   1  13
HETATM   13  C   UNL     1      43.242 -13.644   6.739  1.00  0.00     0.171 C 
BRANCH  13  14
HETATM   14  N   UNL     1      43.136 -12.274   6.197  1.00  0.00    -0.284 NA
HETATM   15  H   UNL     1      42.188 -11.939   6.378  1.00  0.00     0.128 HD
BRANCH  14  16
HETATM   16  C   UNL     1      44.004 -11.346   6.828  1.00  0.00     0.042 A 
HETATM   17  C   UNL     1      43.489 -10.228   7.514  1.00  0.00     0.089 A 
HETATM   18  C   UNL     1      44.353  -9.371   8.200  1.00  0.00     0.038 A 
HETATM   19  C   UNL     1      45.731  -9.607   8.186  1.00  0.00     0.003 A 
HETATM   20  C   UNL     1      46.248 -10.697   7.490  1.00  0.00     0.002 A 
HETATM   21  C   UNL     1      45.387 -11.563   6.816  1.00  0.00     0.026 A 
BRANCH  17  22
HETATM   22  O   UNL     1      42.122 -10.082   7.486  1.00  0.00    -0.354 OA
HETATM   23  C   UNL     1      41.621  -9.017   8.289  1.00  0.00     0.210 C 
ENDBRANCH  17  22
ENDBRANCH  14  16
ENDBRANCH  13  14
ENDBRANCH   1  13
BRANCH   9  24
HETATM   24  C   UNL     1      44.106 -20.634   4.475  1.00  0.00     0.417 C 
HETATM   25  F   UNL     1      45.251 -20.852   5.180  1.00  0.00    -0.166 F 
HETATM   26  F   UNL     1      43.100 -21.171   5.219  1.00  0.00    -0.166 F 
HETATM   27  F   UNL     1      44.202 -21.409   3.360  1.00  0.00    -0.166 F 
ENDBRANCH   9  24
TORSDOF 5
ENDMDL
MODEL 4
REMARK VINA RESULT:      -8.5      3.648      7.639
REMARK  5 active torsions:
REMARK  status: ('A' for Active; 'I' for Inactive)
REMARK    1  A    between atoms: O_2  and  C_3 
REMARK    2  A    between atoms: C_4  and  N_5 
REMARK    3  A    between atoms: N_5  and  C_6 
REMARK    4  A    between atoms: C_6  and  C_7 
REMARK    5  A    between atoms: C_15  and  C_16 
ROOT
HETATM    1  C   UNL     1      41.076 -15.289   2.806  1.00  0.00     0.120 A 
HETATM    2  N   UNL     1      40.799 -15.527   1.563  1.00  0.00    -0.233 NA
HETATM    3  C   UNL     1      40.149 -14.526   0.826  1.00  0.00     0.075 A 
HETATM    4  C   UNL     1      39.832 -13.280   1.367  1.00  0.00     0.061 A 
HETATM    5  C   UNL     1      40.194 -13.040   2.774  1.00  0.00     0.259 A 
HETATM    6  O   UNL     1      39.947 -11.982   3.340  1.00  0.00    -0.267 OA
HETATM    7  N   UNL     1      40.807 -14.085   3.412  1.00  0.00    -0.310 N 
HETATM    8  C   UNL     1      39.773 -14.802  -0.490  1.00  0.00     0.048 A 
HETATM    9  C   UNL     1      39.089 -13.849  -1.264  1.00  0.00     0.050 A 
HETATM   10  C   UNL     1      38.790 -12.598  -0.697  1.00  0.00     0.017 A 
HETATM   11  C   UNL     1      39.161 -12.310   0.617  1.00  0.00     0.020 A 
HETATM   12  H   UNL     1      40.983 -13.955   4.399  1.00  0.00     0.170 HD
ENDROOT
BRANCH   1  13
HETATM   13  C   UNL     1      41.716 -16.351   3.695  1.00  0.00     0.171 C 
BRANCH  13  14
HETATM   14  N   UNL     1      43.105 -16.659   3.299  1.00  0.00    -0.284 NA
HETATM   15  H   UNL     1      43.728 -16.238   3.991  1.00  0.00     0.128 HD
BRANCH  14  16
HETATM   16  C   UNL     1      43.401 -18.047   3.302  1.00  0.00     0.042 A 
HETATM   17  C   UNL     1      43.968 -18.661   4.437  1.00  0.00     0.089 A 
HETATM   18  C   UNL     1      44.176 -20.042   4.453  1.00  0.00     0.038 A 
HETATM   19  C   UNL     1      43.844 -20.813   3.335  1.00  0.00     0.003 A 
HETATM   20  C   UNL     1      43.305 -20.208   2.202  1.00  0.00     0.002 A 
HETATM   21  C   UNL     1      43.083 -18.832   2.188  1.00  0.00     0.026 A 
BRANCH  17  22
HETATM   22  O   UNL     1      44.249 -17.827   5.494  1.00  0.00    -0.354 OA
HETATM   23  C   UNL     1      43.391 -17.986   6.621  1.00  0.00     0.210 C 
ENDBRANCH  17  22
ENDBRANCH  14  16
ENDBRANCH  13  14
ENDBRANCH   1  13
BRANCH   9  24
HETATM   24  C   UNL     1      38.647 -14.167  -2.672  1.00  0.00     0.417 C 
HETATM   25  F   UNL     1      39.268 -13.417  -3.624  1.00  0.00    -0.166 F 
HETATM   26  F   UNL     1      38.882 -15.466  -3.005  1.00  0.00    -0.166 F 
HETATM   27  F   UNL     1      37.312 -13.969  -2.854  1.00  0.00    -0.166 F 
ENDBRANCH   9  24
TORSDOF 5
ENDMDL
MODEL 5
REMARK VINA RESULT:      -8.1      3.839      5.265
REMARK  5 active torsions:
REMARK  status: ('A' for Active; 'I' for Inactive)
REMARK    1  A    between atoms: O_2  and  C_3 
REMARK    2  A    between atoms: C_4  and  N_5 
REMARK    3  A    between atoms: N_5  and  C_6 
REMARK    4  A    between atoms: C_6  and  C_7 
REMARK    5  A    between atoms: C_15  and  C_16 
ROOT
HETATM    1  C   UNL     1      42.766 -14.460   3.643  1.00  0.00     0.120 A 
HETATM    2  N   UNL     1      42.713 -15.546   2.938  1.00  0.00    -0.233 NA
HETATM    3  C   UNL     1      43.139 -16.742   3.533  1.00  0.00     0.075 A 
HETATM    4  C   UNL     1      43.573 -16.811   4.858  1.00  0.00     0.061 A 
HETATM    5  C   UNL     1      43.587 -15.559   5.632  1.00  0.00     0.259 A 
HETATM    6  O   UNL     1      43.960 -15.517   6.797  1.00  0.00    -0.267 OA
HETATM    7  N   UNL     1      43.171 -14.443   4.956  1.00  0.00    -0.310 N 
HETATM    8  C   UNL     1      43.164 -17.903   2.757  1.00  0.00     0.048 A 
HETATM    9  C   UNL     1      43.613 -19.123   3.291  1.00  0.00     0.050 A 
HETATM   10  C   UNL     1      44.036 -19.166   4.631  1.00  0.00     0.017 A 
HETATM   11  C   UNL     1      44.016 -18.013   5.417  1.00  0.00     0.020 A 
HETATM   12  H   UNL     1      43.255 -13.569   5.457  1.00  0.00     0.170 HD
ENDROOT
BRANCH   1  13
HETATM   13  C   UNL     1      42.391 -13.106   3.047  1.00  0.00     0.171 C 
BRANCH  13  14
HETATM   14  N   UNL     1      43.323 -12.033   3.449  1.00  0.00    -0.284 NA
HETATM   15  H   UNL     1      43.620 -11.543   2.602  1.00  0.00     0.128 HD
BRANCH  14  16
HETATM   16  C   UNL     1      42.730 -11.049   4.280  1.00  0.00     0.042 A 
HETATM   17  C   UNL     1      43.038 -10.983   5.654  1.00  0.00     0.089 A 
HETATM   18  C   UNL     1      42.509  -9.957   6.440  1.00  0.00     0.038 A 
HETATM   19  C   UNL     1      41.654  -9.009   5.871  1.00  0.00     0.003 A 
HETATM   20  C   UNL     1      41.328  -9.082   4.519  1.00  0.00     0.002 A 
HETATM   21  C   UNL     1      41.865 -10.097   3.728  1.00  0.00     0.026 A 
BRANCH  17  22
HETATM   22  O   UNL     1      43.897 -11.949   6.124  1.00  0.00    -0.354 OA
HETATM   23  C   UNL     1      44.434 -11.688   7.418  1.00  0.00     0.210 C 
ENDBRANCH  17  22
ENDBRANCH  14  16
ENDBRANCH  13  14
ENDBRANCH   1  13
BRANCH   9  24
HETATM   24  C   UNL     1      43.678 -20.366   2.437  1.00  0.00     0.417 C 
HETATM   25  F   UNL     1      43.927 -21.503   3.143  1.00  0.00    -0.166 F 
HETATM   26  F   UNL     1      42.516 -20.590   1.764  1.00  0.00    -0.166 F 
HETATM   27  F   UNL     1      44.652 -20.295   1.489  1.00  0.00    -0.166 F 
ENDBRANCH   9  24
TORSDOF 5
ENDMDL
MODEL 6
REMARK VINA RESULT:      -7.8      5.078      8.120
REMARK  5 active torsions:
REMARK  status: ('A' for Active; 'I' for Inactive)
REMARK    1  A    between atoms: O_2  and  C_3 
REMARK    2  A    between atoms: C_4  and  N_5 
REMARK    3  A    between atoms: N_5  and  C_6 
REMARK    4  A    between atoms: C_6  and  C_7 
REMARK    5  A    between atoms: C_15  and  C_16 
ROOT
HETATM    1  C   UNL     1      42.713 -12.361   6.075  1.00  0.00     0.120 A 
HETATM    2  N   UNL     1      43.263 -13.146   5.202  1.00  0.00    -0.233 NA
HETATM    3  C   UNL     1      42.505 -14.218   4.706  1.00  0.00     0.075 A 
HETATM    4  C   UNL     1      41.180 -14.440   5.083  1.00  0.00     0.061 A 
HETATM    5  C   UNL     1      40.586 -13.505   6.052  1.00  0.00     0.259 A 
HETATM    6  O   UNL     1      39.434 -13.625   6.450  1.00  0.00    -0.267 OA
HETATM    7  N   UNL     1      41.411 -12.505   6.491  1.00  0.00    -0.310 N 
HETATM    8  C   UNL     1      43.115 -15.117   3.828  1.00  0.00     0.048 A 
HETATM    9  C   UNL     1      42.414 -16.227   3.326  1.00  0.00     0.050 A 
HETATM   10  C   UNL     1      41.078 -16.422   3.715  1.00  0.00     0.017 A 
HETATM   11  C   UNL     1      40.458 -15.531   4.591  1.00  0.00     0.020 A 
HETATM   12  H   UNL     1      41.034 -11.910   7.216  1.00  0.00     0.170 HD
ENDROOT
BRANCH   1  13
HETATM   13  C   UNL     1      43.493 -11.218   6.718  1.00  0.00     0.171 C 
BRANCH  13  14
HETATM   14  N   UNL     1      42.638 -10.351   7.554  1.00  0.00    -0.284 NA
HETATM   15  H   UNL     1      41.820 -10.896   7.835  1.00  0.00     0.128 HD
BRANCH  14  16
HETATM   16  C   UNL     1      43.261  -9.934   8.759  1.00  0.00     0.042 A 
HETATM   17  C   UNL     1      42.565  -9.141   9.694  1.00  0.00     0.089 A 
HETATM   18  C   UNL     1      43.165  -8.810  10.912  1.00  0.00     0.038 A 
HETATM   19  C   UNL     1      44.463  -9.244  11.194  1.00  0.00     0.003 A 
HETATM   20  C   UNL     1      45.164 -10.009  10.264  1.00  0.00     0.002 A 
HETATM   21  C   UNL     1      44.563 -10.353   9.053  1.00  0.00     0.026 A 
BRANCH  17  22
HETATM   22  O   UNL     1      41.289  -8.772   9.338  1.00  0.00    -0.354 OA
HETATM   23  C   UNL     1      40.264  -9.287  10.183  1.00  0.00     0.210 C 
ENDBRANCH  17  22
ENDBRANCH  14  16
ENDBRANCH  13  14
ENDBRANCH   1  13
BRANCH   9  24
HETATM   24  C   UNL     1      43.089 -17.219   2.411  1.00  0.00     0.417 C 
HETATM   25  F   UNL     1      43.558 -16.670   1.257  1.00  0.00    -0.166 F 
HETATM   26  F   UNL     1      44.159 -17.820   3.002  1.00  0.00    -0.166 F 
HETATM   27  F   UNL     1      42.256 -18.227   2.032  1.00  0.00    -0.166 F 
ENDBRANCH   9  24
TORSDOF 5
ENDMDL
MODEL 7
REMARK VINA RESULT:      -7.8      3.015      4.067
REMARK  5 active torsions:
REMARK  status: ('A' for Active; 'I' for Inactive)
REMARK    1  A    between atoms: O_2  and  C_3 
REMARK    2  A    between atoms: C_4  and  N_5 
REMARK    3  A    between atoms: N_5  and  C_6 
REMARK    4  A    between atoms: C_6  and  C_7 
REMARK    5  A    between atoms: C_15  and  C_16 
ROOT
HETATM    1  C   UNL     1      42.103 -14.477   3.467  1.00  0.00     0.120 A 
HETATM    2  N   UNL     1      42.084 -15.611   2.840  1.00  0.00    -0.233 NA
HETATM    3  C   UNL     1      42.775 -16.692   3.407  1.00  0.00     0.075 A 
HETATM    4  C   UNL     1      43.439 -16.602   4.631  1.00  0.00     0.061 A 
HETATM    5  C   UNL     1      43.407 -15.304   5.324  1.00  0.00     0.259 A 
HETATM    6  O   UNL     1      43.969 -15.125   6.398  1.00  0.00    -0.267 OA
HETATM    7  N   UNL     1      42.724 -14.307   4.681  1.00  0.00    -0.310 N 
HETATM    8  C   UNL     1      42.829 -17.895   2.699  1.00  0.00     0.048 A 
HETATM    9  C   UNL     1      43.535 -19.001   3.203  1.00  0.00     0.050 A 
HETATM   10  C   UNL     1      44.187 -18.886   4.443  1.00  0.00     0.017 A 
HETATM   11  C   UNL     1      44.139 -17.690   5.160  1.00  0.00     0.020 A 
HETATM   12  H   UNL     1      42.768 -13.394   5.113  1.00  0.00     0.170 HD
ENDROOT
BRANCH   1  13
HETATM   13  C   UNL     1      41.439 -13.234   2.881  1.00  0.00     0.171 C 
BRANCH  13  14
HETATM   14  N   UNL     1      39.980 -13.210   3.112  1.00  0.00    -0.284 NA
HETATM   15  H   UNL     1      39.722 -14.085   3.574  1.00  0.00     0.128 HD
BRANCH  14  16
HETATM   16  C   UNL     1      39.560 -12.171   3.982  1.00  0.00     0.042 A 
HETATM   17  C   UNL     1      39.003 -10.982   3.471  1.00  0.00     0.089 A 
HETATM   18  C   UNL     1      38.520 -10.006   4.345  1.00  0.00     0.038 A 
HETATM   19  C   UNL     1      38.610 -10.196   5.727  1.00  0.00     0.003 A 
HETATM   20  C   UNL     1      39.180 -11.359   6.238  1.00  0.00     0.002 A 
HETATM   21  C   UNL     1      39.652 -12.342   5.368  1.00  0.00     0.026 A 
BRANCH  17  22
HETATM   22  O   UNL     1      38.943 -10.888   2.100  1.00  0.00    -0.354 OA
HETATM   23  C   UNL     1      37.641 -11.069   1.549  1.00  0.00     0.210 C 
ENDBRANCH  17  22
ENDBRANCH  14  16
ENDBRANCH  13  14
ENDBRANCH   1  13
BRANCH   9  24
HETATM   24  C   UNL     1      43.627 -20.285   2.416  1.00  0.00     0.417 C 
HETATM   25  F   UNL     1      43.908 -21.377   3.180  1.00  0.00    -0.166 F 
HETATM   26  F   UNL     1      42.468 -20.573   1.763  1.00  0.00    -0.166 F 
HETATM   27  F   UNL     1      44.595 -20.241   1.460  1.00  0.00    -0.166 F 
ENDBRANCH   9  24
TORSDOF 5
ENDMDL
MODEL 8
REMARK VINA RESULT:      -7.8      1.677      2.361
REMARK  5 active torsions:
REMARK  status: ('A' for Active; 'I' for Inactive)
REMARK    1  A    between atoms: O_2  and  C_3 
REMARK    2  A    between atoms: C_4  and  N_5 
REMARK    3  A    between atoms: N_5  and  C_6 
REMARK    4  A    between atoms: C_6  and  C_7 
REMARK    5  A    between atoms: C_15  and  C_16 
ROOT
HETATM    1  C   UNL     1      41.727 -14.600   4.184  1.00  0.00     0.120 A 
HETATM    2  N   UNL     1      41.679 -15.698   3.497  1.00  0.00    -0.233 NA
HETATM    3  C   UNL     1      42.583 -16.720   3.821  1.00  0.00     0.075 A 
HETATM    4  C   UNL     1      43.493 -16.615   4.874  1.00  0.00     0.061 A 
HETATM    5  C   UNL     1      43.490 -15.363   5.648  1.00  0.00     0.259 A 
HETATM    6  O   UNL     1      44.258 -15.173   6.583  1.00  0.00    -0.267 OA
HETATM    7  N   UNL     1      42.585 -14.419   5.242  1.00  0.00    -0.310 N 
HETATM    8  C   UNL     1      42.596 -17.875   3.035  1.00  0.00     0.048 A 
HETATM    9  C   UNL     1      43.503 -18.917   3.293  1.00  0.00     0.050 A 
HETATM   10  C   UNL     1      44.403 -18.788   4.365  1.00  0.00     0.017 A 
HETATM   11  C   UNL     1      44.399 -17.641   5.158  1.00  0.00     0.020 A 
HETATM   12  H   UNL     1      42.635 -13.529   5.718  1.00  0.00     0.170 HD
ENDROOT
BRANCH   1  13
HETATM   13  C   UNL     1      40.829 -13.413   3.848  1.00  0.00     0.171 C 
BRANCH  13  14
HETATM   14  N   UNL     1      39.675 -13.797   3.009  1.00  0.00    -0.284 NA
HETATM   15  H   UNL     1      38.885 -13.984   3.629  1.00  0.00     0.128 HD
BRANCH  14  16
HETATM   16  C   UNL     1      39.246 -12.768   2.131  1.00  0.00     0.042 A 
HETATM   17  C   UNL     1      39.342 -12.924   0.734  1.00  0.00     0.089 A 
HETATM   18  C   UNL     1      38.838 -11.936  -0.115  1.00  0.00     0.038 A 
HETATM   19  C   UNL     1      38.261 -10.780   0.419  1.00  0.00     0.003 A 
HETATM   20  C   UNL     1      38.184 -10.610   1.799  1.00  0.00     0.002 A 
HETATM   21  C   UNL     1      38.673 -11.601   2.650  1.00  0.00     0.026 A 
BRANCH  17  22
HETATM   22  O   UNL     1      39.912 -14.097   0.298  1.00  0.00    -0.354 OA
HETATM   23  C   UNL     1      39.582 -14.456  -1.041  1.00  0.00     0.210 C 
ENDBRANCH  17  22
ENDBRANCH  14  16
ENDBRANCH  13  14
ENDBRANCH   1  13
BRANCH   9  24
HETATM   24  C   UNL     1      43.543 -20.144   2.415  1.00  0.00     0.417 C 
HETATM   25  F   UNL     1      43.844 -21.289   3.087  1.00  0.00    -0.166 F 
HETATM   26  F   UNL     1      42.351 -20.375   1.798  1.00  0.00    -0.166 F 
HETATM   27  F   UNL     1      44.466 -20.042   1.419  1.00  0.00    -0.166 F 
ENDBRANCH   9  24
TORSDOF 5
ENDMDL
MODEL 9
REMARK VINA RESULT:      -7.7     13.997     15.591
REMARK  5 active torsions:
REMARK  status: ('A' for Active; 'I' for Inactive)
REMARK    1  A    between atoms: O_2  and  C_3 
REMARK    2  A    between atoms: C_4  and  N_5 
REMARK    3  A    between atoms: N_5  and  C_6 
REMARK    4  A    between atoms: C_6  and  C_7 
REMARK    5  A    between atoms: C_15  and  C_16 
ROOT
HETATM    1  C   UNL     1      44.477 -29.887   2.210  1.00  0.00     0.120 A 
HETATM    2  N   UNL     1      44.183 -29.975   0.950  1.00  0.00    -0.233 NA
HETATM    3  C   UNL     1      45.007 -29.310   0.030  1.00  0.00     0.075 A 
HETATM    4  C   UNL     1      46.144 -28.599   0.415  1.00  0.00     0.061 A 
HETATM    5  C   UNL     1      46.459 -28.552   1.853  1.00  0.00     0.259 A 
HETATM    6  O   UNL     1      47.429 -27.945   2.288  1.00  0.00    -0.267 OA
HETATM    7  N   UNL     1      45.584 -29.216   2.671  1.00  0.00    -0.310 N 
HETATM    8  C   UNL     1      44.652 -29.331  -1.320  1.00  0.00     0.048 A 
HETATM    9  C   UNL     1      45.422 -28.654  -2.282  1.00  0.00     0.050 A 
HETATM   10  C   UNL     1      46.568 -27.953  -1.868  1.00  0.00     0.017 A 
HETATM   11  C   UNL     1      46.933 -27.926  -0.522  1.00  0.00     0.020 A 
HETATM   12  H   UNL     1      45.750 -29.118   3.663  1.00  0.00     0.170 HD
ENDROOT
BRANCH   1  13
HETATM   13  C   UNL     1      43.591 -30.519   3.279  1.00  0.00     0.171 C 
BRANCH  13  14
HETATM   14  N   UNL     1      42.237 -29.929   3.313  1.00  0.00    -0.284 NA
HETATM   15  H   UNL     1      41.979 -29.684   2.355  1.00  0.00     0.128 HD
BRANCH  14  16
HETATM   16  C   UNL     1      41.239 -30.828   3.768  1.00  0.00     0.042 A 
HETATM   17  C   UNL     1      40.530 -31.639   2.859  1.00  0.00     0.089 A 
HETATM   18  C   UNL     1      39.609 -32.578   3.332  1.00  0.00     0.038 A 
HETATM   19  C   UNL     1      39.372 -32.696   4.705  1.00  0.00     0.003 A 
HETATM   20  C   UNL     1      40.053 -31.881   5.606  1.00  0.00     0.002 A 
HETATM   21  C   UNL     1      40.983 -30.953   5.138  1.00  0.00     0.026 A 
BRANCH  17  22
HETATM   22  O   UNL     1      40.837 -31.464   1.531  1.00  0.00    -0.354 OA
HETATM   23  C   UNL     1      41.495 -32.572   0.922  1.00  0.00     0.210 C 
ENDBRANCH  17  22
ENDBRANCH  14  16
ENDBRANCH  13  14
ENDBRANCH   1  13
BRANCH   9  24
HETATM   24  C   UNL     1      45.012 -28.644  -3.735  1.00  0.00     0.417 C 
HETATM   25  F   UNL     1      45.661 -29.569  -4.494  1.00  0.00    -0.166 F 
HETATM   26  F   UNL     1      43.683 -28.891  -3.897  1.00  0.00    -0.166 F 
HETATM   27  F   UNL     1      45.244 -27.442  -4.332  1.00  0.00    -0.166 F 
ENDBRANCH   9  24
TORSDOF 5
ENDMDL
MODEL 10
REMARK VINA RESULT:      -7.6     13.989     15.698
REMARK  5 active torsions:
REMARK  status: ('A' for Active; 'I' for Inactive)
REMARK    1  A    between atoms: O_2  and  C_3 
REMARK    2  A    between atoms: C_4  and  N_5 
REMARK    3  A    between atoms: N_5  and  C_6 
REMARK    4  A    between atoms: C_6  and  C_7 
REMARK    5  A    between atoms: C_15  and  C_16 
ROOT
HETATM    1  C   UNL     1      44.716 -29.952   2.233  1.00  0.00     0.120 A 
HETATM    2  N   UNL     1      44.377 -30.054   0.986  1.00  0.00    -0.233 NA
HETATM    3  C   UNL     1      45.127 -29.343   0.037  1.00  0.00     0.075 A 
HETATM    4  C   UNL     1      46.238 -28.572   0.380  1.00  0.00     0.061 A 
HETATM    5  C   UNL     1      46.606 -28.511   1.805  1.00  0.00     0.259 A 
HETATM    6  O   UNL     1      47.559 -27.853   2.204  1.00  0.00    -0.267 OA
HETATM    7  N   UNL     1      45.802 -29.223   2.654  1.00  0.00    -0.310 N 
HETATM    8  C   UNL     1      44.721 -29.380  -1.299  1.00  0.00     0.048 A 
HETATM    9  C   UNL     1      45.415 -28.660  -2.287  1.00  0.00     0.050 A 
HETATM   10  C   UNL     1      46.536 -27.899  -1.915  1.00  0.00     0.017 A 
HETATM   11  C   UNL     1      46.951 -27.854  -0.584  1.00  0.00     0.020 A 
HETATM   12  H   UNL     1      46.001 -29.118   3.639  1.00  0.00     0.170 HD
ENDROOT
BRANCH   1  13
HETATM   13  C   UNL     1      43.908 -30.634   3.334  1.00  0.00     0.171 C 
BRANCH  13  14
HETATM   14  N   UNL     1      42.597 -29.991   3.554  1.00  0.00    -0.284 NA
HETATM   15  H   UNL     1      42.413 -29.375   2.759  1.00  0.00     0.128 HD
BRANCH  14  16
HETATM   16  C   UNL     1      41.515 -30.908   3.594  1.00  0.00     0.042 A 
HETATM   17  C   UNL     1      40.941 -31.293   4.822  1.00  0.00     0.089 A 
HETATM   18  C   UNL     1      39.824 -32.132   4.838  1.00  0.00     0.038 A 
HETATM   19  C   UNL     1      39.290 -32.610   3.638  1.00  0.00     0.003 A 
HETATM   20  C   UNL     1      39.866 -32.250   2.423  1.00  0.00     0.002 A 
HETATM   21  C   UNL     1      40.973 -31.402   2.402  1.00  0.00     0.026 A 
BRANCH  17  22
HETATM   22  O   UNL     1      41.524 -30.765   5.950  1.00  0.00    -0.354 OA
HETATM   23  C   UNL     1      41.978 -31.733   6.893  1.00  0.00     0.210 C 
ENDBRANCH  17  22
ENDBRANCH  14  16
ENDBRANCH  13  14
ENDBRANCH   1  13
BRANCH   9  24
HETATM   24  C   UNL     1      44.948 -28.669  -3.722  1.00  0.00     0.417 C 
HETATM   25  F   UNL     1      45.150 -27.489  -4.371  1.00  0.00    -0.166 F 
HETATM   26  F   UNL     1      45.583 -29.618  -4.464  1.00  0.00    -0.166 F 
HETATM   27  F   UNL     1      43.618 -28.934  -3.835  1.00  0.00    -0.166 F 
ENDBRANCH   9  24
TORSDOF 5
ENDMDL
