MODEL 1
REMARK VINA RESULT:      -8.0      0.000      0.000
REMARK  8 active torsions:
REMARK  status: ('A' for Active; 'I' for Inactive)
REMARK    1  A    between atoms: C_2  and  O_3 
REMARK    2  A    between atoms: O_3  and  C_4 
REMARK    3  A    between atoms: C_4  and  C_5 
REMARK    4  A    between atoms: C_5  and  C_6 
REMARK    5  A    between atoms: C_6  and  N_7 
REMARK    6  A    between atoms: C_12  and  C_13 
REMARK    7  A    between atoms: C_23  and  C_24 
REMARK    8  A    between atoms: C_25  and  O_26 
ROOT
HETATM    1  N   UNL     1      41.675 -14.894   6.226  1.00  0.00    -0.334 N 
HETATM    2  C   UNL     1      42.909 -14.704   6.864  1.00  0.00     0.273 A 
HETATM    3  O   UNL     1      43.218 -13.895   7.716  1.00  0.00    -0.266 OA
HETATM    4  C   UNL     1      43.732 -15.701   6.288  1.00  0.00     0.129 A 
HETATM    5  C   UNL     1      43.078 -16.455   5.360  1.00  0.00     0.034 A 
HETATM    6  C   UNL     1      41.677 -16.002   5.225  1.00  0.00     0.159 A 
HETATM    7  N   UNL     1      44.995 -16.147   6.363  1.00  0.00    -0.272 N 
HETATM    8  H   UNL     1      45.763 -15.809   6.937  1.00  0.00     0.189 HD
HETATM    9  N   UNL     1      45.199 -17.202   5.535  1.00  0.00    -0.173 NA
HETATM   10  C   UNL     1      44.011 -17.401   4.914  1.00  0.00     0.101 A 
ENDROOT
BRANCH  10  11
HETATM   11  C   UNL     1      43.825 -18.470   3.939  1.00  0.00     0.028 A 
HETATM   12  C   UNL     1      43.989 -19.822   4.273  1.00  0.00     0.078 A 
HETATM   13  C   UNL     1      43.721 -20.828   3.346  1.00  0.00     0.037 A 
HETATM   14  C   UNL     1      43.322 -20.490   2.053  1.00  0.00     0.003 A 
HETATM   15  C   UNL     1      43.190 -19.149   1.693  1.00  0.00     0.001 A 
HETATM   16  C   UNL     1      43.438 -18.145   2.632  1.00  0.00     0.017 A 
BRANCH  12  17
HETATM   17  O   UNL     1      44.456 -20.228   5.496  1.00  0.00    -0.360 OA
HETATM   18  H   UNL     1      44.480 -19.431   6.056  1.00  0.00     0.217 HD
ENDBRANCH  12  17
ENDBRANCH  10  11
BRANCH   6  19
HETATM   19  C   UNL     1      41.466 -15.562   3.797  1.00  0.00    -0.031 A 
HETATM   20  C   UNL     1      40.332 -16.021   3.103  1.00  0.00     0.011 A 
HETATM   21  C   UNL     1      40.091 -15.628   1.783  1.00  0.00     0.024 A 
HETATM   22  C   UNL     1      40.985 -14.776   1.141  1.00  0.00     0.034 A 
HETATM   23 CL   UNL     1      40.685 -14.288  -0.481  1.00  0.00    -0.084 Cl
HETATM   24  C   UNL     1      42.118 -14.315   1.805  1.00  0.00     0.024 A 
HETATM   25  C   UNL     1      42.358 -14.707   3.125  1.00  0.00     0.011 A 
ENDBRANCH   6  19
BRANCH   1  26
HETATM   26  C   UNL     1      40.490 -14.110   6.530  1.00  0.00     0.129 C 
BRANCH  26  27
HETATM   27  C   UNL     1      40.530 -12.687   5.966  1.00  0.00     0.046 C 
BRANCH  27  28
HETATM   28  C   UNL     1      39.268 -12.316   5.195  1.00  0.00     0.169 C 
BRANCH  28  29
HETATM   29  O   UNL     1      39.441 -12.676   3.828  1.00  0.00    -0.387 OA
BRANCH  29  30
HETATM   30  C   UNL     1      39.337 -11.575   2.922  1.00  0.00     0.113 C 
HETATM   31  C   UNL     1      38.648 -11.991   1.626  1.00  0.00     0.039 C 
HETATM   32  C   UNL     1      40.754 -11.093   2.640  1.00  0.00     0.039 C 
ENDBRANCH  29  30
ENDBRANCH  28  29
ENDBRANCH  27  28
ENDBRANCH  26  27
ENDBRANCH   1  26
TORSDOF 8
ENDMDL
MODEL 2
REMARK VINA RESULT:      -7.5      3.408      6.360
REMARK  8 active torsions:
REMARK  status: ('A' for Active; 'I' for Inactive)
REMARK    1  A    between atoms: C_2  and  O_3 
REMARK    2  A    between atoms: O_3  and  C_4 
REMARK    3  A    between atoms: C_4  and  C_5 
REMARK    4  A    between atoms: C_5  and  C_6 
REMARK    5  A    between atoms: C_6  and  N_7 
REMARK    6  A    between atoms: C_12  and  C_13 
REMARK    7  A    between atoms: C_23  and  C_24 
REMARK    8  A    between atoms: C_25  and  O_26 
ROOT
HETATM    1  N   UNL     1      42.366 -12.527   4.751  1.00  0.00    -0.334 N 
HETATM    2  C   UNL     1      41.156 -11.988   5.212  1.00  0.00     0.273 A 
HETATM    3  O   UNL     1      40.867 -11.586   6.322  1.00  0.00    -0.266 OA
HETATM    4  C   UNL     1      40.332 -12.003   4.062  1.00  0.00     0.129 A 
HETATM    5  C   UNL     1      40.963 -12.513   2.967  1.00  0.00     0.034 A 
HETATM    6  C   UNL     1      42.346 -12.908   3.307  1.00  0.00     0.159 A 
HETATM    7  N   UNL     1      39.083 -11.671   3.700  1.00  0.00    -0.272 N 
HETATM    8  H   UNL     1      38.334 -11.279   4.263  1.00  0.00     0.189 HD
HETATM    9  N   UNL     1      38.868 -11.913   2.382  1.00  0.00    -0.173 NA
HETATM   10  C   UNL     1      40.032 -12.431   1.922  1.00  0.00     0.101 A 
ENDROOT
BRANCH  10  11
HETATM   11  C   UNL     1      40.200 -12.816   0.525  1.00  0.00     0.028 A 
HETATM   12  C   UNL     1      39.947 -14.119   0.073  1.00  0.00     0.078 A 
HETATM   13  C   UNL     1      40.032 -14.438  -1.281  1.00  0.00     0.037 A 
HETATM   14  C   UNL     1      40.412 -13.461  -2.201  1.00  0.00     0.003 A 
HETATM   15  C   UNL     1      40.703 -12.169  -1.764  1.00  0.00     0.001 A 
HETATM   16  C   UNL     1      40.595 -11.848  -0.409  1.00  0.00     0.017 A 
BRANCH  12  17
HETATM   17  O   UNL     1      39.649 -15.150   0.925  1.00  0.00    -0.360 OA
HETATM   18  H   UNL     1      39.792 -15.971   0.420  1.00  0.00     0.217 HD
ENDBRANCH  12  17
ENDBRANCH  10  11
BRANCH   6  19
HETATM   19  C   UNL     1      42.485 -14.388   3.044  1.00  0.00    -0.031 A 
HETATM   20  C   UNL     1      43.141 -14.813   1.875  1.00  0.00     0.011 A 
HETATM   21  C   UNL     1      43.304 -16.173   1.598  1.00  0.00     0.024 A 
HETATM   22  C   UNL     1      42.808 -17.124   2.485  1.00  0.00     0.034 A 
HETATM   23 CL   UNL     1      43.013 -18.798   2.146  1.00  0.00    -0.084 Cl
HETATM   24  C   UNL     1      42.148 -16.727   3.644  1.00  0.00     0.024 A 
HETATM   25  C   UNL     1      41.987 -15.367   3.922  1.00  0.00     0.011 A 
ENDBRANCH   6  19
BRANCH   1  26
HETATM   26  C   UNL     1      43.546 -12.673   5.587  1.00  0.00     0.129 C 
BRANCH  26  27
HETATM   27  C   UNL     1      44.284 -11.357   5.849  1.00  0.00     0.046 C 
BRANCH  27  28
HETATM   28  C   UNL     1      45.485 -11.522   6.773  1.00  0.00     0.169 C 
BRANCH  28  29
HETATM   29  O   UNL     1      45.055 -11.358   8.121  1.00  0.00    -0.387 OA
BRANCH  29  30
HETATM   30  C   UNL     1      45.114 -10.008   8.588  1.00  0.00     0.113 C 
HETATM   31  C   UNL     1      46.329  -9.281   8.019  1.00  0.00     0.039 C 
HETATM   32  C   UNL     1      45.192 -10.065  10.108  1.00  0.00     0.039 C 
ENDBRANCH  29  30
ENDBRANCH  28  29
ENDBRANCH  27  28
ENDBRANCH  26  27
ENDBRANCH   1  26
TORSDOF 8
ENDMDL
MODEL 3
REMARK VINA RESULT:      -7.3      1.797      6.938
REMARK  8 active torsions:
REMARK  status: ('A' for Active; 'I' for Inactive)
REMARK    1  A    between atoms: C_2  and  O_3 
REMARK    2  A    between atoms: O_3  and  C_4 
REMARK    3  A    between atoms: C_4  and  C_5 
REMARK    4  A    between atoms: C_5  and  C_6 
REMARK    5  A    between atoms: C_6  and  N_7 
REMARK    6  A    between atoms: C_12  and  C_13 
REMARK    7  A    between atoms: C_23  and  C_24 
REMARK    8  A    between atoms: C_25  and  O_26 
ROOT
HETATM    1  N   UNL     1      42.420 -15.508   4.009  1.00  0.00    -0.334 N 
HETATM    2  C   UNL     1      41.765 -15.873   5.194  1.00  0.00     0.273 A 
HETATM    3  O   UNL     1      41.928 -16.855   5.891  1.00  0.00    -0.266 OA
HETATM    4  C   UNL     1      40.859 -14.808   5.409  1.00  0.00     0.129 A 
HETATM    5  C   UNL     1      40.929 -13.851   4.440  1.00  0.00     0.034 A 
HETATM    6  C   UNL     1      41.948 -14.215   3.432  1.00  0.00     0.159 A 
HETATM    7  N   UNL     1      39.917 -14.434   6.288  1.00  0.00    -0.272 N 
HETATM    8  H   UNL     1      39.591 -14.913   7.123  1.00  0.00     0.189 HD
HETATM    9  N   UNL     1      39.375 -13.235   5.955  1.00  0.00    -0.173 NA
HETATM   10  C   UNL     1      40.002 -12.867   4.812  1.00  0.00     0.101 A 
ENDROOT
BRANCH  10  11
HETATM   11  C   UNL     1      39.694 -11.611   4.139  1.00  0.00     0.028 A 
HETATM   12  C   UNL     1      38.824 -11.543   3.042  1.00  0.00     0.078 A 
HETATM   13  C   UNL     1      38.480 -10.319   2.472  1.00  0.00     0.037 A 
HETATM   14  C   UNL     1      39.037  -9.142   2.972  1.00  0.00     0.003 A 
HETATM   15  C   UNL     1      39.933  -9.193   4.039  1.00  0.00     0.001 A 
HETATM   16  C   UNL     1      40.258 -10.420   4.621  1.00  0.00     0.017 A 
BRANCH  12  17
HETATM   17  O   UNL     1      38.302 -12.662   2.446  1.00  0.00    -0.360 OA
HETATM   18  H   UNL     1      38.398 -12.528   1.486  1.00  0.00     0.217 HD
ENDBRANCH  12  17
ENDBRANCH  10  11
BRANCH   6  19
HETATM   19  C   UNL     1      41.256 -14.335   2.095  1.00  0.00    -0.031 A 
HETATM   20  C   UNL     1      40.391 -15.421   1.871  1.00  0.00     0.011 A 
HETATM   21  C   UNL     1      39.720 -15.564   0.653  1.00  0.00     0.024 A 
HETATM   22  C   UNL     1      39.912 -14.625  -0.356  1.00  0.00     0.034 A 
HETATM   23 CL   UNL     1      39.082 -14.798  -1.853  1.00  0.00    -0.084 Cl
HETATM   24  C   UNL     1      40.769 -13.546  -0.160  1.00  0.00     0.024 A 
HETATM   25  C   UNL     1      41.438 -13.402   1.059  1.00  0.00     0.011 A 
ENDBRANCH   6  19
BRANCH   1  26
HETATM   26  C   UNL     1      43.484 -16.295   3.409  1.00  0.00     0.129 C 
BRANCH  26  27
HETATM   27  C   UNL     1      42.987 -17.525   2.644  1.00  0.00     0.046 C 
BRANCH  27  28
HETATM   28  C   UNL     1      43.841 -18.764   2.888  1.00  0.00     0.169 C 
BRANCH  28  29
HETATM   29  O   UNL     1      44.347 -18.719   4.219  1.00  0.00    -0.387 OA
BRANCH  29  30
HETATM   30  C   UNL     1      44.391 -19.994   4.865  1.00  0.00     0.113 C 
HETATM   31  C   UNL     1      43.862 -21.094   3.950  1.00  0.00     0.039 C 
HETATM   32  C   UNL     1      43.532 -19.887   6.119  1.00  0.00     0.039 C 
ENDBRANCH  29  30
ENDBRANCH  28  29
ENDBRANCH  27  28
ENDBRANCH  26  27
ENDBRANCH   1  26
TORSDOF 8
ENDMDL
MODEL 4
REMARK VINA RESULT:      -7.1      3.016      6.476
REMARK  8 active torsions:
REMARK  status: ('A' for Active; 'I' for Inactive)
REMARK    1  A    between atoms: C_2  and  O_3 
REMARK    2  A    between atoms: O_3  and  C_4 
REMARK    3  A    between atoms: C_4  and  C_5 
REMARK    4  A    between atoms: C_5  and  C_6 
REMARK    5  A    between atoms: C_6  and  N_7 
REMARK    6  A    between atoms: C_12  and  C_13 
REMARK    7  A    between atoms: C_23  and  C_24 
REMARK    8  A    between atoms: C_25  and  O_26 
ROOT
HETATM    1  N   UNL     1      41.206 -11.828   4.072  1.00  0.00    -0.334 N 
HETATM    2  C   UNL     1      39.884 -11.386   4.229  1.00  0.00     0.273 A 
HETATM    3  O   UNL     1      39.325 -10.972   5.226  1.00  0.00    -0.266 OA
HETATM    4  C   UNL     1      39.338 -11.520   2.931  1.00  0.00     0.129 A 
HETATM    5  C   UNL     1      40.234 -12.010   2.029  1.00  0.00     0.034 A 
HETATM    6  C   UNL     1      41.536 -12.263   2.683  1.00  0.00     0.159 A 
HETATM    7  N   UNL     1      38.177 -11.318   2.289  1.00  0.00    -0.272 N 
HETATM    8  H   UNL     1      37.293 -10.976   2.653  1.00  0.00     0.189 HD
HETATM    9  N   UNL     1      38.278 -11.628   0.972  1.00  0.00    -0.173 NA
HETATM   10  C   UNL     1      39.554 -12.053   0.804  1.00  0.00     0.101 A 
ENDROOT
BRANCH  10  11
HETATM   11  C   UNL     1      40.056 -12.472  -0.499  1.00  0.00     0.028 A 
HETATM   12  C   UNL     1      39.879 -13.776  -0.985  1.00  0.00     0.078 A 
HETATM   13  C   UNL     1      40.293 -14.126  -2.269  1.00  0.00     0.037 A 
HETATM   14  C   UNL     1      40.930 -13.181  -3.073  1.00  0.00     0.003 A 
HETATM   15  C   UNL     1      41.148 -11.891  -2.593  1.00  0.00     0.001 A 
HETATM   16  C   UNL     1      40.711 -11.537  -1.313  1.00  0.00     0.017 A 
BRANCH  12  17
HETATM   17  O   UNL     1      39.337 -14.778  -0.224  1.00  0.00    -0.360 OA
HETATM   18  H   UNL     1      39.076 -15.482  -0.846  1.00  0.00     0.217 HD
ENDBRANCH  12  17
ENDBRANCH  10  11
BRANCH   6  19
HETATM   19  C   UNL     1      41.850 -13.732   2.539  1.00  0.00    -0.031 A 
HETATM   20  C   UNL     1      40.907 -14.677   2.982  1.00  0.00     0.011 A 
HETATM   21  C   UNL     1      41.152 -16.048   2.857  1.00  0.00     0.024 A 
HETATM   22  C   UNL     1      42.344 -16.488   2.292  1.00  0.00     0.034 A 
HETATM   23 CL   UNL     1      42.643 -18.176   2.132  1.00  0.00    -0.084 Cl
HETATM   24  C   UNL     1      43.296 -15.572   1.853  1.00  0.00     0.024 A 
HETATM   25  C   UNL     1      43.051 -14.202   1.977  1.00  0.00     0.011 A 
ENDBRANCH   6  19
BRANCH   1  26
HETATM   26  C   UNL     1      42.180 -11.834   5.151  1.00  0.00     0.129 C 
BRANCH  26  27
HETATM   27  C   UNL     1      42.059 -13.041   6.085  1.00  0.00     0.046 C 
BRANCH  27  28
HETATM   28  C   UNL     1      43.382 -13.772   6.286  1.00  0.00     0.169 C 
BRANCH  28  29
HETATM   29  O   UNL     1      43.414 -14.910   5.429  1.00  0.00    -0.387 OA
BRANCH  29  30
HETATM   30  C   UNL     1      43.597 -16.149   6.118  1.00  0.00     0.113 C 
HETATM   31  C   UNL     1      44.416 -17.129   5.283  1.00  0.00     0.039 C 
HETATM   32  C   UNL     1      42.210 -16.715   6.393  1.00  0.00     0.039 C 
ENDBRANCH  29  30
ENDBRANCH  28  29
ENDBRANCH  27  28
ENDBRANCH  26  27
ENDBRANCH   1  26
TORSDOF 8
ENDMDL
MODEL 5
REMARK VINA RESULT:      -7.1      2.899      7.650
REMARK  8 active torsions:
REMARK  status: ('A' for Active; 'I' for Inactive)
REMARK    1  A    between atoms: C_2  and  O_3 
REMARK    2  A    between atoms: O_3  and  C_4 
REMARK    3  A    between atoms: C_4  and  C_5 
REMARK    4  A    between atoms: C_5  and  C_6 
REMARK    5  A    between atoms: C_6  and  N_7 
REMARK    6  A    between atoms: C_12  and  C_13 
REMARK    7  A    between atoms: C_23  and  C_24 
REMARK    8  A    between atoms: C_25  and  O_26 
ROOT
HETATM    1  N   UNL     1      41.708 -15.953   4.418  1.00  0.00    -0.334 N 
HETATM    2  C   UNL     1      41.292 -16.125   3.090  1.00  0.00     0.273 A 
HETATM    3  O   UNL     1      41.499 -17.055   2.333  1.00  0.00    -0.266 OA
HETATM    4  C   UNL     1      40.545 -14.953   2.826  1.00  0.00     0.129 A 
HETATM    5  C   UNL     1      40.497 -14.106   3.893  1.00  0.00     0.034 A 
HETATM    6  C   UNL     1      41.252 -14.671   5.032  1.00  0.00     0.159 A 
HETATM    7  N   UNL     1      39.855 -14.390   1.822  1.00  0.00    -0.272 N 
HETATM    8  H   UNL     1      39.697 -14.733   0.880  1.00  0.00     0.189 HD
HETATM    9  N   UNL     1      39.316 -13.202   2.197  1.00  0.00    -0.173 NA
HETATM   10  C   UNL     1      39.707 -13.023   3.481  1.00  0.00     0.101 A 
ENDROOT
BRANCH  10  11
HETATM   11  C   UNL     1      39.312 -11.846   4.246  1.00  0.00     0.028 A 
HETATM   12  C   UNL     1      39.043 -10.613   3.635  1.00  0.00     0.078 A 
HETATM   13  C   UNL     1      38.584  -9.528   4.378  1.00  0.00     0.037 A 
HETATM   14  C   UNL     1      38.425  -9.652   5.759  1.00  0.00     0.003 A 
HETATM   15  C   UNL     1      38.723 -10.859   6.389  1.00  0.00     0.001 A 
HETATM   16  C   UNL     1      39.162 -11.952   5.636  1.00  0.00     0.017 A 
BRANCH  12  17
HETATM   17  O   UNL     1      39.254 -10.392   2.299  1.00  0.00    -0.360 OA
HETATM   18  H   UNL     1      38.544  -9.792   2.007  1.00  0.00     0.217 HD
ENDBRANCH  12  17
ENDBRANCH  10  11
BRANCH   6  19
HETATM   19  C   UNL     1      42.361 -13.707   5.377  1.00  0.00    -0.031 A 
HETATM   20  C   UNL     1      42.873 -13.699   6.687  1.00  0.00     0.011 A 
HETATM   21  C   UNL     1      43.909 -12.833   7.047  1.00  0.00     0.024 A 
HETATM   22  C   UNL     1      44.441 -11.961   6.102  1.00  0.00     0.034 A 
HETATM   23 CL   UNL     1      45.720 -10.898   6.544  1.00  0.00    -0.084 Cl
HETATM   24  C   UNL     1      43.946 -11.945   4.802  1.00  0.00     0.024 A 
HETATM   25  C   UNL     1      42.911 -12.813   4.441  1.00  0.00     0.011 A 
ENDBRANCH   6  19
BRANCH   1  26
HETATM   26  C   UNL     1      42.484 -16.942   5.146  1.00  0.00     0.129 C 
BRANCH  26  27
HETATM   27  C   UNL     1      43.973 -16.945   4.787  1.00  0.00     0.046 C 
BRANCH  27  28
HETATM   28  C   UNL     1      44.530 -18.347   4.565  1.00  0.00     0.169 C 
BRANCH  28  29
HETATM   29  O   UNL     1      44.268 -18.739   3.221  1.00  0.00    -0.387 OA
BRANCH  29  30
HETATM   30  C   UNL     1      43.489 -19.933   3.107  1.00  0.00     0.113 C 
HETATM   31  C   UNL     1      43.923 -20.974   4.134  1.00  0.00     0.039 C 
HETATM   32  C   UNL     1      43.692 -20.464   1.694  1.00  0.00     0.039 C 
ENDBRANCH  29  30
ENDBRANCH  28  29
ENDBRANCH  27  28
ENDBRANCH  26  27
ENDBRANCH   1  26
TORSDOF 8
ENDMDL
MODEL 6
REMARK VINA RESULT:      -6.6      2.784      4.589
REMARK  8 active torsions:
REMARK  status: ('A' for Active; 'I' for Inactive)
REMARK    1  A    between atoms: C_2  and  O_3 
REMARK    2  A    between atoms: O_3  and  C_4 
REMARK    3  A    between atoms: C_4  and  C_5 
REMARK    4  A    between atoms: C_5  and  C_6 
REMARK    5  A    between atoms: C_6  and  N_7 
REMARK    6  A    between atoms: C_12  and  C_13 
REMARK    7  A    between atoms: C_23  and  C_24 
REMARK    8  A    between atoms: C_25  and  O_26 
ROOT
HETATM    1  N   UNL     1      39.679 -11.107   3.197  1.00  0.00    -0.334 N 
HETATM    2  C   UNL     1      40.627 -10.323   3.869  1.00  0.00     0.273 A 
HETATM    3  O   UNL     1      40.530  -9.182   4.278  1.00  0.00    -0.266 OA
HETATM    4  C   UNL     1      41.744 -11.184   3.981  1.00  0.00     0.129 A 
HETATM    5  C   UNL     1      41.525 -12.408   3.423  1.00  0.00     0.034 A 
HETATM    6  C   UNL     1      40.163 -12.477   2.854  1.00  0.00     0.159 A 
HETATM    7  N   UNL     1      42.993 -11.172   4.472  1.00  0.00    -0.272 N 
HETATM    8  H   UNL     1      43.492 -10.422   4.940  1.00  0.00     0.189 HD
HETATM    9  N   UNL     1      43.608 -12.368   4.289  1.00  0.00    -0.173 NA
HETATM   10  C   UNL     1      42.701 -13.139   3.642  1.00  0.00     0.101 A 
ENDROOT
BRANCH  10  11
HETATM   11  C   UNL     1      42.994 -14.519   3.272  1.00  0.00     0.028 A 
HETATM   12  C   UNL     1      43.116 -15.539   4.226  1.00  0.00     0.078 A 
HETATM   13  C   UNL     1      43.310 -16.864   3.840  1.00  0.00     0.037 A 
HETATM   14  C   UNL     1      43.425 -17.181   2.486  1.00  0.00     0.003 A 
HETATM   15  C   UNL     1      43.343 -16.174   1.525  1.00  0.00     0.001 A 
HETATM   16  C   UNL     1      43.126 -14.850   1.916  1.00  0.00     0.017 A 
BRANCH  12  17
HETATM   17  O   UNL     1      43.096 -15.293   5.574  1.00  0.00    -0.360 OA
HETATM   18  H   UNL     1      43.973 -15.550   5.911  1.00  0.00     0.217 HD
ENDBRANCH  12  17
ENDBRANCH  10  11
BRANCH   6  19
HETATM   19  C   UNL     1      40.290 -12.749   1.375  1.00  0.00    -0.031 A 
HETATM   20  C   UNL     1      39.742 -13.933   0.850  1.00  0.00     0.011 A 
HETATM   21  C   UNL     1      39.825 -14.218  -0.516  1.00  0.00     0.024 A 
HETATM   22  C   UNL     1      40.463 -13.325  -1.371  1.00  0.00     0.034 A 
HETATM   23 CL   UNL     1      40.561 -13.674  -3.054  1.00  0.00    -0.084 Cl
HETATM   24  C   UNL     1      41.021 -12.151  -0.874  1.00  0.00     0.024 A 
HETATM   25  C   UNL     1      40.935 -11.864   0.492  1.00  0.00     0.011 A 
ENDBRANCH   6  19
BRANCH   1  26
HETATM   26  C   UNL     1      38.335 -10.646   2.888  1.00  0.00     0.129 C 
BRANCH  26  27
HETATM   27  C   UNL     1      38.222  -9.936   1.536  1.00  0.00     0.046 C 
BRANCH  27  28
HETATM   28  C   UNL     1      37.070 -10.459   0.684  1.00  0.00     0.169 C 
BRANCH  28  29
HETATM   29  O   UNL     1      37.588 -11.366  -0.284  1.00  0.00    -0.387 OA
BRANCH  29  30
HETATM   30  C   UNL     1      37.224 -11.047  -1.630  1.00  0.00     0.113 C 
HETATM   31  C   UNL     1      37.173 -12.299  -2.499  1.00  0.00     0.039 C 
HETATM   32  C   UNL     1      38.274 -10.076  -2.157  1.00  0.00     0.039 C 
ENDBRANCH  29  30
ENDBRANCH  28  29
ENDBRANCH  27  28
ENDBRANCH  26  27
ENDBRANCH   1  26
TORSDOF 8
ENDMDL
MODEL 7
REMARK VINA RESULT:      -6.6      3.365      5.529
REMARK  8 active torsions:
REMARK  status: ('A' for Active; 'I' for Inactive)
REMARK    1  A    between atoms: C_2  and  O_3 
REMARK    2  A    between atoms: O_3  and  C_4 
REMARK    3  A    between atoms: C_4  and  C_5 
REMARK    4  A    between atoms: C_5  and  C_6 
REMARK    5  A    between atoms: C_6  and  N_7 
REMARK    6  A    between atoms: C_12  and  C_13 
REMARK    7  A    between atoms: C_23  and  C_24 
REMARK    8  A    between atoms: C_25  and  O_26 
ROOT
HETATM    1  N   UNL     1      40.791 -11.926   1.883  1.00  0.00    -0.334 N 
HETATM    2  C   UNL     1      39.556 -12.574   1.736  1.00  0.00     0.273 A 
HETATM    3  O   UNL     1      38.537 -12.176   1.206  1.00  0.00    -0.266 OA
HETATM    4  C   UNL     1      39.772 -13.833   2.344  1.00  0.00     0.129 A 
HETATM    5  C   UNL     1      41.034 -13.970   2.840  1.00  0.00     0.034 A 
HETATM    6  C   UNL     1      41.819 -12.742   2.593  1.00  0.00     0.159 A 
HETATM    7  N   UNL     1      39.103 -14.967   2.603  1.00  0.00    -0.272 N 
HETATM    8  H   UNL     1      38.139 -15.208   2.390  1.00  0.00     0.189 HD
HETATM    9  N   UNL     1      39.892 -15.876   3.229  1.00  0.00    -0.173 NA
HETATM   10  C   UNL     1      41.092 -15.265   3.376  1.00  0.00     0.101 A 
ENDROOT
BRANCH  10  11
HETATM   11  C   UNL     1      42.222 -15.936   4.007  1.00  0.00     0.028 A 
HETATM   12  C   UNL     1      42.806 -17.088   3.463  1.00  0.00     0.078 A 
HETATM   13  C   UNL     1      43.939 -17.660   4.039  1.00  0.00     0.037 A 
HETATM   14  C   UNL     1      44.481 -17.105   5.198  1.00  0.00     0.003 A 
HETATM   15  C   UNL     1      43.891 -15.981   5.775  1.00  0.00     0.001 A 
HETATM   16  C   UNL     1      42.769 -15.398   5.181  1.00  0.00     0.017 A 
BRANCH  12  17
HETATM   17  O   UNL     1      42.283 -17.736   2.375  1.00  0.00    -0.360 OA
HETATM   18  H   UNL     1      43.003 -18.280   2.009  1.00  0.00     0.217 HD
ENDBRANCH  12  17
ENDBRANCH  10  11
BRANCH   6  19
HETATM   19  C   UNL     1      42.250 -12.190   3.930  1.00  0.00    -0.031 A 
HETATM   20  C   UNL     1      43.615 -11.936   4.155  1.00  0.00     0.011 A 
HETATM   21  C   UNL     1      44.057 -11.412   5.373  1.00  0.00     0.024 A 
HETATM   22  C   UNL     1      43.138 -11.140   6.382  1.00  0.00     0.034 A 
HETATM   23 CL   UNL     1      43.681 -10.490   7.880  1.00  0.00    -0.084 Cl
HETATM   24  C   UNL     1      41.783 -11.390   6.187  1.00  0.00     0.024 A 
HETATM   25  C   UNL     1      41.341 -11.913   4.967  1.00  0.00     0.011 A 
ENDBRANCH   6  19
BRANCH   1  26
HETATM   26  C   UNL     1      41.061 -10.595   1.365  1.00  0.00     0.129 C 
BRANCH  26  27
HETATM   27  C   UNL     1      41.697 -10.592  -0.027  1.00  0.00     0.046 C 
BRANCH  27  28
HETATM   28  C   UNL     1      40.730 -11.021  -1.125  1.00  0.00     0.169 C 
BRANCH  28  29
HETATM   29  O   UNL     1      40.956 -12.394  -1.428  1.00  0.00    -0.387 OA
BRANCH  29  30
HETATM   30  C   UNL     1      39.944 -12.980  -2.251  1.00  0.00     0.113 C 
HETATM   31  C   UNL     1      38.781 -12.017  -2.464  1.00  0.00     0.039 C 
HETATM   32  C   UNL     1      39.467 -14.241  -1.540  1.00  0.00     0.039 C 
ENDBRANCH  29  30
ENDBRANCH  28  29
ENDBRANCH  27  28
ENDBRANCH  26  27
ENDBRANCH   1  26
TORSDOF 8
ENDMDL
MODEL 8
REMARK VINA RESULT:      -6.5      8.653     11.111
REMARK  8 active torsions:
REMARK  status: ('A' for Active; 'I' for Inactive)
REMARK    1  A    between atoms: C_2  and  O_3 
REMARK    2  A    between atoms: O_3  and  C_4 
REMARK    3  A    between atoms: C_4  and  C_5 
REMARK    4  A    between atoms: C_5  and  C_6 
REMARK    5  A    between atoms: C_6  and  N_7 
REMARK    6  A    between atoms: C_12  and  C_13 
REMARK    7  A    between atoms: C_23  and  C_24 
REMARK    8  A    between atoms: C_25  and  O_26 
ROOT
HETATM    1  N   UNL     1      41.374  -9.140  12.445  1.00  0.00    -0.334 N 
HETATM    2  C   UNL     1      40.359 -10.106  12.514  1.00  0.00     0.273 A 
HETATM    3  O   UNL     1      40.027 -10.807  13.450  1.00  0.00    -0.266 OA
HETATM    4  C   UNL     1      39.784 -10.070  11.222  1.00  0.00     0.129 A 
HETATM    5  C   UNL     1      40.385  -9.163  10.402  1.00  0.00     0.034 A 
HETATM    6  C   UNL     1      41.481  -8.472  11.115  1.00  0.00     0.159 A 
HETATM    7  N   UNL     1      38.808 -10.671  10.525  1.00  0.00    -0.272 N 
HETATM    8  H   UNL     1      38.169 -11.405  10.816  1.00  0.00     0.189 HD
HETATM    9  N   UNL     1      38.715 -10.169   9.268  1.00  0.00    -0.173 NA
HETATM   10  C   UNL     1      39.689  -9.230   9.187  1.00  0.00     0.101 A 
ENDROOT
BRANCH  10  11
HETATM   11  C   UNL     1      39.903  -8.450   7.974  1.00  0.00     0.028 A 
HETATM   12  C   UNL     1      39.125  -7.326   7.661  1.00  0.00     0.078 A 
HETATM   13  C   UNL     1      39.407  -6.548   6.539  1.00  0.00     0.037 A 
HETATM   14  C   UNL     1      40.451  -6.911   5.689  1.00  0.00     0.003 A 
HETATM   15  C   UNL     1      41.211  -8.047   5.964  1.00  0.00     0.001 A 
HETATM   16  C   UNL     1      40.939  -8.812   7.102  1.00  0.00     0.017 A 
BRANCH  12  17
HETATM   17  O   UNL     1      38.035  -6.955   8.402  1.00  0.00    -0.360 OA
HETATM   18  H   UNL     1      37.427  -6.504   7.788  1.00  0.00     0.217 HD
ENDBRANCH  12  17
ENDBRANCH  10  11
BRANCH   6  19
HETATM   19  C   UNL     1      42.766  -8.749  10.372  1.00  0.00    -0.031 A 
HETATM   20  C   UNL     1      43.298  -7.751   9.537  1.00  0.00     0.011 A 
HETATM   21  C   UNL     1      44.493  -7.960   8.840  1.00  0.00     0.024 A 
HETATM   22  C   UNL     1      45.164  -9.172   8.969  1.00  0.00     0.034 A 
HETATM   23 CL   UNL     1      46.637  -9.427   8.116  1.00  0.00    -0.084 Cl
HETATM   24  C   UNL     1      44.653 -10.178   9.783  1.00  0.00     0.024 A 
HETATM   25  C   UNL     1      43.460  -9.968  10.481  1.00  0.00     0.011 A 
ENDBRANCH   6  19
BRANCH   1  26
HETATM   26  C   UNL     1      42.224  -8.794  13.572  1.00  0.00     0.129 C 
BRANCH  26  27
HETATM   27  C   UNL     1      42.700  -7.338  13.561  1.00  0.00     0.046 C 
BRANCH  27  28
HETATM   28  C   UNL     1      41.840  -6.425  14.428  1.00  0.00     0.169 C 
BRANCH  28  29
HETATM   29  O   UNL     1      40.586  -7.058  14.662  1.00  0.00    -0.387 OA
BRANCH  29  30
HETATM   30  C   UNL     1      39.457  -6.216  14.417  1.00  0.00     0.113 C 
HETATM   31  C   UNL     1      38.701  -5.918  15.708  1.00  0.00     0.039 C 
HETATM   32  C   UNL     1      38.558  -6.952  13.432  1.00  0.00     0.039 C 
ENDBRANCH  29  30
ENDBRANCH  28  29
ENDBRANCH  27  28
ENDBRANCH  26  27
ENDBRANCH   1  26
TORSDOF 8
ENDMDL
MODEL 9
REMARK VINA RESULT:      -6.5      3.816      5.661
REMARK  8 active torsions:
REMARK  status: ('A' for Active; 'I' for Inactive)
REMARK    1  A    between atoms: C_2  and  O_3 
REMARK    2  A    between atoms: O_3  and  C_4 
REMARK    3  A    between atoms: C_4  and  C_5 
REMARK    4  A    between atoms: C_5  and  C_6 
REMARK    5  A    between atoms: C_6  and  N_7 
REMARK    6  A    between atoms: C_12  and  C_13 
REMARK    7  A    between atoms: C_23  and  C_24 
REMARK    8  A    between atoms: C_25  and  O_26 
ROOT
HETATM    1  N   UNL     1      41.067 -12.040   1.627  1.00  0.00    -0.334 N 
HETATM    2  C   UNL     1      39.744 -12.500   1.559  1.00  0.00     0.273 A 
HETATM    3  O   UNL     1      38.754 -11.935   1.137  1.00  0.00    -0.266 OA
HETATM    4  C   UNL     1      39.825 -13.809   2.091  1.00  0.00     0.129 A 
HETATM    5  C   UNL     1      41.090 -14.148   2.469  1.00  0.00     0.034 A 
HETATM    6  C   UNL     1      42.021 -13.029   2.209  1.00  0.00     0.159 A 
HETATM    7  N   UNL     1      39.023 -14.852   2.356  1.00  0.00    -0.272 N 
HETATM    8  H   UNL     1      38.022 -14.943   2.217  1.00  0.00     0.189 HD
HETATM    9  N   UNL     1      39.721 -15.895   2.871  1.00  0.00    -0.173 NA
HETATM   10  C   UNL     1      41.004 -15.465   2.940  1.00  0.00     0.101 A 
ENDROOT
BRANCH  10  11
HETATM   11  C   UNL     1      42.073 -16.321   3.441  1.00  0.00     0.028 A 
HETATM   12  C   UNL     1      42.211 -16.626   4.803  1.00  0.00     0.078 A 
HETATM   13  C   UNL     1      43.189 -17.515   5.245  1.00  0.00     0.037 A 
HETATM   14  C   UNL     1      44.073 -18.083   4.328  1.00  0.00     0.003 A 
HETATM   15  C   UNL     1      43.975 -17.763   2.975  1.00  0.00     0.001 A 
HETATM   16  C   UNL     1      42.979 -16.888   2.533  1.00  0.00     0.017 A 
BRANCH  12  17
HETATM   17  O   UNL     1      41.433 -16.045   5.770  1.00  0.00    -0.360 OA
HETATM   18  H   UNL     1      41.016 -15.268   5.355  1.00  0.00     0.217 HD
ENDBRANCH  12  17
ENDBRANCH  10  11
BRANCH   6  19
HETATM   19  C   UNL     1      42.632 -12.617   3.526  1.00  0.00    -0.031 A 
HETATM   20  C   UNL     1      41.923 -12.869   4.714  1.00  0.00     0.011 A 
HETATM   21  C   UNL     1      42.456 -12.516   5.957  1.00  0.00     0.024 A 
HETATM   22  C   UNL     1      43.703 -11.902   6.025  1.00  0.00     0.034 A 
HETATM   23 CL   UNL     1      44.362 -11.473   7.555  1.00  0.00    -0.084 Cl
HETATM   24  C   UNL     1      44.421 -11.635   4.862  1.00  0.00     0.024 A 
HETATM   25  C   UNL     1      43.887 -11.990   3.620  1.00  0.00     0.011 A 
ENDBRANCH   6  19
BRANCH   1  26
HETATM   26  C   UNL     1      41.483 -10.733   1.147  1.00  0.00     0.129 C 
BRANCH  26  27
HETATM   27  C   UNL     1      41.481 -10.607  -0.379  1.00  0.00     0.046 C 
BRANCH  27  28
HETATM   28  C   UNL     1      41.493  -9.159  -0.857  1.00  0.00     0.169 C 
BRANCH  28  29
HETATM   29  O   UNL     1      42.814  -8.642  -0.726  1.00  0.00    -0.387 OA
BRANCH  29  30
HETATM   30  C   UNL     1      43.215  -7.797  -1.808  1.00  0.00     0.113 C 
HETATM   31  C   UNL     1      43.518  -6.384  -1.321  1.00  0.00     0.039 C 
HETATM   32  C   UNL     1      42.067  -7.780  -2.809  1.00  0.00     0.039 C 
ENDBRANCH  29  30
ENDBRANCH  28  29
ENDBRANCH  27  28
ENDBRANCH  26  27
ENDBRANCH   1  26
TORSDOF 8
ENDMDL
MODEL 10
REMARK VINA RESULT:      -6.5      3.997      6.251
REMARK  8 active torsions:
REMARK  status: ('A' for Active; 'I' for Inactive)
REMARK    1  A    between atoms: C_2  and  O_3 
REMARK    2  A    between atoms: O_3  and  C_4 
REMARK    3  A    between atoms: C_4  and  C_5 
REMARK    4  A    between atoms: C_5  and  C_6 
REMARK    5  A    between atoms: C_6  and  N_7 
REMARK    6  A    between atoms: C_12  and  C_13 
REMARK    7  A    between atoms: C_23  and  C_24 
REMARK    8  A    between atoms: C_25  and  O_26 
ROOT
HETATM    1  N   UNL     1      40.987 -12.259  -0.418  1.00  0.00    -0.334 N 
HETATM    2  C   UNL     1      39.937 -12.998  -0.984  1.00  0.00     0.273 A 
HETATM    3  O   UNL     1      39.210 -12.712  -1.915  1.00  0.00    -0.266 OA
HETATM    4  C   UNL     1      39.926 -14.188  -0.218  1.00  0.00     0.129 A 
HETATM    5  C   UNL     1      40.881 -14.201   0.753  1.00  0.00     0.034 A 
HETATM    6  C   UNL     1      41.663 -12.946   0.722  1.00  0.00     0.159 A 
HETATM    7  N   UNL     1      39.243 -15.341  -0.140  1.00  0.00    -0.272 N 
HETATM    8  H   UNL     1      38.457 -15.661  -0.696  1.00  0.00     0.189 HD
HETATM    9  N   UNL     1      39.737 -16.143   0.838  1.00  0.00    -0.173 NA
HETATM   10  C   UNL     1      40.755 -15.442   1.392  1.00  0.00     0.101 A 
ENDROOT
BRANCH  10  11
HETATM   11  C   UNL     1      41.552 -15.984   2.487  1.00  0.00     0.028 A 
HETATM   12  C   UNL     1      41.202 -15.792   3.831  1.00  0.00     0.078 A 
HETATM   13  C   UNL     1      41.932 -16.393   4.856  1.00  0.00     0.037 A 
HETATM   14  C   UNL     1      43.051 -17.166   4.547  1.00  0.00     0.003 A 
HETATM   15  C   UNL     1      43.435 -17.337   3.218  1.00  0.00     0.001 A 
HETATM   16  C   UNL     1      42.688 -16.751   2.193  1.00  0.00     0.017 A 
BRANCH  12  17
HETATM   17  O   UNL     1      40.167 -14.981   4.215  1.00  0.00    -0.360 OA
HETATM   18  H   UNL     1      40.271 -14.151   3.716  1.00  0.00     0.217 HD
ENDBRANCH  12  17
ENDBRANCH  10  11
BRANCH   6  19
HETATM   19  C   UNL     1      41.497 -12.262   2.057  1.00  0.00    -0.031 A 
HETATM   20  C   UNL     1      40.201 -11.967   2.515  1.00  0.00     0.011 A 
HETATM   21  C   UNL     1      40.001 -11.346   3.752  1.00  0.00     0.024 A 
HETATM   22  C   UNL     1      41.097 -11.010   4.542  1.00  0.00     0.034 A 
HETATM   23 CL   UNL     1      40.850 -10.251   6.066  1.00  0.00    -0.084 Cl
HETATM   24  C   UNL     1      42.389 -11.285   4.106  1.00  0.00     0.024 A 
HETATM   25  C   UNL     1      42.589 -11.908   2.870  1.00  0.00     0.011 A 
ENDBRANCH   6  19
BRANCH   1  26
HETATM   26  C   UNL     1      41.404 -10.958  -0.913  1.00  0.00     0.129 C 
BRANCH  26  27
HETATM   27  C   UNL     1      40.579  -9.793  -0.359  1.00  0.00     0.046 C 
BRANCH  27  28
HETATM   28  C   UNL     1      41.353  -8.480  -0.321  1.00  0.00     0.169 C 
BRANCH  28  29
HETATM   29  O   UNL     1      42.695  -8.725  -0.732  1.00  0.00    -0.387 OA
BRANCH  29  30
HETATM   30  C   UNL     1      43.224  -7.724  -1.606  1.00  0.00     0.113 C 
HETATM   31  C   UNL     1      43.224  -6.353  -0.938  1.00  0.00     0.039 C 
HETATM   32  C   UNL     1      42.345  -7.710  -2.851  1.00  0.00     0.039 C 
ENDBRANCH  29  30
ENDBRANCH  28  29
ENDBRANCH  27  28
ENDBRANCH  26  27
ENDBRANCH   1  26
TORSDOF 8
ENDMDL
