MODEL 1
REMARK VINA RESULT:      -9.6      0.000      0.000
REMARK  6 active torsions:
REMARK  status: ('A' for Active; 'I' for Inactive)
REMARK    1  A    between atoms: N_9  and  C_10 
REMARK    2  A    between atoms: C_10  and  C_11 
REMARK       I    between atoms: C_11  and  N_12 
REMARK    3  A    between atoms: N_12  and  C_13 
REMARK    4  A    between atoms: C_16  and  C_17 
REMARK       I    between atoms: C_17  and  N_18 
REMARK    5  A    between atoms: N_18  and  C_19 
REMARK    6  A    between atoms: C_20  and  O_21 
ROOT
HETATM    1  C   UNL     1      45.110 -10.433   7.386  1.00  0.00     0.240 C 
HETATM    2  N   UNL     1      43.873 -10.745   6.842  1.00  0.00    -0.326 N 
HETATM    3  O   UNL     1      46.129 -11.110   7.267  1.00  0.00    -0.271 OA
HETATM    4  H   UNL     1      43.191  -9.992   6.800  1.00  0.00     0.169 HD
ENDROOT
BRANCH   2   5
HETATM    5  C   UNL     1      43.478 -11.970   6.267  1.00  0.00     0.034 A 
HETATM    6  C   UNL     1      43.106 -12.118   4.929  1.00  0.00     0.030 A 
HETATM    7  C   UNL     1      42.766 -13.376   4.416  1.00  0.00     0.019 A 
HETATM    8  C   UNL     1      42.796 -14.505   5.241  1.00  0.00     0.032 A 
HETATM    9  C   UNL     1      43.174 -14.364   6.580  1.00  0.00     0.019 A 
HETATM   10  C   UNL     1      43.506 -13.103   7.090  1.00  0.00     0.030 A 
BRANCH   8  11
HETATM   11  C   UNL     1      42.497 -15.866   4.710  1.00  0.00     0.256 C 
HETATM   12  N   UNL     1      43.569 -16.501   4.104  1.00  0.00    -0.321 N 
HETATM   13  H   UNL     1      44.281 -15.899   3.713  1.00  0.00     0.169 HD
HETATM   14  O   UNL     1      41.343 -16.277   4.763  1.00  0.00    -0.267 OA
BRANCH  12  15
HETATM   15  C   UNL     1      43.597 -17.857   3.708  1.00  0.00     0.068 A 
HETATM   16  C   UNL     1      43.861 -18.926   4.583  1.00  0.00     0.095 A 
HETATM   17  C   UNL     1      43.862 -20.241   4.096  1.00  0.00     0.039 A 
HETATM   18  C   UNL     1      43.607 -20.495   2.748  1.00  0.00     0.003 A 
HETATM   19  C   UNL     1      43.384 -19.438   1.872  1.00  0.00     0.002 A 
HETATM   20  C   UNL     1      43.394 -18.123   2.346  1.00  0.00     0.032 A 
BRANCH  16  21
HETATM   21  O   UNL     1      44.298 -18.646   5.854  1.00  0.00    -0.354 OA
HETATM   22  C   UNL     1      43.311 -18.826   6.864  1.00  0.00     0.210 C 
ENDBRANCH  16  21
ENDBRANCH  12  15
ENDBRANCH   8  11
ENDBRANCH   2   5
BRANCH   1  23
HETATM   23  C   UNL     1      45.187  -9.044   8.024  1.00  0.00     0.240 C 
BRANCH  23  24
HETATM   24  N   UNL     1      44.063  -8.745   8.888  1.00  0.00    -0.259 N 
HETATM   25  C   UNL     1      42.899  -8.187   8.478  1.00  0.00     0.326 A 
HETATM   26  N   UNL     1      42.106  -7.957   9.570  1.00  0.00    -0.324 N 
HETATM   27  O   UNL     1      42.567  -7.989   7.320  1.00  0.00    -0.247 OA
HETATM   28  C   UNL     1      42.663  -8.511  10.792  1.00  0.00     0.116 A 
HETATM   29  H   UNL     1      41.162  -7.607   9.462  1.00  0.00     0.165 HD
HETATM   30  C   UNL     1      41.796  -9.681  11.269  1.00  0.00     0.041 C 
HETATM   31  C   UNL     1      44.019  -9.003  10.230  1.00  0.00     0.256 A 
HETATM   32  C   UNL     1      42.861  -7.418  11.844  1.00  0.00     0.041 C 
HETATM   33  C   UNL     1      42.185 -10.194  12.656  1.00  0.00     0.007 C 
HETATM   34  C   UNL     1      42.298  -9.082  13.705  1.00  0.00    -0.019 C 
HETATM   35  C   UNL     1      40.927  -8.527  14.100  1.00  0.00     0.010 C 
HETATM   36  C   UNL     1      43.240  -7.974  13.219  1.00  0.00     0.007 C 
HETATM   37  O   UNL     1      44.903  -9.545  10.878  1.00  0.00    -0.270 OA
ENDBRANCH  23  24
ENDBRANCH   1  23
TORSDOF 6
ENDMDL
MODEL 2
REMARK VINA RESULT:      -9.5      1.210      1.992
REMARK  6 active torsions:
REMARK  status: ('A' for Active; 'I' for Inactive)
REMARK    1  A    between atoms: N_9  and  C_10 
REMARK    2  A    between atoms: C_10  and  C_11 
REMARK       I    between atoms: C_11  and  N_12 
REMARK    3  A    between atoms: N_12  and  C_13 
REMARK    4  A    between atoms: C_16  and  C_17 
REMARK       I    between atoms: C_17  and  N_18 
REMARK    5  A    between atoms: N_18  and  C_19 
REMARK    6  A    between atoms: C_20  and  O_21 
ROOT
HETATM    1  C   UNL     1      42.821 -10.319   7.373  1.00  0.00     0.240 C 
HETATM    2  N   UNL     1      43.633 -11.414   7.120  1.00  0.00    -0.326 N 
HETATM    3  O   UNL     1      41.613 -10.264   7.147  1.00  0.00    -0.271 OA
HETATM    4  H   UNL     1      44.542 -11.423   7.577  1.00  0.00     0.169 HD
ENDROOT
BRANCH   2   5
HETATM    5  C   UNL     1      43.314 -12.557   6.360  1.00  0.00     0.034 A 
HETATM    6  C   UNL     1      43.068 -12.535   4.985  1.00  0.00     0.030 A 
HETATM    7  C   UNL     1      42.799 -13.719   4.287  1.00  0.00     0.019 A 
HETATM    8  C   UNL     1      42.775 -14.944   4.961  1.00  0.00     0.032 A 
HETATM    9  C   UNL     1      43.028 -14.973   6.336  1.00  0.00     0.019 A 
HETATM   10  C   UNL     1      43.289 -13.786   7.031  1.00  0.00     0.030 A 
BRANCH   8  11
HETATM   11  C   UNL     1      42.551 -16.228   4.237  1.00  0.00     0.256 C 
HETATM   12  N   UNL     1      43.681 -17.015   4.086  1.00  0.00    -0.321 N 
HETATM   13  H   UNL     1      44.567 -16.528   4.087  1.00  0.00     0.169 HD
HETATM   14  O   UNL     1      41.442 -16.448   3.761  1.00  0.00    -0.267 OA
BRANCH  12  15
HETATM   15  C   UNL     1      43.691 -18.350   3.621  1.00  0.00     0.068 A 
HETATM   16  C   UNL     1      43.919 -19.467   4.445  1.00  0.00     0.095 A 
HETATM   17  C   UNL     1      43.904 -20.755   3.890  1.00  0.00     0.039 A 
HETATM   18  C   UNL     1      43.669 -20.934   2.526  1.00  0.00     0.003 A 
HETATM   19  C   UNL     1      43.482 -19.829   1.702  1.00  0.00     0.002 A 
HETATM   20  C   UNL     1      43.508 -18.541   2.244  1.00  0.00     0.032 A 
BRANCH  16  21
HETATM   21  O   UNL     1      44.338 -19.261   5.736  1.00  0.00    -0.354 OA
HETATM   22  C   UNL     1      43.302 -19.353   6.708  1.00  0.00     0.210 C 
ENDBRANCH  16  21
ENDBRANCH  12  15
ENDBRANCH   8  11
ENDBRANCH   2   5
BRANCH   1  23
HETATM   23  C   UNL     1      43.503  -9.193   8.151  1.00  0.00     0.240 C 
BRANCH  23  24
HETATM   24  N   UNL     1      43.442  -9.367   9.589  1.00  0.00    -0.259 N 
HETATM   25  C   UNL     1      44.237 -10.202  10.300  1.00  0.00     0.326 A 
HETATM   26  N   UNL     1      43.839 -10.186  11.610  1.00  0.00    -0.324 N 
HETATM   27  O   UNL     1      45.201 -10.815   9.871  1.00  0.00    -0.247 OA
HETATM   28  C   UNL     1      42.819  -9.186  11.872  1.00  0.00     0.116 A 
HETATM   29  H   UNL     1      44.357 -10.695  12.317  1.00  0.00     0.165 HD
HETATM   30  C   UNL     1      43.401  -8.075  12.753  1.00  0.00     0.041 C 
HETATM   31  C   UNL     1      42.591  -8.697  10.422  1.00  0.00     0.256 A 
HETATM   32  C   UNL     1      41.557  -9.833  12.448  1.00  0.00     0.041 C 
HETATM   33  C   UNL     1      42.348  -7.085  13.252  1.00  0.00     0.007 C 
HETATM   34  C   UNL     1      41.133  -7.764  13.893  1.00  0.00    -0.019 C 
HETATM   35  C   UNL     1      41.469  -8.368  15.259  1.00  0.00     0.010 C 
HETATM   36  C   UNL     1      40.534  -8.809  12.943  1.00  0.00     0.007 C 
HETATM   37  O   UNL     1      41.786  -7.843  10.077  1.00  0.00    -0.270 OA
ENDBRANCH  23  24
ENDBRANCH   1  23
TORSDOF 6
ENDMDL
MODEL 3
REMARK VINA RESULT:      -9.0      2.011      2.433
REMARK  6 active torsions:
REMARK  status: ('A' for Active; 'I' for Inactive)
REMARK    1  A    between atoms: N_9  and  C_10 
REMARK    2  A    between atoms: C_10  and  C_11 
REMARK       I    between atoms: C_11  and  N_12 
REMARK    3  A    between atoms: N_12  and  C_13 
REMARK    4  A    between atoms: C_16  and  C_17 
REMARK       I    between atoms: C_17  and  N_18 
REMARK    5  A    between atoms: N_18  and  C_19 
REMARK    6  A    between atoms: C_20  and  O_21 
ROOT
HETATM    1  C   UNL     1      41.535  -9.601   7.417  1.00  0.00     0.240 C 
HETATM    2  N   UNL     1      40.753 -10.200   6.441  1.00  0.00    -0.326 N 
HETATM    3  O   UNL     1      42.636 -10.003   7.790  1.00  0.00    -0.271 OA
HETATM    4  H   UNL     1      39.998  -9.639   6.054  1.00  0.00     0.169 HD
ENDROOT
BRANCH   2   5
HETATM    5  C   UNL     1      40.933 -11.475   5.866  1.00  0.00     0.034 A 
HETATM    6  C   UNL     1      41.981 -11.799   5.001  1.00  0.00     0.030 A 
HETATM    7  C   UNL     1      42.121 -13.100   4.502  1.00  0.00     0.019 A 
HETATM    8  C   UNL     1      41.209 -14.095   4.866  1.00  0.00     0.032 A 
HETATM    9  C   UNL     1      40.161 -13.779   5.736  1.00  0.00     0.019 A 
HETATM   10  C   UNL     1      40.021 -12.475   6.227  1.00  0.00     0.030 A 
BRANCH   8  11
HETATM   11  C   UNL     1      41.365 -15.503   4.398  1.00  0.00     0.256 C 
HETATM   12  N   UNL     1      42.657 -15.857   4.044  1.00  0.00    -0.321 N 
HETATM   13  H   UNL     1      43.259 -15.104   3.741  1.00  0.00     0.169 HD
HETATM   14  O   UNL     1      40.360 -16.196   4.276  1.00  0.00    -0.267 OA
BRANCH  12  15
HETATM   15  C   UNL     1      43.095 -17.172   3.767  1.00  0.00     0.068 A 
HETATM   16  C   UNL     1      43.822 -17.965   4.673  1.00  0.00     0.095 A 
HETATM   17  C   UNL     1      44.209 -19.262   4.307  1.00  0.00     0.039 A 
HETATM   18  C   UNL     1      43.883 -19.768   3.048  1.00  0.00     0.003 A 
HETATM   19  C   UNL     1      43.199 -18.972   2.135  1.00  0.00     0.002 A 
HETATM   20  C   UNL     1      42.820 -17.674   2.487  1.00  0.00     0.032 A 
BRANCH  16  21
HETATM   21  O   UNL     1      44.298 -17.386   5.823  1.00  0.00    -0.354 OA
HETATM   22  C   UNL     1      43.455 -17.561   6.957  1.00  0.00     0.210 C 
ENDBRANCH  16  21
ENDBRANCH  12  15
ENDBRANCH   8  11
ENDBRANCH   2   5
BRANCH   1  23
HETATM   23  C   UNL     1      41.012  -8.249   7.903  1.00  0.00     0.240 C 
BRANCH  23  24
HETATM   24  N   UNL     1      40.793  -8.196   9.335  1.00  0.00    -0.259 N 
HETATM   25  C   UNL     1      39.661  -8.598   9.958  1.00  0.00     0.326 A 
HETATM   26  N   UNL     1      39.764  -8.315  11.294  1.00  0.00    -0.324 N 
HETATM   27  O   UNL     1      38.726  -9.188   9.441  1.00  0.00    -0.247 OA
HETATM   28  C   UNL     1      41.083  -7.832  11.663  1.00  0.00     0.116 A 
HETATM   29  H   UNL     1      39.043  -8.605  11.944  1.00  0.00     0.165 HD
HETATM   30  C   UNL     1      41.791  -8.876  12.533  1.00  0.00     0.041 C 
HETATM   31  C   UNL     1      41.708  -7.755  10.249  1.00  0.00     0.256 A 
HETATM   32  C   UNL     1      40.994  -6.447  12.308  1.00  0.00     0.041 C 
HETATM   33  C   UNL     1      43.100  -8.371  13.139  1.00  0.00     0.007 C 
HETATM   34  C   UNL     1      42.959  -7.017  13.846  1.00  0.00    -0.019 C 
HETATM   35  C   UNL     1      42.188  -7.138  15.163  1.00  0.00     0.010 C 
HETATM   36  C   UNL     1      42.322  -5.982  12.910  1.00  0.00     0.007 C 
HETATM   37  O   UNL     1      42.841  -7.371   9.992  1.00  0.00    -0.270 OA
ENDBRANCH  23  24
ENDBRANCH   1  23
TORSDOF 6
ENDMDL
MODEL 4
REMARK VINA RESULT:      -8.8      1.935      2.252
REMARK  6 active torsions:
REMARK  status: ('A' for Active; 'I' for Inactive)
REMARK    1  A    between atoms: N_9  and  C_10 
REMARK    2  A    between atoms: C_10  and  C_11 
REMARK       I    between atoms: C_11  and  N_12 
REMARK    3  A    between atoms: N_12  and  C_13 
REMARK    4  A    between atoms: C_16  and  C_17 
REMARK       I    between atoms: C_17  and  N_18 
REMARK    5  A    between atoms: N_18  and  C_19 
REMARK    6  A    between atoms: C_20  and  O_21 
ROOT
HETATM    1  C   UNL     1      41.530  -9.712   7.230  1.00  0.00     0.240 C 
HETATM    2  N   UNL     1      40.722 -10.349   6.301  1.00  0.00    -0.326 N 
HETATM    3  O   UNL     1      42.644 -10.095   7.583  1.00  0.00    -0.271 OA
HETATM    4  H   UNL     1      39.952  -9.806   5.918  1.00  0.00     0.169 HD
ENDROOT
BRANCH   2   5
HETATM    5  C   UNL     1      40.891 -11.642   5.766  1.00  0.00     0.034 A 
HETATM    6  C   UNL     1      41.817 -11.957   4.769  1.00  0.00     0.030 A 
HETATM    7  C   UNL     1      41.961 -13.275   4.315  1.00  0.00     0.019 A 
HETATM    8  C   UNL     1      41.175 -14.296   4.860  1.00  0.00     0.032 A 
HETATM    9  C   UNL     1      40.251 -13.988   5.863  1.00  0.00     0.019 A 
HETATM   10  C   UNL     1      40.106 -12.668   6.307  1.00  0.00     0.030 A 
BRANCH   8  11
HETATM   11  C   UNL     1      41.345 -15.717   4.440  1.00  0.00     0.256 C 
HETATM   12  N   UNL     1      42.632 -16.059   4.058  1.00  0.00    -0.321 N 
HETATM   13  H   UNL     1      43.208 -15.306   3.707  1.00  0.00     0.169 HD
HETATM   14  O   UNL     1      40.352 -16.433   4.377  1.00  0.00    -0.267 OA
BRANCH  12  15
HETATM   15  C   UNL     1      43.089 -17.374   3.816  1.00  0.00     0.068 A 
HETATM   16  C   UNL     1      43.799 -18.145   4.754  1.00  0.00     0.095 A 
HETATM   17  C   UNL     1      44.207 -19.444   4.422  1.00  0.00     0.039 A 
HETATM   18  C   UNL     1      43.917 -19.976   3.165  1.00  0.00     0.003 A 
HETATM   19  C   UNL     1      43.250 -19.203   2.220  1.00  0.00     0.002 A 
HETATM   20  C   UNL     1      42.851 -17.902   2.539  1.00  0.00     0.032 A 
BRANCH  16  21
HETATM   21  O   UNL     1      44.241 -17.541   5.905  1.00  0.00    -0.354 OA
HETATM   22  C   UNL     1      43.405 -17.758   7.037  1.00  0.00     0.210 C 
ENDBRANCH  16  21
ENDBRANCH  12  15
ENDBRANCH   8  11
ENDBRANCH   2   5
BRANCH   1  23
HETATM   23  C   UNL     1      41.014  -8.346   7.685  1.00  0.00     0.240 C 
BRANCH  23  24
HETATM   24  N   UNL     1      41.715  -7.820   8.840  1.00  0.00    -0.259 N 
HETATM   25  C   UNL     1      42.678  -6.870   8.792  1.00  0.00     0.326 A 
HETATM   26  N   UNL     1      43.186  -6.688  10.051  1.00  0.00    -0.324 N 
HETATM   27  O   UNL     1      42.996  -6.218   7.811  1.00  0.00    -0.247 OA
HETATM   28  C   UNL     1      42.452  -7.429  11.062  1.00  0.00     0.116 A 
HETATM   29  H   UNL     1      43.871  -5.965  10.236  1.00  0.00     0.165 HD
HETATM   30  C   UNL     1      41.700  -6.453  11.972  1.00  0.00     0.041 C 
HETATM   31  C   UNL     1      41.483  -8.198  10.133  1.00  0.00     0.256 A 
HETATM   32  C   UNL     1      43.379  -8.386  11.815  1.00  0.00     0.041 C 
HETATM   33  C   UNL     1      41.067  -7.126  13.190  1.00  0.00     0.007 C 
HETATM   34  C   UNL     1      42.043  -8.017  13.967  1.00  0.00    -0.019 C 
HETATM   35  C   UNL     1      43.078  -7.194  14.738  1.00  0.00     0.010 C 
HETATM   36  C   UNL     1      42.711  -9.033  13.031  1.00  0.00     0.007 C 
HETATM   37  O   UNL     1      40.639  -9.005  10.496  1.00  0.00    -0.270 OA
ENDBRANCH  23  24
ENDBRANCH   1  23
TORSDOF 6
ENDMDL
MODEL 5
REMARK VINA RESULT:      -8.6      2.470     10.673
REMARK  6 active torsions:
REMARK  status: ('A' for Active; 'I' for Inactive)
REMARK    1  A    between atoms: N_9  and  C_10 
REMARK    2  A    between atoms: C_10  and  C_11 
REMARK       I    between atoms: C_11  and  N_12 
REMARK    3  A    between atoms: N_12  and  C_13 
REMARK    4  A    between atoms: C_16  and  C_17 
REMARK       I    between atoms: C_17  and  N_18 
REMARK    5  A    between atoms: N_18  and  C_19 
REMARK    6  A    between atoms: C_20  and  O_21 
ROOT
HETATM    1  C   UNL     1      41.077 -10.921   4.692  1.00  0.00     0.240 C 
HETATM    2  N   UNL     1      42.334 -10.807   5.266  1.00  0.00    -0.326 N 
HETATM    3  O   UNL     1      40.022 -10.573   5.219  1.00  0.00    -0.271 OA
HETATM    4  H   UNL     1      43.131 -10.894   4.639  1.00  0.00     0.169 HD
ENDROOT
BRANCH   2   5
HETATM    5  C   UNL     1      42.635 -10.508   6.610  1.00  0.00     0.034 A 
HETATM    6  C   UNL     1      43.735 -11.029   7.297  1.00  0.00     0.030 A 
HETATM    7  C   UNL     1      43.996 -10.652   8.620  1.00  0.00     0.019 A 
HETATM    8  C   UNL     1      43.156  -9.743   9.272  1.00  0.00     0.032 A 
HETATM    9  C   UNL     1      42.059  -9.213   8.588  1.00  0.00     0.019 A 
HETATM   10  C   UNL     1      41.797  -9.599   7.267  1.00  0.00     0.030 A 
BRANCH   8  11
HETATM   11  C   UNL     1      43.441  -9.277  10.660  1.00  0.00     0.256 C 
HETATM   12  N   UNL     1      42.384  -8.637  11.285  1.00  0.00    -0.321 N 
HETATM   13  H   UNL     1      41.712  -8.187  10.678  1.00  0.00     0.169 HD
HETATM   14  O   UNL     1      44.578  -9.406  11.101  1.00  0.00    -0.267 OA
BRANCH  12  15
HETATM   15  C   UNL     1      42.336  -8.287  12.654  1.00  0.00     0.068 A 
HETATM   16  C   UNL     1      41.610  -9.003  13.623  1.00  0.00     0.095 A 
HETATM   17  C   UNL     1      41.628  -8.580  14.960  1.00  0.00     0.039 A 
HETATM   18  C   UNL     1      42.357  -7.450  15.333  1.00  0.00     0.003 A 
HETATM   19  C   UNL     1      43.044  -6.717  14.371  1.00  0.00     0.002 A 
HETATM   20  C   UNL     1      43.021  -7.124  13.034  1.00  0.00     0.032 A 
BRANCH  16  21
HETATM   21  O   UNL     1      40.750  -9.989  13.208  1.00  0.00    -0.354 OA
HETATM   22  C   UNL     1      39.481  -9.511  12.772  1.00  0.00     0.210 C 
ENDBRANCH  16  21
ENDBRANCH  12  15
ENDBRANCH   8  11
ENDBRANCH   2   5
BRANCH   1  23
HETATM   23  C   UNL     1      41.090 -11.358   3.226  1.00  0.00     0.240 C 
BRANCH  23  24
HETATM   24  N   UNL     1      40.955 -12.791   3.051  1.00  0.00    -0.259 N 
HETATM   25  C   UNL     1      39.782 -13.437   2.852  1.00  0.00     0.326 A 
HETATM   26  N   UNL     1      40.016 -14.786   2.828  1.00  0.00    -0.324 N 
HETATM   27  O   UNL     1      38.699 -12.914   2.647  1.00  0.00    -0.247 OA
HETATM   28  C   UNL     1      41.432 -15.108   2.859  1.00  0.00     0.116 A 
HETATM   29  H   UNL     1      39.270 -15.440   2.619  1.00  0.00     0.165 HD
HETATM   30  C   UNL     1      41.854 -15.708   1.514  1.00  0.00     0.041 C 
HETATM   31  C   UNL     1      41.994 -13.678   3.043  1.00  0.00     0.256 A 
HETATM   32  C   UNL     1      41.762 -15.995   4.062  1.00  0.00     0.041 C 
HETATM   33  C   UNL     1      43.276 -16.268   1.521  1.00  0.00     0.007 C 
HETATM   34  C   UNL     1      43.550 -17.215   2.696  1.00  0.00    -0.019 C 
HETATM   35  C   UNL     1      42.832 -18.556   2.528  1.00  0.00     0.010 C 
HETATM   36  C   UNL     1      43.190 -16.542   4.027  1.00  0.00     0.007 C 
HETATM   37  O   UNL     1      43.177 -13.388   3.153  1.00  0.00    -0.270 OA
ENDBRANCH  23  24
ENDBRANCH   1  23
TORSDOF 6
ENDMDL
MODEL 6
REMARK VINA RESULT:      -8.6      2.821     11.389
REMARK  6 active torsions:
REMARK  status: ('A' for Active; 'I' for Inactive)
REMARK    1  A    between atoms: N_9  and  C_10 
REMARK    2  A    between atoms: C_10  and  C_11 
REMARK       I    between atoms: C_11  and  N_12 
REMARK    3  A    between atoms: N_12  and  C_13 
REMARK    4  A    between atoms: C_16  and  C_17 
REMARK       I    between atoms: C_17  and  N_18 
REMARK    5  A    between atoms: N_18  and  C_19 
REMARK    6  A    between atoms: C_20  and  O_21 
ROOT
HETATM    1  C   UNL     1      43.787 -11.182   7.591  1.00  0.00     0.240 C 
HETATM    2  N   UNL     1      44.425 -10.780   8.754  1.00  0.00    -0.326 N 
HETATM    3  O   UNL     1      42.782 -10.656   7.115  1.00  0.00    -0.271 OA
HETATM    4  H   UNL     1      45.371 -11.128   8.899  1.00  0.00     0.169 HD
ENDROOT
BRANCH   2   5
HETATM    5  C   UNL     1      43.944  -9.880   9.726  1.00  0.00     0.034 A 
HETATM    6  C   UNL     1      43.784  -8.509   9.507  1.00  0.00     0.030 A 
HETATM    7  C   UNL     1      43.258  -7.681  10.506  1.00  0.00     0.019 A 
HETATM    8  C   UNL     1      42.883  -8.220  11.741  1.00  0.00     0.032 A 
HETATM    9  C   UNL     1      43.035  -9.591  11.965  1.00  0.00     0.019 A 
HETATM   10  C   UNL     1      43.568 -10.414  10.965  1.00  0.00     0.030 A 
BRANCH   8  11
HETATM   11  C   UNL     1      42.265  -7.375  12.804  1.00  0.00     0.256 C 
HETATM   12  N   UNL     1      41.323  -8.023  13.585  1.00  0.00    -0.321 N 
HETATM   13  H   UNL     1      40.848  -8.805  13.155  1.00  0.00     0.169 HD
HETATM   14  O   UNL     1      42.556  -6.184  12.851  1.00  0.00    -0.267 OA
BRANCH  12  15
HETATM   15  C   UNL     1      40.751  -7.506  14.770  1.00  0.00     0.068 A 
HETATM   16  C   UNL     1      39.622  -6.669  14.797  1.00  0.00     0.095 A 
HETATM   17  C   UNL     1      39.125  -6.210  16.026  1.00  0.00     0.039 A 
HETATM   18  C   UNL     1      39.747  -6.574  17.220  1.00  0.00     0.003 A 
HETATM   19  C   UNL     1      40.888  -7.370  17.195  1.00  0.00     0.002 A 
HETATM   20  C   UNL     1      41.397  -7.822  15.974  1.00  0.00     0.032 A 
BRANCH  16  21
HETATM   21  O   UNL     1      39.143  -6.167  13.613  1.00  0.00    -0.354 OA
HETATM   22  C   UNL     1      37.900  -6.725  13.201  1.00  0.00     0.210 C 
ENDBRANCH  16  21
ENDBRANCH  12  15
ENDBRANCH   8  11
ENDBRANCH   2   5
BRANCH   1  23
HETATM   23  C   UNL     1      44.536 -12.253   6.797  1.00  0.00     0.240 C 
BRANCH  23  24
HETATM   24  N   UNL     1      43.663 -13.244   6.200  1.00  0.00    -0.259 N 
HETATM   25  C   UNL     1      43.176 -14.332   6.843  1.00  0.00     0.326 A 
HETATM   26  N   UNL     1      42.471 -15.097   5.953  1.00  0.00    -0.324 N 
HETATM   27  O   UNL     1      43.276 -14.566   8.037  1.00  0.00    -0.247 OA
HETATM   28  C   UNL     1      42.321 -14.453   4.660  1.00  0.00     0.116 A 
HETATM   29  H   UNL     1      41.968 -15.921   6.259  1.00  0.00     0.165 HD
HETATM   30  C   UNL     1      40.852 -14.073   4.440  1.00  0.00     0.041 C 
HETATM   31  C   UNL     1      43.197 -13.203   4.916  1.00  0.00     0.256 A 
HETATM   32  C   UNL     1      42.906 -15.324   3.546  1.00  0.00     0.041 C 
HETATM   33  C   UNL     1      40.561 -13.578   3.024  1.00  0.00     0.007 C 
HETATM   34  C   UNL     1      41.093 -14.513   1.932  1.00  0.00    -0.019 C 
HETATM   35  C   UNL     1      40.278 -15.805   1.839  1.00  0.00     0.010 C 
HETATM   36  C   UNL     1      42.585 -14.799   2.145  1.00  0.00     0.007 C 
HETATM   37  O   UNL     1      43.426 -12.316   4.106  1.00  0.00    -0.270 OA
ENDBRANCH  23  24
ENDBRANCH   1  23
TORSDOF 6
ENDMDL
MODEL 7
REMARK VINA RESULT:      -8.4      2.317     10.533
REMARK  6 active torsions:
REMARK  status: ('A' for Active; 'I' for Inactive)
REMARK    1  A    between atoms: N_9  and  C_10 
REMARK    2  A    between atoms: C_10  and  C_11 
REMARK       I    between atoms: C_11  and  N_12 
REMARK    3  A    between atoms: N_12  and  C_13 
REMARK    4  A    between atoms: C_16  and  C_17 
REMARK       I    between atoms: C_17  and  N_18 
REMARK    5  A    between atoms: N_18  and  C_19 
REMARK    6  A    between atoms: C_20  and  O_21 
ROOT
HETATM    1  C   UNL     1      42.018 -12.246   2.382  1.00  0.00     0.240 C 
HETATM    2  N   UNL     1      42.104 -12.506   3.741  1.00  0.00    -0.326 N 
HETATM    3  O   UNL     1      42.307 -11.179   1.843  1.00  0.00    -0.271 OA
HETATM    4  H   UNL     1      42.079 -13.484   4.021  1.00  0.00     0.169 HD
ENDROOT
BRANCH   2   5
HETATM    5  C   UNL     1      42.300 -11.572   4.778  1.00  0.00     0.034 A 
HETATM    6  C   UNL     1      41.358 -10.610   5.149  1.00  0.00     0.030 A 
HETATM    7  C   UNL     1      41.604  -9.741   6.220  1.00  0.00     0.019 A 
HETATM    8  C   UNL     1      42.802  -9.829   6.936  1.00  0.00     0.032 A 
HETATM    9  C   UNL     1      43.747 -10.794   6.574  1.00  0.00     0.019 A 
HETATM   10  C   UNL     1      43.499 -11.655   5.498  1.00  0.00     0.030 A 
BRANCH   8  11
HETATM   11  C   UNL     1      43.069  -8.959   8.118  1.00  0.00     0.256 C 
HETATM   12  N   UNL     1      42.206  -9.149   9.184  1.00  0.00    -0.321 N 
HETATM   13  H   UNL     1      41.288  -9.507   8.958  1.00  0.00     0.169 HD
HETATM   14  O   UNL     1      43.943  -8.104   8.032  1.00  0.00    -0.267 OA
BRANCH  12  15
HETATM   15  C   UNL     1      42.372  -8.599  10.476  1.00  0.00     0.068 A 
HETATM   16  C   UNL     1      41.914  -7.324  10.852  1.00  0.00     0.095 A 
HETATM   17  C   UNL     1      42.123  -6.867  12.161  1.00  0.00     0.039 A 
HETATM   18  C   UNL     1      42.787  -7.669  13.091  1.00  0.00     0.003 A 
HETATM   19  C   UNL     1      43.276  -8.914  12.712  1.00  0.00     0.002 A 
HETATM   20  C   UNL     1      43.083  -9.372  11.406  1.00  0.00     0.032 A 
BRANCH  16  21
HETATM   21  O   UNL     1      41.441  -6.479   9.879  1.00  0.00    -0.354 OA
HETATM   22  C   UNL     1      42.282  -5.361   9.616  1.00  0.00     0.210 C 
ENDBRANCH  16  21
ENDBRANCH  12  15
ENDBRANCH   8  11
ENDBRANCH   2   5
BRANCH   1  23
HETATM   23  C   UNL     1      41.698 -13.472   1.524  1.00  0.00     0.240 C 
BRANCH  23  24
HETATM   24  N   UNL     1      41.675 -14.711   2.276  1.00  0.00    -0.259 N 
HETATM   25  C   UNL     1      40.563 -15.270   2.808  1.00  0.00     0.326 A 
HETATM   26  N   UNL     1      40.923 -16.376   3.530  1.00  0.00    -0.324 N 
HETATM   27  O   UNL     1      39.414 -14.905   2.619  1.00  0.00    -0.247 OA
HETATM   28  C   UNL     1      42.330 -16.706   3.382  1.00  0.00     0.116 A 
HETATM   29  H   UNL     1      40.222 -16.975   3.950  1.00  0.00     0.165 HD
HETATM   30  C   UNL     1      42.473 -18.018   2.604  1.00  0.00     0.041 C 
HETATM   31  C   UNL     1      42.768 -15.491   2.530  1.00  0.00     0.256 A 
HETATM   32  C   UNL     1      43.033 -16.715   4.742  1.00  0.00     0.041 C 
HETATM   33  C   UNL     1      43.905 -18.552   2.577  1.00  0.00     0.007 C 
HETATM   34  C   UNL     1      44.553 -18.621   3.965  1.00  0.00    -0.019 C 
HETATM   35  C   UNL     1      43.960 -19.746   4.817  1.00  0.00     0.010 C 
HETATM   36  C   UNL     1      44.460 -17.264   4.674  1.00  0.00     0.007 C 
HETATM   37  O   UNL     1      43.905 -15.270   2.138  1.00  0.00    -0.270 OA
ENDBRANCH  23  24
ENDBRANCH   1  23
TORSDOF 6
ENDMDL
MODEL 8
REMARK VINA RESULT:      -8.4      5.010      9.120
REMARK  6 active torsions:
REMARK  status: ('A' for Active; 'I' for Inactive)
REMARK    1  A    between atoms: N_9  and  C_10 
REMARK    2  A    between atoms: C_10  and  C_11 
REMARK       I    between atoms: C_11  and  N_12 
REMARK    3  A    between atoms: N_12  and  C_13 
REMARK    4  A    between atoms: C_16  and  C_17 
REMARK       I    between atoms: C_17  and  N_18 
REMARK    5  A    between atoms: N_18  and  C_19 
REMARK    6  A    between atoms: C_20  and  O_21 
ROOT
HETATM    1  C   UNL     1      40.169  -5.961  14.620  1.00  0.00     0.240 C 
HETATM    2  N   UNL     1      40.747  -7.194  14.880  1.00  0.00    -0.326 N 
HETATM    3  O   UNL     1      39.942  -5.505  13.501  1.00  0.00    -0.271 OA
HETATM    4  H   UNL     1      40.649  -7.554  15.827  1.00  0.00     0.169 HD
ENDROOT
BRANCH   2   5
HETATM    5  C   UNL     1      41.391  -8.046  13.960  1.00  0.00     0.034 A 
HETATM    6  C   UNL     1      40.826  -9.221  13.458  1.00  0.00     0.030 A 
HETATM    7  C   UNL     1      41.507  -9.997  12.512  1.00  0.00     0.019 A 
HETATM    8  C   UNL     1      42.768  -9.601  12.054  1.00  0.00     0.032 A 
HETATM    9  C   UNL     1      43.336  -8.423  12.547  1.00  0.00     0.019 A 
HETATM   10  C   UNL     1      42.654  -7.655  13.498  1.00  0.00     0.030 A 
BRANCH   8  11
HETATM   11  C   UNL     1      43.493 -10.373  11.003  1.00  0.00     0.256 C 
HETATM   12  N   UNL     1      43.393  -9.848   9.725  1.00  0.00    -0.321 N 
HETATM   13  H   UNL     1      42.571  -9.291   9.534  1.00  0.00     0.169 HD
HETATM   14  O   UNL     1      44.029 -11.430  11.317  1.00  0.00    -0.267 OA
BRANCH  12  15
HETATM   15  C   UNL     1      44.146 -10.274   8.607  1.00  0.00     0.068 A 
HETATM   16  C   UNL     1      43.578 -10.695   7.392  1.00  0.00     0.095 A 
HETATM   17  C   UNL     1      44.409 -11.097   6.337  1.00  0.00     0.039 A 
HETATM   18  C   UNL     1      45.797 -11.086   6.488  1.00  0.00     0.003 A 
HETATM   19  C   UNL     1      46.361 -10.708   7.702  1.00  0.00     0.002 A 
HETATM   20  C   UNL     1      45.539 -10.319   8.763  1.00  0.00     0.032 A 
BRANCH  16  21
HETATM   21  O   UNL     1      42.219 -10.883   7.328  1.00  0.00    -0.354 OA
HETATM   22  C   UNL     1      41.533  -9.922   6.532  1.00  0.00     0.210 C 
ENDBRANCH  16  21
ENDBRANCH  12  15
ENDBRANCH   8  11
ENDBRANCH   2   5
BRANCH   1  23
HETATM   23  C   UNL     1      39.640  -5.239  15.860  1.00  0.00     0.240 C 
BRANCH  23  24
HETATM   24  N   UNL     1      40.538  -5.310  16.996  1.00  0.00    -0.259 N 
HETATM   25  C   UNL     1      41.496  -4.398  17.282  1.00  0.00     0.326 A 
HETATM   26  N   UNL     1      42.216  -4.832  18.362  1.00  0.00    -0.324 N 
HETATM   27  O   UNL     1      41.655  -3.323  16.725  1.00  0.00    -0.247 OA
HETATM   28  C   UNL     1      41.653  -6.027  18.966  1.00  0.00     0.116 A 
HETATM   29  H   UNL     1      42.937  -4.251  18.775  1.00  0.00     0.165 HD
HETATM   30  C   UNL     1      41.086  -5.689  20.348  1.00  0.00     0.041 C 
HETATM   31  C   UNL     1      40.524  -6.297  17.941  1.00  0.00     0.256 A 
HETATM   32  C   UNL     1      42.676  -7.165  18.979  1.00  0.00     0.041 C 
HETATM   33  C   UNL     1      40.658  -6.922  21.145  1.00  0.00     0.007 C 
HETATM   34  C   UNL     1      41.737  -8.010  21.203  1.00  0.00    -0.019 C 
HETATM   35  C   UNL     1      42.903  -7.610  22.110  1.00  0.00     0.010 C 
HETATM   36  C   UNL     1      42.215  -8.375  19.793  1.00  0.00     0.007 C 
HETATM   37  O   UNL     1      39.740  -7.235  17.978  1.00  0.00    -0.270 OA
ENDBRANCH  23  24
ENDBRANCH   1  23
TORSDOF 6
ENDMDL
MODEL 9
REMARK VINA RESULT:      -8.3      2.509      3.740
REMARK  6 active torsions:
REMARK  status: ('A' for Active; 'I' for Inactive)
REMARK    1  A    between atoms: N_9  and  C_10 
REMARK    2  A    between atoms: C_10  and  C_11 
REMARK       I    between atoms: C_11  and  N_12 
REMARK    3  A    between atoms: N_12  and  C_13 
REMARK    4  A    between atoms: C_16  and  C_17 
REMARK       I    between atoms: C_17  and  N_18 
REMARK    5  A    between atoms: N_18  and  C_19 
REMARK    6  A    between atoms: C_20  and  O_21 
ROOT
HETATM    1  C   UNL     1      43.807  -9.906  10.443  1.00  0.00     0.240 C 
HETATM    2  N   UNL     1      44.017  -9.500   9.134  1.00  0.00    -0.326 N 
HETATM    3  O   UNL     1      43.661 -11.071  10.810  1.00  0.00    -0.271 OA
HETATM    4  H   UNL     1      44.368  -8.554   9.000  1.00  0.00     0.169 HD
ENDROOT
BRANCH   2   5
HETATM    5  C   UNL     1      43.872 -10.275   7.965  1.00  0.00     0.034 A 
HETATM    6  C   UNL     1      44.822 -11.196   7.519  1.00  0.00     0.030 A 
HETATM    7  C   UNL     1      44.590 -11.964   6.370  1.00  0.00     0.019 A 
HETATM    8  C   UNL     1      43.398 -11.818   5.655  1.00  0.00     0.032 A 
HETATM    9  C   UNL     1      42.440 -10.902   6.101  1.00  0.00     0.019 A 
HETATM   10  C   UNL     1      42.679 -10.132   7.245  1.00  0.00     0.030 A 
BRANCH   8  11
HETATM   11  C   UNL     1      43.096 -12.662   4.463  1.00  0.00     0.256 C 
HETATM   12  N   UNL     1      42.259 -13.738   4.711  1.00  0.00    -0.321 N 
HETATM   13  H   UNL     1      42.261 -14.096   5.657  1.00  0.00     0.169 HD
HETATM   14  O   UNL     1      43.662 -12.409   3.405  1.00  0.00    -0.267 OA
BRANCH  12  15
HETATM   15  C   UNL     1      41.669 -14.558   3.722  1.00  0.00     0.068 A 
HETATM   16  C   UNL     1      42.236 -15.756   3.254  1.00  0.00     0.095 A 
HETATM   17  C   UNL     1      41.572 -16.504   2.272  1.00  0.00     0.039 A 
HETATM   18  C   UNL     1      40.354 -16.063   1.752  1.00  0.00     0.003 A 
HETATM   19  C   UNL     1      39.809 -14.858   2.184  1.00  0.00     0.002 A 
HETATM   20  C   UNL     1      40.471 -14.101   3.154  1.00  0.00     0.032 A 
BRANCH  16  21
HETATM   21  O   UNL     1      43.518 -16.071   3.632  1.00  0.00    -0.354 OA
HETATM   22  C   UNL     1      43.608 -17.173   4.530  1.00  0.00     0.210 C 
ENDBRANCH  16  21
ENDBRANCH  12  15
ENDBRANCH   8  11
ENDBRANCH   2   5
BRANCH   1  23
HETATM   23  C   UNL     1      43.952  -8.792  11.481  1.00  0.00     0.240 C 
BRANCH  23  24
HETATM   24  N   UNL     1      42.846  -7.855  11.478  1.00  0.00    -0.259 N 
HETATM   25  C   UNL     1      42.720  -6.812  10.624  1.00  0.00     0.326 A 
HETATM   26  N   UNL     1      41.612  -6.085  10.970  1.00  0.00    -0.324 N 
HETATM   27  O   UNL     1      43.425  -6.587   9.654  1.00  0.00    -0.247 OA
HETATM   28  C   UNL     1      40.831  -6.721  12.017  1.00  0.00     0.116 A 
HETATM   29  H   UNL     1      41.306  -5.301  10.406  1.00  0.00     0.165 HD
HETATM   30  C   UNL     1      39.492  -7.197  11.445  1.00  0.00     0.041 C 
HETATM   31  C   UNL     1      41.772  -7.911  12.322  1.00  0.00     0.256 A 
HETATM   32  C   UNL     1      40.691  -5.798  13.229  1.00  0.00     0.041 C 
HETATM   33  C   UNL     1      38.519  -7.693  12.515  1.00  0.00     0.007 C 
HETATM   34  C   UNL     1      38.343  -6.709  13.677  1.00  0.00    -0.019 C 
HETATM   35  C   UNL     1      37.537  -5.474  13.264  1.00  0.00     0.010 C 
HETATM   36  C   UNL     1      39.703  -6.324  14.272  1.00  0.00     0.007 C 
HETATM   37  O   UNL     1      41.582  -8.769  13.172  1.00  0.00    -0.270 OA
ENDBRANCH  23  24
ENDBRANCH   1  23
TORSDOF 6
ENDMDL
MODEL 10
REMARK VINA RESULT:      -8.3      3.046     10.739
REMARK  6 active torsions:
REMARK  status: ('A' for Active; 'I' for Inactive)
REMARK    1  A    between atoms: N_9  and  C_10 
REMARK    2  A    between atoms: C_10  and  C_11 
REMARK       I    between atoms: C_11  and  N_12 
REMARK    3  A    between atoms: N_12  and  C_13 
REMARK    4  A    between atoms: C_16  and  C_17 
REMARK       I    between atoms: C_17  and  N_18 
REMARK    5  A    between atoms: N_18  and  C_19 
REMARK    6  A    between atoms: C_20  and  O_21 
ROOT
HETATM    1  C   UNL     1      42.789 -14.268   5.367  1.00  0.00     0.240 C 
HETATM    2  N   UNL     1      43.099 -12.933   5.153  1.00  0.00    -0.326 N 
HETATM    3  O   UNL     1      42.405 -14.745   6.433  1.00  0.00    -0.271 OA
HETATM    4  H   UNL     1      43.158 -12.628   4.184  1.00  0.00     0.169 HD
ENDROOT
BRANCH   2   5
HETATM    5  C   UNL     1      43.267 -11.929   6.127  1.00  0.00     0.034 A 
HETATM    6  C   UNL     1      42.305 -10.958   6.419  1.00  0.00     0.030 A 
HETATM    7  C   UNL     1      42.523 -10.016   7.432  1.00  0.00     0.019 A 
HETATM    8  C   UNL     1      43.712 -10.037   8.169  1.00  0.00     0.032 A 
HETATM    9  C   UNL     1      44.675 -11.010   7.886  1.00  0.00     0.019 A 
HETATM   10  C   UNL     1      44.456 -11.945   6.867  1.00  0.00     0.030 A 
BRANCH   8  11
HETATM   11  C   UNL     1      43.948  -9.085   9.293  1.00  0.00     0.256 C 
HETATM   12  N   UNL     1      42.805  -8.492   9.801  1.00  0.00    -0.321 N 
HETATM   13  H   UNL     1      42.022  -8.413   9.165  1.00  0.00     0.169 HD
HETATM   14  O   UNL     1      45.104  -8.833   9.615  1.00  0.00    -0.267 OA
BRANCH  12  15
HETATM   15  C   UNL     1      42.743  -7.720  10.983  1.00  0.00     0.068 A 
HETATM   16  C   UNL     1      42.922  -8.245  12.275  1.00  0.00     0.095 A 
HETATM   17  C   UNL     1      42.846  -7.396  13.389  1.00  0.00     0.039 A 
HETATM   18  C   UNL     1      42.589  -6.035  13.223  1.00  0.00     0.003 A 
HETATM   19  C   UNL     1      42.372  -5.519  11.949  1.00  0.00     0.002 A 
HETATM   20  C   UNL     1      42.433  -6.360  10.835  1.00  0.00     0.032 A 
BRANCH  16  21
HETATM   21  O   UNL     1      42.980  -9.608  12.432  1.00  0.00    -0.354 OA
HETATM   22  C   UNL     1      41.753 -10.200  12.848  1.00  0.00     0.210 C 
ENDBRANCH  16  21
ENDBRANCH  12  15
ENDBRANCH   8  11
ENDBRANCH   2   5
BRANCH   1  23
HETATM   23  C   UNL     1      42.778 -15.124   4.100  1.00  0.00     0.240 C 
BRANCH  23  24
HETATM   24  N   UNL     1      41.592 -14.937   3.288  1.00  0.00    -0.259 N 
HETATM   25  C   UNL     1      40.442 -15.638   3.427  1.00  0.00     0.326 A 
HETATM   26  N   UNL     1      39.573 -15.269   2.435  1.00  0.00    -0.324 N 
HETATM   27  O   UNL     1      40.180 -16.417   4.329  1.00  0.00    -0.247 OA
HETATM   28  C   UNL     1      40.065 -14.151   1.649  1.00  0.00     0.116 A 
HETATM   29  H   UNL     1      38.628 -15.632   2.410  1.00  0.00     0.165 HD
HETATM   30  C   UNL     1      39.203 -12.913   1.917  1.00  0.00     0.041 C 
HETATM   31  C   UNL     1      41.468 -14.014   2.288  1.00  0.00     0.256 A 
HETATM   32  C   UNL     1      40.162 -14.527   0.169  1.00  0.00     0.041 C 
HETATM   33  C   UNL     1      39.515 -11.745   0.981  1.00  0.00     0.007 C 
HETATM   34  C   UNL     1      39.527 -12.140  -0.500  1.00  0.00    -0.019 C 
HETATM   35  C   UNL     1      38.118 -12.419  -1.029  1.00  0.00     0.010 C 
HETATM   36  C   UNL     1      40.466 -13.330  -0.734  1.00  0.00     0.007 C 
HETATM   37  O   UNL     1      42.323 -13.204   1.959  1.00  0.00    -0.270 OA
ENDBRANCH  23  24
ENDBRANCH   1  23
TORSDOF 6
ENDMDL
