MODEL 1
REMARK VINA RESULT:      -8.9      0.000      0.000
REMARK  9 active torsions:
REMARK  status: ('A' for Active; 'I' for Inactive)
REMARK    1  A    between atoms: C_4  and  C_5 
REMARK    2  A    between atoms: C_8  and  C_9 
REMARK       I    between atoms: C_9  and  N_10 
REMARK    3  A    between atoms: N_10  and  C_26 
REMARK    4  A    between atoms: N_10  and  C_11 
REMARK    5  A    between atoms: C_11  and  C_12 
REMARK    6  A    between atoms: C_11  and  C_21 
REMARK       I    between atoms: C_12  and  N_13 
REMARK    7  A    between atoms: N_13  and  C_14 
REMARK    8  A    between atoms: C_14  and  C_15 
REMARK    9  A    between atoms: C_26  and  C_27 
ROOT
HETATM    1  C   UNL     1      43.159 -12.698   3.369  1.00  0.00     0.271 C 
HETATM    2  N   UNL     1      42.399 -12.143   4.411  1.00  0.00    -0.324 N 
HETATM    3  O   UNL     1      44.108 -12.072   2.893  1.00  0.00    -0.266 OA
ENDROOT
BRANCH   2   4
HETATM    4  C   UNL     1      42.789 -10.803   4.863  1.00  0.00     0.173 C 
BRANCH   4   5
HETATM    5  C   UNL     1      43.779 -10.851   5.987  1.00  0.00     0.000 A 
HETATM    6  S   UNL     1      43.322 -10.333   7.558  1.00  0.00    -0.105 SA
HETATM    7  C   UNL     1      44.840 -10.762   8.215  1.00  0.00     0.050 A 
HETATM    8  C   UNL     1      45.677 -11.305   7.267  1.00  0.00     0.008 A 
HETATM    9  C   UNL     1      45.065 -11.358   5.982  1.00  0.00     0.017 A 
ENDBRANCH   4   5
ENDBRANCH   2   4
BRANCH   2  10
HETATM   10  C   UNL     1      41.250 -12.809   5.063  1.00  0.00     0.220 C 
BRANCH  10  11
HETATM   11  C   UNL     1      40.204 -11.781   5.567  1.00  0.00     0.245 C 
HETATM   12  N   UNL     1      40.044 -11.571   6.910  1.00  0.00    -0.357 N 
HETATM   13  H   UNL     1      40.423 -12.254   7.556  1.00  0.00     0.162 HD
HETATM   14  O   UNL     1      39.604 -11.064   4.752  1.00  0.00    -0.271 OA
BRANCH  12  15
HETATM   15  C   UNL     1      39.036 -10.663   7.434  1.00  0.00     0.154 C 
BRANCH  15  16
HETATM   16  C   UNL     1      39.648  -9.339   7.910  1.00  0.00     0.139 C 
HETATM   17  O   UNL     1      38.725  -8.260   7.639  1.00  0.00    -0.384 OA
HETATM   18  C   UNL     1      38.720  -7.399   8.781  1.00  0.00     0.168 C 
HETATM   19  C   UNL     1      38.946  -8.313   9.959  1.00  0.00     0.029 C 
HETATM   20  C   UNL     1      39.936  -9.313   9.409  1.00  0.00     0.035 C 
ENDBRANCH  15  16
ENDBRANCH  12  15
ENDBRANCH  10  11
BRANCH  10  21
HETATM   21  C   UNL     1      41.677 -13.957   5.967  1.00  0.00     0.014 A 
HETATM   22  S   UNL     1      40.802 -15.412   6.198  1.00  0.00    -0.104 SA
HETATM   23  C   UNL     1      41.954 -16.039   7.286  1.00  0.00     0.050 A 
HETATM   24  C   UNL     1      42.996 -15.166   7.489  1.00  0.00     0.008 A 
HETATM   25  C   UNL     1      42.836 -13.972   6.733  1.00  0.00     0.017 A 
ENDBRANCH  10  21
ENDBRANCH   2  10
BRANCH   1  26
HETATM   26  C   UNL     1      42.898 -14.051   2.903  1.00  0.00     0.101 C 
HETATM   27  N   UNL     1      43.172 -15.235   3.552  1.00  0.00    -0.351 N 
HETATM   28  C   UNL     1      42.910 -16.323   2.743  1.00  0.00     0.043 C 
HETATM   29  H   UNL     1      43.596 -15.294   4.473  1.00  0.00     0.166 HD
HETATM   30  C   UNL     1      42.228 -15.815   1.649  1.00  0.00     0.033 C 
HETATM   31  C   UNL     1      42.203 -14.406   1.759  1.00  0.00     0.037 C 
BRANCH  28  32
HETATM   32  C   UNL     1      43.316 -17.701   3.062  1.00  0.00    -0.009 A 
HETATM   33  C   UNL     1      43.132 -18.760   2.160  1.00  0.00     0.013 A 
HETATM   34  C   UNL     1      43.484 -20.069   2.505  1.00  0.00     0.001 A 
HETATM   35  C   UNL     1      44.029 -20.342   3.757  1.00  0.00     0.000 A 
HETATM   36  C   UNL     1      44.225 -19.306   4.663  1.00  0.00     0.001 A 
HETATM   37  C   UNL     1      43.871 -17.998   4.317  1.00  0.00     0.013 A 
ENDBRANCH  28  32
ENDBRANCH   1  26
TORSDOF 9
ENDMDL
MODEL 2
REMARK VINA RESULT:      -8.7      2.454      4.706
REMARK  9 active torsions:
REMARK  status: ('A' for Active; 'I' for Inactive)
REMARK    1  A    between atoms: C_4  and  C_5 
REMARK    2  A    between atoms: C_8  and  C_9 
REMARK       I    between atoms: C_9  and  N_10 
REMARK    3  A    between atoms: N_10  and  C_26 
REMARK    4  A    between atoms: N_10  and  C_11 
REMARK    5  A    between atoms: C_11  and  C_12 
REMARK    6  A    between atoms: C_11  and  C_21 
REMARK       I    between atoms: C_12  and  N_13 
REMARK    7  A    between atoms: N_13  and  C_14 
REMARK    8  A    between atoms: C_14  and  C_15 
REMARK    9  A    between atoms: C_26  and  C_27 
ROOT
HETATM    1  C   UNL     1      40.721 -14.468   5.915  1.00  0.00     0.271 C 
HETATM    2  N   UNL     1      40.736 -13.618   4.797  1.00  0.00    -0.324 N 
HETATM    3  O   UNL     1      39.819 -14.377   6.750  1.00  0.00    -0.266 OA
ENDROOT
BRANCH   2   4
HETATM    4  C   UNL     1      39.650 -12.637   4.707  1.00  0.00     0.173 C 
BRANCH   4   5
HETATM    5  C   UNL     1      40.086 -11.270   5.137  1.00  0.00     0.000 A 
HETATM    6  S   UNL     1      39.948  -9.943   4.057  1.00  0.00    -0.105 SA
HETATM    7  C   UNL     1      40.509  -8.839   5.235  1.00  0.00     0.050 A 
HETATM    8  C   UNL     1      40.782  -9.457   6.433  1.00  0.00     0.008 A 
HETATM    9  C   UNL     1      40.536 -10.860   6.378  1.00  0.00     0.017 A 
ENDBRANCH   4   5
ENDBRANCH   2   4
BRANCH   2  10
HETATM   10  C   UNL     1      41.760 -13.649   3.731  1.00  0.00     0.220 C 
BRANCH  10  11
HETATM   11  C   UNL     1      42.848 -12.565   3.952  1.00  0.00     0.245 C 
HETATM   12  N   UNL     1      43.538 -12.522   5.134  1.00  0.00    -0.357 N 
HETATM   13  H   UNL     1      43.168 -13.027   5.930  1.00  0.00     0.162 HD
HETATM   14  O   UNL     1      43.174 -11.821   3.016  1.00  0.00    -0.271 OA
BRANCH  12  15
HETATM   15  C   UNL     1      44.524 -11.489   5.413  1.00  0.00     0.154 C 
BRANCH  15  16
HETATM   16  C   UNL     1      45.056 -11.578   6.849  1.00  0.00     0.139 C 
HETATM   17  O   UNL     1      46.021 -10.524   7.068  1.00  0.00    -0.384 OA
HETATM   18  C   UNL     1      45.772  -9.972   8.364  1.00  0.00     0.168 C 
HETATM   19  C   UNL     1      44.279 -10.082   8.554  1.00  0.00     0.029 C 
HETATM   20  C   UNL     1      43.966 -11.411   7.906  1.00  0.00     0.035 C 
ENDBRANCH  15  16
ENDBRANCH  12  15
ENDBRANCH  10  11
BRANCH  10  21
HETATM   21  C   UNL     1      41.157 -13.842   2.347  1.00  0.00     0.014 A 
HETATM   22  S   UNL     1      40.781 -12.582   1.246  1.00  0.00    -0.104 SA
HETATM   23  C   UNL     1      40.199 -13.664   0.065  1.00  0.00     0.050 A 
HETATM   24  C   UNL     1      40.275 -14.971   0.485  1.00  0.00     0.008 A 
HETATM   25  C   UNL     1      40.824 -15.072   1.794  1.00  0.00     0.017 A 
ENDBRANCH  10  21
ENDBRANCH   2  10
BRANCH   1  26
HETATM   26  C   UNL     1      41.711 -15.523   6.056  1.00  0.00     0.101 C 
HETATM   27  N   UNL     1      42.126 -16.425   5.099  1.00  0.00    -0.351 N 
HETATM   28  C   UNL     1      42.981 -17.367   5.636  1.00  0.00     0.043 C 
HETATM   29  H   UNL     1      41.777 -16.443   4.146  1.00  0.00     0.166 HD
HETATM   30  C   UNL     1      43.298 -16.902   6.902  1.00  0.00     0.033 C 
HETATM   31  C   UNL     1      42.525 -15.745   7.154  1.00  0.00     0.037 C 
BRANCH  28  32
HETATM   32  C   UNL     1      43.407 -18.587   4.930  1.00  0.00    -0.009 A 
HETATM   33  C   UNL     1      43.507 -18.642   3.532  1.00  0.00     0.013 A 
HETATM   34  C   UNL     1      43.868 -19.827   2.882  1.00  0.00     0.001 A 
HETATM   35  C   UNL     1      44.140 -20.976   3.619  1.00  0.00     0.000 A 
HETATM   36  C   UNL     1      44.054 -20.941   5.007  1.00  0.00     0.001 A 
HETATM   37  C   UNL     1      43.690 -19.756   5.654  1.00  0.00     0.013 A 
ENDBRANCH  28  32
ENDBRANCH   1  26
TORSDOF 9
ENDMDL
MODEL 3
REMARK VINA RESULT:      -8.4      1.917      5.469
REMARK  9 active torsions:
REMARK  status: ('A' for Active; 'I' for Inactive)
REMARK    1  A    between atoms: C_4  and  C_5 
REMARK    2  A    between atoms: C_8  and  C_9 
REMARK       I    between atoms: C_9  and  N_10 
REMARK    3  A    between atoms: N_10  and  C_26 
REMARK    4  A    between atoms: N_10  and  C_11 
REMARK    5  A    between atoms: C_11  and  C_12 
REMARK    6  A    between atoms: C_11  and  C_21 
REMARK       I    between atoms: C_12  and  N_13 
REMARK    7  A    between atoms: N_13  and  C_14 
REMARK    8  A    between atoms: C_14  and  C_15 
REMARK    9  A    between atoms: C_26  and  C_27 
ROOT
HETATM    1  C   UNL     1      40.615 -12.767   5.968  1.00  0.00     0.271 C 
HETATM    2  N   UNL     1      40.821 -11.504   5.389  1.00  0.00    -0.324 N 
HETATM    3  O   UNL     1      39.535 -13.037   6.497  1.00  0.00    -0.266 OA
ENDROOT
BRANCH   2   4
HETATM    4  C   UNL     1      39.704 -10.556   5.472  1.00  0.00     0.173 C 
BRANCH   4   5
HETATM    5  C   UNL     1      39.852  -9.609   6.624  1.00  0.00     0.000 A 
HETATM    6  S   UNL     1      40.364  -7.994   6.349  1.00  0.00    -0.105 SA
HETATM    7  C   UNL     1      40.194  -7.587   8.000  1.00  0.00     0.050 A 
HETATM    8  C   UNL     1      39.740  -8.649   8.749  1.00  0.00     0.008 A 
HETATM    9  C   UNL     1      39.541  -9.815   7.955  1.00  0.00     0.017 A 
ENDBRANCH   4   5
ENDBRANCH   2   4
BRANCH   2  10
HETATM   10  C   UNL     1      42.069 -11.078   4.719  1.00  0.00     0.220 C 
BRANCH  10  11
HETATM   11  C   UNL     1      42.212 -11.721   3.314  1.00  0.00     0.245 C 
HETATM   12  N   UNL     1      41.313 -11.413   2.328  1.00  0.00    -0.357 N 
HETATM   13  H   UNL     1      40.438 -10.974   2.589  1.00  0.00     0.162 HD
HETATM   14  O   UNL     1      43.206 -12.413   3.052  1.00  0.00    -0.271 OA
BRANCH  12  15
HETATM   15  C   UNL     1      41.368 -12.033   1.014  1.00  0.00     0.154 C 
BRANCH  15  16
HETATM   16  C   UNL     1      40.102 -12.845   0.710  1.00  0.00     0.139 C 
HETATM   17  O   UNL     1      40.147 -13.306  -0.661  1.00  0.00    -0.384 OA
HETATM   18  C   UNL     1      39.693 -14.662  -0.675  1.00  0.00     0.168 C 
HETATM   19  C   UNL     1      40.151 -15.240   0.641  1.00  0.00     0.029 C 
HETATM   20  C   UNL     1      39.953 -14.082   1.591  1.00  0.00     0.035 C 
ENDBRANCH  15  16
ENDBRANCH  12  15
ENDBRANCH  10  11
BRANCH  10  21
HETATM   21  C   UNL     1      43.261 -11.058   5.665  1.00  0.00     0.014 A 
HETATM   22  S   UNL     1      43.241 -10.456   7.270  1.00  0.00    -0.104 SA
HETATM   23  C   UNL     1      44.887 -10.818   7.523  1.00  0.00     0.050 A 
HETATM   24  C   UNL     1      45.465 -11.385   6.412  1.00  0.00     0.008 A 
HETATM   25  C   UNL     1      44.532 -11.521   5.346  1.00  0.00     0.017 A 
ENDBRANCH  10  21
ENDBRANCH   2  10
BRANCH   1  26
HETATM   26  C   UNL     1      41.633 -13.800   5.871  1.00  0.00     0.101 C 
HETATM   27  N   UNL     1      41.876 -14.650   4.813  1.00  0.00    -0.351 N 
HETATM   28  C   UNL     1      42.835 -15.590   5.135  1.00  0.00     0.043 C 
HETATM   29  H   UNL     1      41.352 -14.638   3.944  1.00  0.00     0.166 HD
HETATM   30  C   UNL     1      43.377 -15.169   6.338  1.00  0.00     0.033 C 
HETATM   31  C   UNL     1      42.645 -14.045   6.784  1.00  0.00     0.037 C 
BRANCH  28  32
HETATM   32  C   UNL     1      43.141 -16.768   4.307  1.00  0.00    -0.009 A 
HETATM   33  C   UNL     1      44.082 -17.731   4.700  1.00  0.00     0.013 A 
HETATM   34  C   UNL     1      44.389 -18.817   3.873  1.00  0.00     0.001 A 
HETATM   35  C   UNL     1      43.759 -18.960   2.640  1.00  0.00     0.000 A 
HETATM   36  C   UNL     1      42.818 -18.020   2.235  1.00  0.00     0.001 A 
HETATM   37  C   UNL     1      42.513 -16.934   3.062  1.00  0.00     0.013 A 
ENDBRANCH  28  32
ENDBRANCH   1  26
TORSDOF 9
ENDMDL
MODEL 4
REMARK VINA RESULT:      -8.4      2.488      7.890
REMARK  9 active torsions:
REMARK  status: ('A' for Active; 'I' for Inactive)
REMARK    1  A    between atoms: C_4  and  C_5 
REMARK    2  A    between atoms: C_8  and  C_9 
REMARK       I    between atoms: C_9  and  N_10 
REMARK    3  A    between atoms: N_10  and  C_26 
REMARK    4  A    between atoms: N_10  and  C_11 
REMARK    5  A    between atoms: C_11  and  C_12 
REMARK    6  A    between atoms: C_11  and  C_21 
REMARK       I    between atoms: C_12  and  N_13 
REMARK    7  A    between atoms: N_13  and  C_14 
REMARK    8  A    between atoms: C_14  and  C_15 
REMARK    9  A    between atoms: C_26  and  C_27 
ROOT
HETATM    1  C   UNL     1      43.642 -11.533   4.779  1.00  0.00     0.271 C 
HETATM    2  N   UNL     1      42.268 -11.775   4.609  1.00  0.00    -0.324 N 
HETATM    3  O   UNL     1      44.398 -11.544   3.806  1.00  0.00    -0.266 OA
ENDROOT
BRANCH   2   4
HETATM    4  C   UNL     1      41.818 -12.051   3.240  1.00  0.00     0.173 C 
BRANCH   4   5
HETATM    5  C   UNL     1      41.624 -13.516   2.994  1.00  0.00     0.000 A 
HETATM    6  S   UNL     1      40.085 -14.112   2.521  1.00  0.00    -0.105 SA
HETATM    7  C   UNL     1      40.677 -15.707   2.359  1.00  0.00     0.050 A 
HETATM    8  C   UNL     1      42.021 -15.789   2.640  1.00  0.00     0.008 A 
HETATM    9  C   UNL     1      42.569 -14.525   3.005  1.00  0.00     0.017 A 
ENDBRANCH   4   5
ENDBRANCH   2   4
BRANCH   2  10
HETATM   10  C   UNL     1      41.272 -11.774   5.701  1.00  0.00     0.220 C 
BRANCH  10  11
HETATM   11  C   UNL     1      40.869 -13.216   6.109  1.00  0.00     0.245 C 
HETATM   12  N   UNL     1      41.826 -14.099   6.531  1.00  0.00    -0.357 N 
HETATM   13  H   UNL     1      42.799 -13.888   6.340  1.00  0.00     0.162 HD
HETATM   14  O   UNL     1      39.670 -13.526   6.169  1.00  0.00    -0.271 OA
BRANCH  12  15
HETATM   15  C   UNL     1      41.509 -15.478   6.867  1.00  0.00     0.154 C 
BRANCH  15  16
HETATM   16  C   UNL     1      42.771 -16.308   7.135  1.00  0.00     0.139 C 
HETATM   17  O   UNL     1      42.584 -17.644   6.615  1.00  0.00    -0.384 OA
HETATM   18  C   UNL     1      43.800 -18.030   5.967  1.00  0.00     0.168 C 
HETATM   19  C   UNL     1      44.357 -16.751   5.393  1.00  0.00     0.029 C 
HETATM   20  C   UNL     1      44.020 -15.740   6.464  1.00  0.00     0.035 C 
ENDBRANCH  15  16
ENDBRANCH  12  15
ENDBRANCH  10  11
BRANCH  10  21
HETATM   21  C   UNL     1      40.195 -10.716   5.509  1.00  0.00     0.014 A 
HETATM   22  S   UNL     1      40.032  -9.289   6.445  1.00  0.00    -0.104 SA
HETATM   23  C   UNL     1      38.664  -8.765   5.574  1.00  0.00     0.050 A 
HETATM   24  C   UNL     1      38.315  -9.652   4.584  1.00  0.00     0.008 A 
HETATM   25  C   UNL     1      39.194 -10.771   4.547  1.00  0.00     0.017 A 
ENDBRANCH  10  21
ENDBRANCH   2  10
BRANCH   1  26
HETATM   26  C   UNL     1      44.173 -11.176   6.084  1.00  0.00     0.101 C 
HETATM   27  N   UNL     1      43.479 -10.714   7.181  1.00  0.00    -0.351 N 
HETATM   28  C   UNL     1      44.336 -10.350   8.201  1.00  0.00     0.043 C 
HETATM   29  H   UNL     1      42.473 -10.575   7.200  1.00  0.00     0.166 HD
HETATM   30  C   UNL     1      45.582 -10.823   7.823  1.00  0.00     0.033 C 
HETATM   31  C   UNL     1      45.476 -11.355   6.518  1.00  0.00     0.037 C 
BRANCH  28  32
HETATM   32  C   UNL     1      43.917  -9.609   9.402  1.00  0.00    -0.009 A 
HETATM   33  C   UNL     1      43.539  -8.259   9.350  1.00  0.00     0.013 A 
HETATM   34  C   UNL     1      43.189  -7.564  10.513  1.00  0.00     0.001 A 
HETATM   35  C   UNL     1      43.210  -8.207  11.747  1.00  0.00     0.000 A 
HETATM   36  C   UNL     1      43.575  -9.547  11.819  1.00  0.00     0.001 A 
HETATM   37  C   UNL     1      43.926 -10.240  10.656  1.00  0.00     0.013 A 
ENDBRANCH  28  32
ENDBRANCH   1  26
TORSDOF 9
ENDMDL
MODEL 5
REMARK VINA RESULT:      -7.8      2.019      3.247
REMARK  9 active torsions:
REMARK  status: ('A' for Active; 'I' for Inactive)
REMARK    1  A    between atoms: C_4  and  C_5 
REMARK    2  A    between atoms: C_8  and  C_9 
REMARK       I    between atoms: C_9  and  N_10 
REMARK    3  A    between atoms: N_10  and  C_26 
REMARK    4  A    between atoms: N_10  and  C_11 
REMARK    5  A    between atoms: C_11  and  C_12 
REMARK    6  A    between atoms: C_11  and  C_21 
REMARK       I    between atoms: C_12  and  N_13 
REMARK    7  A    between atoms: N_13  and  C_14 
REMARK    8  A    between atoms: C_14  and  C_15 
REMARK    9  A    between atoms: C_26  and  C_27 
ROOT
HETATM    1  C   UNL     1      41.701 -12.219   3.099  1.00  0.00     0.271 C 
HETATM    2  N   UNL     1      41.891 -11.385   4.213  1.00  0.00    -0.324 N 
HETATM    3  O   UNL     1      41.781 -11.757   1.959  1.00  0.00    -0.266 OA
ENDROOT
BRANCH   2   4
HETATM    4  C   UNL     1      42.161  -9.970   3.933  1.00  0.00     0.173 C 
BRANCH   4   5
HETATM    5  C   UNL     1      40.981  -9.099   4.238  1.00  0.00     0.000 A 
HETATM    6  S   UNL     1      39.498  -9.339   3.409  1.00  0.00    -0.105 SA
HETATM    7  C   UNL     1      38.713  -8.125   4.321  1.00  0.00     0.050 A 
HETATM    8  C   UNL     1      39.552  -7.556   5.251  1.00  0.00     0.008 A 
HETATM    9  C   UNL     1      40.861  -8.119   5.205  1.00  0.00     0.017 A 
ENDBRANCH   4   5
ENDBRANCH   2   4
BRANCH   2  10
HETATM   10  C   UNL     1      41.830 -11.834   5.621  1.00  0.00     0.220 C 
BRANCH  10  11
HETATM   11  C   UNL     1      40.427 -11.595   6.237  1.00  0.00     0.245 C 
HETATM   12  N   UNL     1      40.281 -10.730   7.288  1.00  0.00    -0.357 N 
HETATM   13  H   UNL     1      41.107 -10.450   7.804  1.00  0.00     0.162 HD
HETATM   14  O   UNL     1      39.426 -12.092   5.699  1.00  0.00    -0.271 OA
BRANCH  12  15
HETATM   15  C   UNL     1      38.998 -10.517   7.938  1.00  0.00     0.154 C 
BRANCH  15  16
HETATM   16  C   UNL     1      39.112  -9.557   9.130  1.00  0.00     0.139 C 
HETATM   17  O   UNL     1      39.112 -10.319  10.359  1.00  0.00    -0.384 OA
HETATM   18  C   UNL     1      40.105  -9.753  11.219  1.00  0.00     0.168 C 
HETATM   19  C   UNL     1      41.188  -9.261  10.291  1.00  0.00     0.029 C 
HETATM   20  C   UNL     1      40.395  -8.731   9.118  1.00  0.00     0.035 C 
ENDBRANCH  15  16
ENDBRANCH  12  15
ENDBRANCH  10  11
BRANCH  10  21
HETATM   21  C   UNL     1      43.076 -11.455   6.409  1.00  0.00     0.014 A 
HETATM   22  S   UNL     1      44.490 -12.415   6.547  1.00  0.00    -0.104 SA
HETATM   23  C   UNL     1      45.278 -11.273   7.537  1.00  0.00     0.050 A 
HETATM   24  C   UNL     1      44.491 -10.172   7.776  1.00  0.00     0.008 A 
HETATM   25  C   UNL     1      43.228 -10.277   7.130  1.00  0.00     0.017 A 
ENDBRANCH  10  21
ENDBRANCH   2  10
BRANCH   1  26
HETATM   26  C   UNL     1      41.503 -13.649   3.271  1.00  0.00     0.101 C 
HETATM   27  N   UNL     1      42.454 -14.606   3.551  1.00  0.00    -0.351 N 
HETATM   28  C   UNL     1      41.916 -15.877   3.507  1.00  0.00     0.043 C 
HETATM   29  H   UNL     1      43.441 -14.405   3.685  1.00  0.00     0.166 HD
HETATM   30  C   UNL     1      40.544 -15.695   3.435  1.00  0.00     0.033 C 
HETATM   31  C   UNL     1      40.287 -14.311   3.309  1.00  0.00     0.037 C 
BRANCH  28  32
HETATM   32  C   UNL     1      42.718 -17.111   3.532  1.00  0.00    -0.009 A 
HETATM   33  C   UNL     1      42.803 -17.967   2.424  1.00  0.00     0.013 A 
HETATM   34  C   UNL     1      43.535 -19.158   2.488  1.00  0.00     0.001 A 
HETATM   35  C   UNL     1      44.197 -19.511   3.660  1.00  0.00     0.000 A 
HETATM   36  C   UNL     1      44.132 -18.672   4.768  1.00  0.00     0.001 A 
HETATM   37  C   UNL     1      43.398 -17.484   4.702  1.00  0.00     0.013 A 
ENDBRANCH  28  32
ENDBRANCH   1  26
TORSDOF 9
ENDMDL
MODEL 6
REMARK VINA RESULT:      -7.8      2.818      4.255
REMARK  9 active torsions:
REMARK  status: ('A' for Active; 'I' for Inactive)
REMARK    1  A    between atoms: C_4  and  C_5 
REMARK    2  A    between atoms: C_8  and  C_9 
REMARK       I    between atoms: C_9  and  N_10 
REMARK    3  A    between atoms: N_10  and  C_26 
REMARK    4  A    between atoms: N_10  and  C_11 
REMARK    5  A    between atoms: C_11  and  C_12 
REMARK    6  A    between atoms: C_11  and  C_21 
REMARK       I    between atoms: C_12  and  N_13 
REMARK    7  A    between atoms: N_13  and  C_14 
REMARK    8  A    between atoms: C_14  and  C_15 
REMARK    9  A    between atoms: C_26  and  C_27 
ROOT
HETATM    1  C   UNL     1      42.613 -11.782   3.302  1.00  0.00     0.271 C 
HETATM    2  N   UNL     1      41.304 -11.342   3.044  1.00  0.00    -0.324 N 
HETATM    3  O   UNL     1      43.572 -11.041   3.076  1.00  0.00    -0.266 OA
ENDROOT
BRANCH   2   4
HETATM    4  C   UNL     1      41.166  -9.991   2.488  1.00  0.00     0.173 C 
BRANCH   4   5
HETATM    5  C   UNL     1      40.813 -10.013   1.032  1.00  0.00     0.000 A 
HETATM    6  S   UNL     1      39.182  -9.801   0.540  1.00  0.00    -0.105 SA
HETATM    7  C   UNL     1      39.604  -9.849  -1.115  1.00  0.00     0.050 A 
HETATM    8  C   UNL     1      40.959 -10.005  -1.297  1.00  0.00     0.008 A 
HETATM    9  C   UNL     1      41.657 -10.098  -0.059  1.00  0.00     0.017 A 
ENDBRANCH   4   5
ENDBRANCH   2   4
BRANCH   2  10
HETATM   10  C   UNL     1      40.084 -12.141   3.288  1.00  0.00     0.220 C 
BRANCH  10  11
HETATM   11  C   UNL     1      39.711 -12.170   4.793  1.00  0.00     0.245 C 
HETATM   12  N   UNL     1      39.431 -11.001   5.450  1.00  0.00    -0.357 N 
HETATM   13  H   UNL     1      39.709 -10.126   5.022  1.00  0.00     0.162 HD
HETATM   14  O   UNL     1      39.546 -13.257   5.365  1.00  0.00    -0.271 OA
BRANCH  12  15
HETATM   15  C   UNL     1      39.135 -10.970   6.874  1.00  0.00     0.154 C 
BRANCH  15  16
HETATM   16  C   UNL     1      39.375  -9.580   7.478  1.00  0.00     0.139 C 
HETATM   17  O   UNL     1      38.779  -9.521   8.794  1.00  0.00    -0.384 OA
HETATM   18  C   UNL     1      39.700  -8.845   9.656  1.00  0.00     0.168 C 
HETATM   19  C   UNL     1      41.065  -9.224   9.140  1.00  0.00     0.029 C 
HETATM   20  C   UNL     1      40.854  -9.241   7.643  1.00  0.00     0.035 C 
ENDBRANCH  15  16
ENDBRANCH  12  15
ENDBRANCH  10  11
BRANCH  10  21
HETATM   21  C   UNL     1      40.058 -13.429   2.478  1.00  0.00     0.014 A 
HETATM   22  S   UNL     1      40.408 -13.554   0.805  1.00  0.00    -0.104 SA
HETATM   23  C   UNL     1      40.146 -15.238   0.783  1.00  0.00     0.050 A 
HETATM   24  C   UNL     1      39.790 -15.718   2.021  1.00  0.00     0.008 A 
HETATM   25  C   UNL     1      39.739 -14.680   2.992  1.00  0.00     0.017 A 
ENDBRANCH  10  21
ENDBRANCH   2  10
BRANCH   1  26
HETATM   26  C   UNL     1      42.849 -13.075   3.923  1.00  0.00     0.101 C 
HETATM   27  N   UNL     1      43.237 -14.248   3.311  1.00  0.00    -0.351 N 
HETATM   28  C   UNL     1      43.229 -15.304   4.200  1.00  0.00     0.043 C 
HETATM   29  H   UNL     1      43.419 -14.336   2.315  1.00  0.00     0.166 HD
HETATM   30  C   UNL     1      43.065 -14.734   5.452  1.00  0.00     0.033 C 
HETATM   31  C   UNL     1      42.850 -13.347   5.281  1.00  0.00     0.037 C 
BRANCH  28  32
HETATM   32  C   UNL     1      43.368 -16.714   3.801  1.00  0.00    -0.009 A 
HETATM   33  C   UNL     1      44.012 -17.658   4.615  1.00  0.00     0.013 A 
HETATM   34  C   UNL     1      44.173 -18.982   4.193  1.00  0.00     0.001 A 
HETATM   35  C   UNL     1      43.689 -19.386   2.951  1.00  0.00     0.000 A 
HETATM   36  C   UNL     1      43.041 -18.468   2.133  1.00  0.00     0.001 A 
HETATM   37  C   UNL     1      42.883 -17.144   2.556  1.00  0.00     0.013 A 
ENDBRANCH  28  32
ENDBRANCH   1  26
TORSDOF 9
ENDMDL
MODEL 7
REMARK VINA RESULT:      -7.7      2.466      4.891
REMARK  9 active torsions:
REMARK  status: ('A' for Active; 'I' for Inactive)
REMARK    1  A    between atoms: C_4  and  C_5 
REMARK    2  A    between atoms: C_8  and  C_9 
REMARK       I    between atoms: C_9  and  N_10 
REMARK    3  A    between atoms: N_10  and  C_26 
REMARK    4  A    between atoms: N_10  and  C_11 
REMARK    5  A    between atoms: C_11  and  C_12 
REMARK    6  A    between atoms: C_11  and  C_21 
REMARK       I    between atoms: C_12  and  N_13 
REMARK    7  A    between atoms: N_13  and  C_14 
REMARK    8  A    between atoms: C_14  and  C_15 
REMARK    9  A    between atoms: C_26  and  C_27 
ROOT
HETATM    1  C   UNL     1      43.312 -12.648   3.317  1.00  0.00     0.271 C 
HETATM    2  N   UNL     1      42.198 -11.928   3.778  1.00  0.00    -0.324 N 
HETATM    3  O   UNL     1      44.447 -12.185   3.449  1.00  0.00    -0.266 OA
ENDROOT
BRANCH   2   4
HETATM    4  C   UNL     1      42.470 -10.622   4.389  1.00  0.00     0.173 C 
BRANCH   4   5
HETATM    5  C   UNL     1      41.245 -10.020   5.004  1.00  0.00     0.000 A 
HETATM    6  S   UNL     1      40.852 -10.353   6.642  1.00  0.00    -0.105 SA
HETATM    7  C   UNL     1      39.501  -9.307   6.602  1.00  0.00     0.050 A 
HETATM    8  C   UNL     1      39.356  -8.699   5.376  1.00  0.00     0.008 A 
HETATM    9  C   UNL     1      40.362  -9.108   4.454  1.00  0.00     0.017 A 
ENDBRANCH   4   5
ENDBRANCH   2   4
BRANCH   2  10
HETATM   10  C   UNL     1      40.797 -12.392   3.681  1.00  0.00     0.220 C 
BRANCH  10  11
HETATM   11  C   UNL     1      40.618 -13.803   4.300  1.00  0.00     0.245 C 
HETATM   12  N   UNL     1      40.887 -14.006   5.627  1.00  0.00    -0.357 N 
HETATM   13  H   UNL     1      41.428 -13.308   6.125  1.00  0.00     0.162 HD
HETATM   14  O   UNL     1      40.116 -14.712   3.624  1.00  0.00    -0.271 OA
BRANCH  12  15
HETATM   15  C   UNL     1      40.793 -15.321   6.241  1.00  0.00     0.154 C 
BRANCH  15  16
HETATM   16  C   UNL     1      41.892 -15.546   7.287  1.00  0.00     0.139 C 
HETATM   17  O   UNL     1      42.466 -16.860   7.104  1.00  0.00    -0.384 OA
HETATM   18  C   UNL     1      43.885 -16.736   7.247  1.00  0.00     0.168 C 
HETATM   19  C   UNL     1      44.212 -15.366   6.708  1.00  0.00     0.029 C 
HETATM   20  C   UNL     1      43.038 -14.541   7.183  1.00  0.00     0.035 C 
ENDBRANCH  15  16
ENDBRANCH  12  15
ENDBRANCH  10  11
BRANCH  10  21
HETATM   21  C   UNL     1      40.168 -12.073   2.332  1.00  0.00     0.014 A 
HETATM   22  S   UNL     1      38.488 -12.096   1.994  1.00  0.00    -0.104 SA
HETATM   23  C   UNL     1      38.717 -11.646   0.366  1.00  0.00     0.050 A 
HETATM   24  C   UNL     1      40.047 -11.481   0.062  1.00  0.00     0.008 A 
HETATM   25  C   UNL     1      40.879 -11.728   1.190  1.00  0.00     0.017 A 
ENDBRANCH  10  21
ENDBRANCH   2  10
BRANCH   1  26
HETATM   26  C   UNL     1      43.153 -13.984   2.765  1.00  0.00     0.101 C 
HETATM   27  N   UNL     1      43.194 -15.186   3.437  1.00  0.00    -0.351 N 
HETATM   28  C   UNL     1      43.139 -16.253   2.561  1.00  0.00     0.043 C 
HETATM   29  H   UNL     1      43.337 -15.272   4.439  1.00  0.00     0.166 HD
HETATM   30  C   UNL     1      42.812 -15.705   1.331  1.00  0.00     0.033 C 
HETATM   31  C   UNL     1      42.799 -14.298   1.463  1.00  0.00     0.037 C 
BRANCH  28  32
HETATM   32  C   UNL     1      43.395 -17.649   2.950  1.00  0.00    -0.009 A 
HETATM   33  C   UNL     1      44.069 -17.980   4.134  1.00  0.00     0.013 A 
HETATM   34  C   UNL     1      44.342 -19.314   4.458  1.00  0.00     0.001 A 
HETATM   35  C   UNL     1      43.943 -20.339   3.605  1.00  0.00     0.000 A 
HETATM   36  C   UNL     1      43.267 -20.032   2.429  1.00  0.00     0.001 A 
HETATM   37  C   UNL     1      42.997 -18.698   2.106  1.00  0.00     0.013 A 
ENDBRANCH  28  32
ENDBRANCH   1  26
TORSDOF 9
ENDMDL
MODEL 8
REMARK VINA RESULT:      -7.7      3.268      7.169
REMARK  9 active torsions:
REMARK  status: ('A' for Active; 'I' for Inactive)
REMARK    1  A    between atoms: C_4  and  C_5 
REMARK    2  A    between atoms: C_8  and  C_9 
REMARK       I    between atoms: C_9  and  N_10 
REMARK    3  A    between atoms: N_10  and  C_26 
REMARK    4  A    between atoms: N_10  and  C_11 
REMARK    5  A    between atoms: C_11  and  C_12 
REMARK    6  A    between atoms: C_11  and  C_21 
REMARK       I    between atoms: C_12  and  N_13 
REMARK    7  A    between atoms: N_13  and  C_14 
REMARK    8  A    between atoms: C_14  and  C_15 
REMARK    9  A    between atoms: C_26  and  C_27 
ROOT
HETATM    1  C   UNL     1      39.672 -11.968   3.686  1.00  0.00     0.271 C 
HETATM    2  N   UNL     1      40.603 -12.421   4.636  1.00  0.00    -0.324 N 
HETATM    3  O   UNL     1      38.670 -11.348   4.048  1.00  0.00    -0.266 OA
ENDROOT
BRANCH   2   4
HETATM    4  C   UNL     1      40.297 -12.131   6.041  1.00  0.00     0.173 C 
BRANCH   4   5
HETATM    5  C   UNL     1      40.379 -10.667   6.347  1.00  0.00     0.000 A 
HETATM    6  S   UNL     1      39.419  -9.996   7.601  1.00  0.00    -0.105 SA
HETATM    7  C   UNL     1      40.110  -8.447   7.393  1.00  0.00     0.050 A 
HETATM    8  C   UNL     1      41.065  -8.437   6.403  1.00  0.00     0.008 A 
HETATM    9  C   UNL     1      41.222  -9.718   5.800  1.00  0.00     0.017 A 
ENDBRANCH   4   5
ENDBRANCH   2   4
BRANCH   2  10
HETATM   10  C   UNL     1      41.841 -13.162   4.313  1.00  0.00     0.220 C 
BRANCH  10  11
HETATM   11  C   UNL     1      41.577 -14.683   4.169  1.00  0.00     0.245 C 
HETATM   12  N   UNL     1      42.387 -15.445   3.370  1.00  0.00    -0.357 N 
HETATM   13  H   UNL     1      42.984 -14.977   2.698  1.00  0.00     0.162 HD
HETATM   14  O   UNL     1      40.711 -15.227   4.871  1.00  0.00    -0.271 OA
BRANCH  12  15
HETATM   15  C   UNL     1      42.144 -16.863   3.154  1.00  0.00     0.154 C 
BRANCH  15  16
HETATM   16  C   UNL     1      43.451 -17.663   3.080  1.00  0.00     0.139 C 
HETATM   17  O   UNL     1      43.787 -18.153   4.398  1.00  0.00    -0.384 OA
HETATM   18  C   UNL     1      44.238 -19.504   4.255  1.00  0.00     0.168 C 
HETATM   19  C   UNL     1      43.441 -20.060   3.101  1.00  0.00     0.029 C 
HETATM   20  C   UNL     1      43.362 -18.879   2.161  1.00  0.00     0.035 C 
ENDBRANCH  15  16
ENDBRANCH  12  15
ENDBRANCH  10  11
BRANCH  10  21
HETATM   21  C   UNL     1      43.038 -12.677   5.119  1.00  0.00     0.014 A 
HETATM   22  S   UNL     1      43.550 -13.327   6.620  1.00  0.00    -0.104 SA
HETATM   23  C   UNL     1      44.856 -12.240   6.749  1.00  0.00     0.050 A 
HETATM   24  C   UNL     1      44.917 -11.381   5.678  1.00  0.00     0.008 A 
HETATM   25  C   UNL     1      43.873 -11.631   4.744  1.00  0.00     0.017 A 
ENDBRANCH  10  21
ENDBRANCH   2  10
BRANCH   1  26
HETATM   26  C   UNL     1      39.923 -12.140   2.264  1.00  0.00     0.101 C 
HETATM   27  N   UNL     1      39.027 -12.522   1.289  1.00  0.00    -0.351 N 
HETATM   28  C   UNL     1      39.658 -12.712   0.075  1.00  0.00     0.043 C 
HETATM   29  H   UNL     1      38.047 -12.724   1.465  1.00  0.00     0.166 HD
HETATM   30  C   UNL     1      40.936 -12.203   0.239  1.00  0.00     0.033 C 
HETATM   31  C   UNL     1      41.093 -11.829   1.592  1.00  0.00     0.037 C 
BRANCH  28  32
HETATM   32  C   UNL     1      39.020 -13.340  -1.093  1.00  0.00    -0.009 A 
HETATM   33  C   UNL     1      39.525 -14.510  -1.678  1.00  0.00     0.013 A 
HETATM   34  C   UNL     1      38.927 -15.061  -2.817  1.00  0.00     0.001 A 
HETATM   35  C   UNL     1      37.812 -14.454  -3.388  1.00  0.00     0.000 A 
HETATM   36  C   UNL     1      37.292 -13.297  -2.819  1.00  0.00     0.001 A 
HETATM   37  C   UNL     1      37.891 -12.746  -1.682  1.00  0.00     0.013 A 
ENDBRANCH  28  32
ENDBRANCH   1  26
TORSDOF 9
ENDMDL
MODEL 9
REMARK VINA RESULT:      -7.6      2.471      4.566
REMARK  9 active torsions:
REMARK  status: ('A' for Active; 'I' for Inactive)
REMARK    1  A    between atoms: C_4  and  C_5 
REMARK    2  A    between atoms: C_8  and  C_9 
REMARK       I    between atoms: C_9  and  N_10 
REMARK    3  A    between atoms: N_10  and  C_26 
REMARK    4  A    between atoms: N_10  and  C_11 
REMARK    5  A    between atoms: C_11  and  C_12 
REMARK    6  A    between atoms: C_11  and  C_21 
REMARK       I    between atoms: C_12  and  N_13 
REMARK    7  A    between atoms: N_13  and  C_14 
REMARK    8  A    between atoms: C_14  and  C_15 
REMARK    9  A    between atoms: C_26  and  C_27 
ROOT
HETATM    1  C   UNL     1      40.371 -13.209   5.922  1.00  0.00     0.271 C 
HETATM    2  N   UNL     1      40.293 -11.951   5.302  1.00  0.00    -0.324 N 
HETATM    3  O   UNL     1      39.416 -13.640   6.572  1.00  0.00    -0.266 OA
ENDROOT
BRANCH   2   4
HETATM    4  C   UNL     1      39.045 -11.204   5.493  1.00  0.00     0.173 C 
BRANCH   4   5
HETATM    5  C   UNL     1      39.186 -10.120   6.516  1.00  0.00     0.000 A 
HETATM    6  S   UNL     1      38.980  -8.477   6.063  1.00  0.00    -0.105 SA
HETATM    7  C   UNL     1      39.184  -7.937   7.671  1.00  0.00     0.050 A 
HETATM    8  C   UNL     1      39.388  -8.981   8.544  1.00  0.00     0.008 A 
HETATM    9  C   UNL     1      39.388 -10.241   7.879  1.00  0.00     0.017 A 
ENDBRANCH   4   5
ENDBRANCH   2   4
BRANCH   2  10
HETATM   10  C   UNL     1      41.371 -11.344   4.492  1.00  0.00     0.220 C 
BRANCH  10  11
HETATM   11  C   UNL     1      41.996 -10.115   5.201  1.00  0.00     0.245 C 
HETATM   12  N   UNL     1      42.557 -10.255   6.442  1.00  0.00    -0.357 N 
HETATM   13  H   UNL     1      42.341 -11.085   6.981  1.00  0.00     0.162 HD
HETATM   14  O   UNL     1      42.098  -9.039   4.593  1.00  0.00    -0.271 OA
BRANCH  12  15
HETATM   15  C   UNL     1      43.103  -9.122   7.174  1.00  0.00     0.154 C 
BRANCH  15  16
HETATM   16  C   UNL     1      44.260  -9.536   8.091  1.00  0.00     0.139 C 
HETATM   17  O   UNL     1      44.389  -8.574   9.163  1.00  0.00    -0.384 OA
HETATM   18  C   UNL     1      44.622  -9.303  10.372  1.00  0.00     0.168 C 
HETATM   19  C   UNL     1      43.852 -10.590  10.206  1.00  0.00     0.029 C 
HETATM   20  C   UNL     1      44.056 -10.903   8.741  1.00  0.00     0.035 C 
ENDBRANCH  15  16
ENDBRANCH  12  15
ENDBRANCH  10  11
BRANCH  10  21
HETATM   21  C   UNL     1      41.015 -11.263   3.014  1.00  0.00     0.014 A 
HETATM   22  S   UNL     1      39.895 -10.164   2.324  1.00  0.00    -0.104 SA
HETATM   23  C   UNL     1      40.135 -10.767   0.748  1.00  0.00     0.050 A 
HETATM   24  C   UNL     1      41.047 -11.795   0.726  1.00  0.00     0.008 A 
HETATM   25  C   UNL     1      41.550 -12.080   2.025  1.00  0.00     0.017 A 
ENDBRANCH  10  21
ENDBRANCH   2  10
BRANCH   1  26
HETATM   26  C   UNL     1      41.536 -14.057   5.730  1.00  0.00     0.101 C 
HETATM   27  N   UNL     1      41.742 -15.000   4.746  1.00  0.00    -0.351 N 
HETATM   28  C   UNL     1      42.909 -15.706   4.963  1.00  0.00     0.043 C 
HETATM   29  H   UNL     1      41.075 -15.206   4.008  1.00  0.00     0.166 HD
HETATM   30  C   UNL     1      43.570 -15.026   5.973  1.00  0.00     0.033 C 
HETATM   31  C   UNL     1      42.727 -13.990   6.434  1.00  0.00     0.037 C 
BRANCH  28  32
HETATM   32  C   UNL     1      43.282 -16.923   4.225  1.00  0.00    -0.009 A 
HETATM   33  C   UNL     1      42.787 -17.197   2.941  1.00  0.00     0.013 A 
HETATM   34  C   UNL     1      43.120 -18.384   2.279  1.00  0.00     0.001 A 
HETATM   35  C   UNL     1      43.957 -19.316   2.888  1.00  0.00     0.000 A 
HETATM   36  C   UNL     1      44.464 -19.059   4.157  1.00  0.00     0.001 A 
HETATM   37  C   UNL     1      44.128 -17.874   4.818  1.00  0.00     0.013 A 
ENDBRANCH  28  32
ENDBRANCH   1  26
TORSDOF 9
ENDMDL
MODEL 10
REMARK VINA RESULT:      -7.5     17.209     19.717
REMARK  9 active torsions:
REMARK  status: ('A' for Active; 'I' for Inactive)
REMARK    1  A    between atoms: C_4  and  C_5 
REMARK    2  A    between atoms: C_8  and  C_9 
REMARK       I    between atoms: C_9  and  N_10 
REMARK    3  A    between atoms: N_10  and  C_26 
REMARK    4  A    between atoms: N_10  and  C_11 
REMARK    5  A    between atoms: C_11  and  C_12 
REMARK    6  A    between atoms: C_11  and  C_21 
REMARK       I    between atoms: C_12  and  N_13 
REMARK    7  A    between atoms: N_13  and  C_14 
REMARK    8  A    between atoms: C_14  and  C_15 
REMARK    9  A    between atoms: C_26  and  C_27 
ROOT
HETATM    1  C   UNL     1      43.227 -29.332   0.562  1.00  0.00     0.271 C 
HETATM    2  N   UNL     1      43.749 -30.187   1.547  1.00  0.00    -0.324 N 
HETATM    3  O   UNL     1      42.216 -28.667   0.791  1.00  0.00    -0.266 OA
ENDROOT
BRANCH   2   4
HETATM    4  C   UNL     1      43.018 -30.243   2.818  1.00  0.00     0.173 C 
BRANCH   4   5
HETATM    5  C   UNL     1      42.075 -31.405   2.877  1.00  0.00     0.000 A 
HETATM    6  S   UNL     1      42.497 -32.810   3.767  1.00  0.00    -0.105 SA
HETATM    7  C   UNL     1      40.990 -33.549   3.445  1.00  0.00     0.050 A 
HETATM    8  C   UNL     1      40.171 -32.742   2.691  1.00  0.00     0.008 A 
HETATM    9  C   UNL     1      40.795 -31.504   2.364  1.00  0.00     0.017 A 
ENDBRANCH   4   5
ENDBRANCH   2   4
BRANCH   2  10
HETATM   10  C   UNL     1      44.960 -31.020   1.384  1.00  0.00     0.220 C 
BRANCH  10  11
HETATM   11  C   UNL     1      46.255 -30.174   1.495  1.00  0.00     0.245 C 
HETATM   12  N   UNL     1      47.359 -30.516   0.761  1.00  0.00    -0.357 N 
HETATM   13  H   UNL     1      47.403 -31.442   0.354  1.00  0.00     0.162 HD
HETATM   14  O   UNL     1      46.248 -29.121   2.150  1.00  0.00    -0.271 OA
BRANCH  12  15
HETATM   15  C   UNL     1      48.615 -29.791   0.875  1.00  0.00     0.154 C 
BRANCH  15  16
HETATM   16  C   UNL     1      49.193 -29.427  -0.499  1.00  0.00     0.139 C 
HETATM   17  O   UNL     1      50.563 -29.884  -0.577  1.00  0.00    -0.384 OA
HETATM   18  C   UNL     1      50.753 -30.460  -1.874  1.00  0.00     0.168 C 
HETATM   19  C   UNL     1      49.421 -31.075  -2.225  1.00  0.00     0.029 C 
HETATM   20  C   UNL     1      48.441 -30.073  -1.660  1.00  0.00     0.035 C 
ENDBRANCH  15  16
ENDBRANCH  12  15
ENDBRANCH  10  11
BRANCH  10  21
HETATM   21  C   UNL     1      44.819 -32.042   0.265  1.00  0.00     0.014 A 
HETATM   22  S   UNL     1      43.423 -32.988  -0.041  1.00  0.00    -0.104 SA
HETATM   23  C   UNL     1      44.136 -33.774  -1.374  1.00  0.00     0.050 A 
HETATM   24  C   UNL     1      45.421 -33.341  -1.598  1.00  0.00     0.008 A 
HETATM   25  C   UNL     1      45.813 -32.348  -0.657  1.00  0.00     0.017 A 
ENDBRANCH  10  21
ENDBRANCH   2  10
BRANCH   1  26
HETATM   26  C   UNL     1      43.922 -29.151  -0.703  1.00  0.00     0.101 C 
HETATM   27  N   UNL     1      43.717 -29.831  -1.884  1.00  0.00    -0.351 N 
HETATM   28  C   UNL     1      44.657 -29.482  -2.833  1.00  0.00     0.043 C 
HETATM   29  H   UNL     1      43.019 -30.558  -2.007  1.00  0.00     0.166 HD
HETATM   30  C   UNL     1      45.318 -28.381  -2.313  1.00  0.00     0.033 C 
HETATM   31  C   UNL     1      44.846 -28.163  -0.998  1.00  0.00     0.037 C 
BRANCH  28  32
HETATM   32  C   UNL     1      44.845 -30.198  -4.105  1.00  0.00    -0.009 A 
HETATM   33  C   UNL     1      43.880 -30.174  -5.123  1.00  0.00     0.013 A 
HETATM   34  C   UNL     1      44.062 -30.902  -6.305  1.00  0.00     0.001 A 
HETATM   35  C   UNL     1      45.213 -31.663  -6.490  1.00  0.00     0.000 A 
HETATM   36  C   UNL     1      46.184 -31.694  -5.496  1.00  0.00     0.001 A 
HETATM   37  C   UNL     1      46.000 -30.968  -4.315  1.00  0.00     0.013 A 
ENDBRANCH  28  32
ENDBRANCH   1  26
TORSDOF 9
ENDMDL
