MODEL 1
REMARK VINA RESULT:      -8.2      0.000      0.000
REMARK  3 active torsions:
REMARK  status: ('A' for Active; 'I' for Inactive)
REMARK    1  A    between atoms: C_2  and  N_3 
REMARK       I    between atoms: N_3  and  C_4 
REMARK    2  A    between atoms: C_4  and  C_5 
REMARK    3  A    between atoms: C_5  and  C_6 
ROOT
HETATM    1  C   UNL     1      41.125 -15.210   4.917  1.00  0.00     0.286 C 
HETATM    2  N   UNL     1      40.809 -15.760   3.518  1.00  0.00    -0.056 N 
HETATM    3  H   UNL     1      41.496 -16.493   3.271  1.00  0.00     0.278 HD
HETATM    4  H   UNL     1      39.904 -16.252   3.545  1.00  0.00     0.278 HD
HETATM    5  C   UNL     1      40.783 -14.653   2.508  1.00  0.00     0.209 C 
HETATM    6  C   UNL     1      39.633 -13.697   2.895  1.00  0.00     0.115 C 
HETATM    7  N   UNL     1      39.771 -13.219   4.270  1.00  0.00    -0.353 N 
HETATM    8  C   UNL     1      40.211 -14.024   5.301  1.00  0.00     0.249 C 
HETATM    9  O   UNL     1      39.951 -13.737   6.464  1.00  0.00    -0.271 OA
HETATM   10  C   UNL     1      40.604 -15.215   1.106  1.00  0.00     0.035 C 
HETATM   11  C   UNL     1      40.520 -14.068   0.099  1.00  0.00     0.002 C 
HETATM   12  C   UNL     1      39.414 -13.074   0.457  1.00  0.00     0.002 C 
HETATM   13  C   UNL     1      39.537 -12.549   1.891  1.00  0.00     0.027 C 
HETATM   14  H   UNL     1      39.144 -12.480   4.588  1.00  0.00     0.163 HD
ENDROOT
BRANCH   1  15
HETATM   15  C   UNL     1      41.046 -16.335   5.939  1.00  0.00     0.146 C 
BRANCH  15  16
HETATM   16  C   UNL     1      42.379 -16.420   6.620  1.00  0.00     0.224 C 
HETATM   17  N   UNL     1      43.383 -17.253   6.254  1.00  0.00    -0.327 N 
HETATM   18  H   UNL     1      44.122 -17.250   6.954  1.00  0.00     0.169 HD
HETATM   19  O   UNL     1      42.476 -15.859   7.721  1.00  0.00    -0.273 OA
BRANCH  17  20
HETATM   20  C   UNL     1      43.584 -18.156   5.196  1.00  0.00     0.034 A 
HETATM   21  C   UNL     1      43.597 -17.836   3.838  1.00  0.00     0.032 A 
HETATM   22  C   UNL     1      43.785 -18.836   2.876  1.00  0.00     0.044 A 
HETATM   23  C   UNL     1      43.971 -20.153   3.270  1.00  0.00     0.116 A 
HETATM   24  C   UNL     1      43.992 -20.490   4.613  1.00  0.00     0.044 A 
HETATM   25  F   UNL     1      44.144 -21.105   2.345  1.00  0.00    -0.206 F 
HETATM   26  C   UNL     1      43.812 -19.492   5.572  1.00  0.00     0.032 A 
ENDBRANCH  17  20
ENDBRANCH  15  16
ENDBRANCH   1  15
TORSDOF 3
ENDMDL
MODEL 2
REMARK VINA RESULT:      -8.2      1.999      2.134
REMARK  3 active torsions:
REMARK  status: ('A' for Active; 'I' for Inactive)
REMARK    1  A    between atoms: C_2  and  N_3 
REMARK       I    between atoms: N_3  and  C_4 
REMARK    2  A    between atoms: C_4  and  C_5 
REMARK    3  A    between atoms: C_5  and  C_6 
ROOT
HETATM    1  C   UNL     1      41.904 -15.342   6.274  1.00  0.00     0.286 C 
HETATM    2  N   UNL     1      42.534 -14.915   4.940  1.00  0.00    -0.056 N 
HETATM    3  H   UNL     1      43.549 -15.116   4.957  1.00  0.00     0.278 HD
HETATM    4  H   UNL     1      42.164 -15.512   4.185  1.00  0.00     0.278 HD
HETATM    5  C   UNL     1      42.252 -13.469   4.661  1.00  0.00     0.209 C 
HETATM    6  C   UNL     1      40.723 -13.313   4.516  1.00  0.00     0.115 C 
HETATM    7  N   UNL     1      40.016 -13.821   5.691  1.00  0.00    -0.353 N 
HETATM    8  C   UNL     1      40.409 -14.960   6.365  1.00  0.00     0.249 C 
HETATM    9  O   UNL     1      39.610 -15.567   7.070  1.00  0.00    -0.271 OA
HETATM   10  C   UNL     1      42.989 -13.015   3.411  1.00  0.00     0.035 C 
HETATM   11  C   UNL     1      42.641 -11.557   3.111  1.00  0.00     0.002 C 
HETATM   12  C   UNL     1      41.132 -11.344   2.989  1.00  0.00     0.002 C 
HETATM   13  C   UNL     1      40.365 -11.859   4.211  1.00  0.00     0.027 C 
HETATM   14  H   UNL     1      39.014 -13.647   5.763  1.00  0.00     0.163 HD
ENDROOT
BRANCH   1  15
HETATM   15  C   UNL     1      42.116 -16.835   6.484  1.00  0.00     0.146 C 
BRANCH  15  16
HETATM   16  C   UNL     1      43.594 -17.073   6.563  1.00  0.00     0.224 C 
HETATM   17  N   UNL     1      44.302 -17.834   5.695  1.00  0.00    -0.327 N 
HETATM   18  H   UNL     1      45.250 -17.980   6.039  1.00  0.00     0.169 HD
HETATM   19  O   UNL     1      44.155 -16.739   7.618  1.00  0.00    -0.273 OA
BRANCH  17  20
HETATM   20  C   UNL     1      44.002 -18.516   4.504  1.00  0.00     0.034 A 
HETATM   21  C   UNL     1      43.590 -17.930   3.307  1.00  0.00     0.032 A 
HETATM   22  C   UNL     1      43.298 -18.726   2.192  1.00  0.00     0.044 A 
HETATM   23  C   UNL     1      43.428 -20.105   2.269  1.00  0.00     0.116 A 
HETATM   24  C   UNL     1      43.864 -20.707   3.438  1.00  0.00     0.044 A 
HETATM   25  F   UNL     1      43.140 -20.859   1.201  1.00  0.00    -0.206 F 
HETATM   26  C   UNL     1      44.163 -19.913   4.546  1.00  0.00     0.032 A 
ENDBRANCH  17  20
ENDBRANCH  15  16
ENDBRANCH   1  15
TORSDOF 3
ENDMDL
MODEL 3
REMARK VINA RESULT:      -8.0      2.714      6.401
REMARK  3 active torsions:
REMARK  status: ('A' for Active; 'I' for Inactive)
REMARK    1  A    between atoms: C_2  and  N_3 
REMARK       I    between atoms: N_3  and  C_4 
REMARK    2  A    between atoms: C_4  and  C_5 
REMARK    3  A    between atoms: C_5  and  C_6 
ROOT
HETATM    1  C   UNL     1      43.472 -15.766   4.227  1.00  0.00     0.286 C 
HETATM    2  N   UNL     1      43.049 -16.960   5.094  1.00  0.00    -0.056 N 
HETATM    3  H   UNL     1      43.190 -16.731   6.093  1.00  0.00     0.278 HD
HETATM    4  H   UNL     1      42.032 -17.102   5.002  1.00  0.00     0.278 HD
HETATM    5  C   UNL     1      43.796 -18.196   4.692  1.00  0.00     0.209 C 
HETATM    6  C   UNL     1      43.403 -18.525   3.236  1.00  0.00     0.115 C 
HETATM    7  N   UNL     1      43.644 -17.391   2.345  1.00  0.00    -0.353 N 
HETATM    8  C   UNL     1      43.403 -16.084   2.717  1.00  0.00     0.249 C 
HETATM    9  O   UNL     1      43.237 -15.219   1.863  1.00  0.00    -0.271 OA
HETATM   10  C   UNL     1      43.476 -19.343   5.638  1.00  0.00     0.035 C 
HETATM   11  C   UNL     1      44.201 -20.608   5.176  1.00  0.00     0.002 C 
HETATM   12  C   UNL     1      43.868 -20.958   3.725  1.00  0.00     0.002 C 
HETATM   13  C   UNL     1      44.118 -19.791   2.766  1.00  0.00     0.027 C 
HETATM   14  H   UNL     1      43.547 -17.539   1.340  1.00  0.00     0.163 HD
ENDROOT
BRANCH   1  15
HETATM   15  C   UNL     1      42.628 -14.550   4.585  1.00  0.00     0.146 C 
BRANCH  15  16
HETATM   16  C   UNL     1      41.244 -15.039   4.893  1.00  0.00     0.224 C 
HETATM   17  N   UNL     1      40.212 -15.041   4.016  1.00  0.00    -0.327 N 
HETATM   18  H   UNL     1      39.339 -15.263   4.492  1.00  0.00     0.169 HD
HETATM   19  O   UNL     1      40.978 -15.236   6.088  1.00  0.00    -0.273 OA
BRANCH  17  20
HETATM   20  C   UNL     1      40.070 -14.729   2.653  1.00  0.00     0.034 A 
HETATM   21  C   UNL     1      39.953 -15.650   1.612  1.00  0.00     0.032 A 
HETATM   22  C   UNL     1      39.841 -15.210   0.287  1.00  0.00     0.044 A 
HETATM   23  C   UNL     1      39.832 -13.852   0.003  1.00  0.00     0.116 A 
HETATM   24  C   UNL     1      39.916 -12.919   1.024  1.00  0.00     0.044 A 
HETATM   25  F   UNL     1      39.730 -13.439  -1.266  1.00  0.00    -0.206 F 
HETATM   26  C   UNL     1      40.021 -13.358   2.345  1.00  0.00     0.032 A 
ENDBRANCH  17  20
ENDBRANCH  15  16
ENDBRANCH   1  15
TORSDOF 3
ENDMDL
MODEL 4
REMARK VINA RESULT:      -8.0      2.687      4.051
REMARK  3 active torsions:
REMARK  status: ('A' for Active; 'I' for Inactive)
REMARK    1  A    between atoms: C_2  and  N_3 
REMARK       I    between atoms: N_3  and  C_4 
REMARK    2  A    between atoms: C_4  and  C_5 
REMARK    3  A    between atoms: C_5  and  C_6 
ROOT
HETATM    1  C   UNL     1      39.998 -13.226   2.129  1.00  0.00     0.286 C 
HETATM    2  N   UNL     1      40.521 -12.488   0.889  1.00  0.00    -0.056 N 
HETATM    3  H   UNL     1      40.518 -11.468   1.066  1.00  0.00     0.278 HD
HETATM    4  H   UNL     1      41.515 -12.722   0.750  1.00  0.00     0.278 HD
HETATM    5  C   UNL     1      39.715 -12.850  -0.322  1.00  0.00     0.209 C 
HETATM    6  C   UNL     1      39.908 -14.361  -0.573  1.00  0.00     0.115 C 
HETATM    7  N   UNL     1      39.561 -15.151   0.607  1.00  0.00    -0.353 N 
HETATM    8  C   UNL     1      39.862 -14.747   1.892  1.00  0.00     0.249 C 
HETATM    9  O   UNL     1      39.920 -15.568   2.800  1.00  0.00    -0.271 OA
HETATM   10  C   UNL     1      40.148 -12.017  -1.518  1.00  0.00     0.035 C 
HETATM   11  C   UNL     1      39.356 -12.443  -2.755  1.00  0.00     0.002 C 
HETATM   12  C   UNL     1      39.490 -13.942  -3.028  1.00  0.00     0.002 C 
HETATM   13  C   UNL     1      39.124 -14.797  -1.811  1.00  0.00     0.027 C 
HETATM   14  H   UNL     1      39.522 -16.166   0.513  1.00  0.00     0.163 HD
ENDROOT
BRANCH   1  15
HETATM   15  C   UNL     1      40.894 -12.921   3.322  1.00  0.00     0.146 C 
BRANCH  15  16
HETATM   16  C   UNL     1      42.283 -12.714   2.799  1.00  0.00     0.224 C 
HETATM   17  N   UNL     1      43.232 -13.678   2.718  1.00  0.00    -0.327 N 
HETATM   18  H   UNL     1      44.136 -13.271   2.487  1.00  0.00     0.169 HD
HETATM   19  O   UNL     1      42.651 -11.539   2.649  1.00  0.00    -0.273 OA
BRANCH  17  20
HETATM   20  C   UNL     1      43.259 -15.062   2.960  1.00  0.00     0.034 A 
HETATM   21  C   UNL     1      43.225 -15.675   4.213  1.00  0.00     0.032 A 
HETATM   22  C   UNL     1      43.282 -17.070   4.321  1.00  0.00     0.044 A 
HETATM   23  C   UNL     1      43.360 -17.853   3.178  1.00  0.00     0.116 A 
HETATM   24  C   UNL     1      43.365 -17.268   1.922  1.00  0.00     0.044 A 
HETATM   25  F   UNL     1      43.420 -19.186   3.289  1.00  0.00    -0.206 F 
HETATM   26  C   UNL     1      43.300 -15.878   1.815  1.00  0.00     0.032 A 
ENDBRANCH  17  20
ENDBRANCH  15  16
ENDBRANCH   1  15
TORSDOF 3
ENDMDL
MODEL 5
REMARK VINA RESULT:      -8.0      1.939      5.908
REMARK  3 active torsions:
REMARK  status: ('A' for Active; 'I' for Inactive)
REMARK    1  A    between atoms: C_2  and  N_3 
REMARK       I    between atoms: N_3  and  C_4 
REMARK    2  A    between atoms: C_4  and  C_5 
REMARK    3  A    between atoms: C_5  and  C_6 
ROOT
HETATM    1  C   UNL     1      41.867 -15.623   5.352  1.00  0.00     0.286 C 
HETATM    2  N   UNL     1      42.628 -16.018   4.079  1.00  0.00    -0.056 N 
HETATM    3  H   UNL     1      42.126 -15.657   3.249  1.00  0.00     0.278 HD
HETATM    4  H   UNL     1      43.537 -15.532   4.063  1.00  0.00     0.278 HD
HETATM    5  C   UNL     1      42.819 -17.504   4.016  1.00  0.00     0.209 C 
HETATM    6  C   UNL     1      43.697 -17.911   5.219  1.00  0.00     0.115 C 
HETATM    7  N   UNL     1      43.120 -17.457   6.484  1.00  0.00    -0.353 N 
HETATM    8  C   UNL     1      42.497 -16.234   6.625  1.00  0.00     0.249 C 
HETATM    9  O   UNL     1      42.381 -15.724   7.733  1.00  0.00    -0.271 OA
HETATM   10  C   UNL     1      43.451 -17.904   2.692  1.00  0.00     0.035 C 
HETATM   11  C   UNL     1      43.691 -19.414   2.673  1.00  0.00     0.002 C 
HETATM   12  C   UNL     1      44.532 -19.872   3.865  1.00  0.00     0.002 C 
HETATM   13  C   UNL     1      43.948 -19.418   5.206  1.00  0.00     0.027 C 
HETATM   14  H   UNL     1      43.544 -17.785   7.351  1.00  0.00     0.163 HD
ENDROOT
BRANCH   1  15
HETATM   15  C   UNL     1      41.776 -14.106   5.443  1.00  0.00     0.146 C 
BRANCH  15  16
HETATM   16  C   UNL     1      40.323 -13.739   5.399  1.00  0.00     0.224 C 
HETATM   17  N   UNL     1      39.608 -13.545   4.264  1.00  0.00    -0.327 N 
HETATM   18  H   UNL     1      38.695 -13.149   4.480  1.00  0.00     0.169 HD
HETATM   19  O   UNL     1      39.811 -13.367   6.466  1.00  0.00    -0.273 OA
BRANCH  17  20
HETATM   20  C   UNL     1      39.873 -13.686   2.891  1.00  0.00     0.034 A 
HETATM   21  C   UNL     1      40.227 -12.659   2.017  1.00  0.00     0.032 A 
HETATM   22  C   UNL     1      40.443 -12.927   0.659  1.00  0.00     0.044 A 
HETATM   23  C   UNL     1      40.318 -14.222   0.178  1.00  0.00     0.116 A 
HETATM   24  C   UNL     1      39.997 -15.263   1.033  1.00  0.00     0.044 A 
HETATM   25  F   UNL     1      40.519 -14.470  -1.122  1.00  0.00    -0.206 F 
HETATM   26  C   UNL     1      39.789 -14.997   2.388  1.00  0.00     0.032 A 
ENDBRANCH  17  20
ENDBRANCH  15  16
ENDBRANCH   1  15
TORSDOF 3
ENDMDL
MODEL 6
REMARK VINA RESULT:      -7.7      4.688      6.941
REMARK  3 active torsions:
REMARK  status: ('A' for Active; 'I' for Inactive)
REMARK    1  A    between atoms: C_2  and  N_3 
REMARK       I    between atoms: N_3  and  C_4 
REMARK    2  A    between atoms: C_4  and  C_5 
REMARK    3  A    between atoms: C_5  and  C_6 
ROOT
HETATM    1  C   UNL     1      42.072 -14.504   5.066  1.00  0.00     0.286 C 
HETATM    2  N   UNL     1      42.255 -15.072   3.651  1.00  0.00    -0.056 N 
HETATM    3  H   UNL     1      41.417 -14.863   3.082  1.00  0.00     0.278 HD
HETATM    4  H   UNL     1      43.021 -14.567   3.180  1.00  0.00     0.278 HD
HETATM    5  C   UNL     1      42.543 -16.543   3.705  1.00  0.00     0.209 C 
HETATM    6  C   UNL     1      43.883 -16.727   4.451  1.00  0.00     0.115 C 
HETATM    7  N   UNL     1      43.855 -16.097   5.770  1.00  0.00    -0.353 N 
HETATM    8  C   UNL     1      43.236 -14.886   6.007  1.00  0.00     0.249 C 
HETATM    9  O   UNL     1      43.552 -14.211   6.980  1.00  0.00    -0.271 OA
HETATM   10  C   UNL     1      42.591 -17.128   2.303  1.00  0.00     0.035 C 
HETATM   11  C   UNL     1      42.943 -18.613   2.377  1.00  0.00     0.002 C 
HETATM   12  C   UNL     1      44.250 -18.852   3.136  1.00  0.00     0.002 C 
HETATM   13  C   UNL     1      44.248 -18.209   4.526  1.00  0.00     0.027 C 
HETATM   14  H   UNL     1      44.636 -16.270   6.403  1.00  0.00     0.163 HD
ENDROOT
BRANCH   1  15
HETATM   15  C   UNL     1      41.883 -12.995   4.990  1.00  0.00     0.146 C 
BRANCH  15  16
HETATM   16  C   UNL     1      43.038 -12.436   4.214  1.00  0.00     0.224 C 
HETATM   17  N   UNL     1      44.010 -11.649   4.734  1.00  0.00    -0.327 N 
HETATM   18  H   UNL     1      44.591 -11.261   3.993  1.00  0.00     0.169 HD
HETATM   19  O   UNL     1      42.966 -12.512   2.979  1.00  0.00    -0.273 OA
BRANCH  17  20
HETATM   20  C   UNL     1      44.332 -11.195   6.025  1.00  0.00     0.034 A 
HETATM   21  C   UNL     1      43.437 -10.656   6.949  1.00  0.00     0.032 A 
HETATM   22  C   UNL     1      43.889 -10.217   8.200  1.00  0.00     0.044 A 
HETATM   23  C   UNL     1      45.231 -10.327   8.532  1.00  0.00     0.116 A 
HETATM   24  C   UNL     1      46.134 -10.887   7.642  1.00  0.00     0.044 A 
HETATM   25  F   UNL     1      45.657  -9.900   9.727  1.00  0.00    -0.206 F 
HETATM   26  C   UNL     1      45.681 -11.332   6.398  1.00  0.00     0.032 A 
ENDBRANCH  17  20
ENDBRANCH  15  16
ENDBRANCH   1  15
TORSDOF 3
ENDMDL
MODEL 7
REMARK VINA RESULT:      -7.6      2.612      6.145
REMARK  3 active torsions:
REMARK  status: ('A' for Active; 'I' for Inactive)
REMARK    1  A    between atoms: C_2  and  N_3 
REMARK       I    between atoms: N_3  and  C_4 
REMARK    2  A    between atoms: C_4  and  C_5 
REMARK    3  A    between atoms: C_5  and  C_6 
ROOT
HETATM    1  C   UNL     1      42.371 -13.287   4.898  1.00  0.00     0.286 C 
HETATM    2  N   UNL     1      41.852 -14.404   5.816  1.00  0.00    -0.056 N 
HETATM    3  H   UNL     1      41.614 -14.008   6.742  1.00  0.00     0.278 HD
HETATM    4  H   UNL     1      40.956 -14.756   5.447  1.00  0.00     0.278 HD
HETATM    5  C   UNL     1      42.857 -15.512   5.921  1.00  0.00     0.209 C 
HETATM    6  C   UNL     1      43.027 -16.119   4.512  1.00  0.00     0.115 C 
HETATM    7  N   UNL     1      43.393 -15.101   3.528  1.00  0.00    -0.353 N 
HETATM    8  C   UNL     1      42.860 -13.829   3.536  1.00  0.00     0.249 C 
HETATM    9  O   UNL     1      42.872 -13.147   2.517  1.00  0.00    -0.271 OA
HETATM   10  C   UNL     1      42.400 -16.550   6.934  1.00  0.00     0.035 C 
HETATM   11  C   UNL     1      43.408 -17.699   6.982  1.00  0.00     0.002 C 
HETATM   12  C   UNL     1      43.636 -18.315   5.601  1.00  0.00     0.002 C 
HETATM   13  C   UNL     1      44.029 -17.273   4.549  1.00  0.00     0.027 C 
HETATM   14  H   UNL     1      43.662 -15.409   2.593  1.00  0.00     0.163 HD
ENDROOT
BRANCH   1  15
HETATM   15  C   UNL     1      41.293 -12.225   4.727  1.00  0.00     0.146 C 
BRANCH  15  16
HETATM   16  C   UNL     1      39.965 -12.905   4.865  1.00  0.00     0.224 C 
HETATM   17  N   UNL     1      39.253 -13.429   3.838  1.00  0.00    -0.327 N 
HETATM   18  H   UNL     1      38.318 -13.690   4.148  1.00  0.00     0.169 HD
HETATM   19  O   UNL     1      39.383 -12.773   5.953  1.00  0.00    -0.273 OA
BRANCH  17  20
HETATM   20  C   UNL     1      39.484 -13.606   2.463  1.00  0.00     0.034 A 
HETATM   21  C   UNL     1      39.427 -12.609   1.489  1.00  0.00     0.032 A 
HETATM   22  C   UNL     1      39.655 -12.920   0.143  1.00  0.00     0.044 A 
HETATM   23  C   UNL     1      39.951 -14.223  -0.229  1.00  0.00     0.116 A 
HETATM   24  C   UNL     1      40.043 -15.224   0.724  1.00  0.00     0.044 A 
HETATM   25  F   UNL     1      40.162 -14.515  -1.518  1.00  0.00    -0.206 F 
HETATM   26  C   UNL     1      39.823 -14.912   2.068  1.00  0.00     0.032 A 
ENDBRANCH  17  20
ENDBRANCH  15  16
ENDBRANCH   1  15
TORSDOF 3
ENDMDL
MODEL 8
REMARK VINA RESULT:      -7.6      2.584      3.980
REMARK  3 active torsions:
REMARK  status: ('A' for Active; 'I' for Inactive)
REMARK    1  A    between atoms: C_2  and  N_3 
REMARK       I    between atoms: N_3  and  C_4 
REMARK    2  A    between atoms: C_4  and  C_5 
REMARK    3  A    between atoms: C_5  and  C_6 
ROOT
HETATM    1  C   UNL     1      40.957 -14.950   4.106  1.00  0.00     0.286 C 
HETATM    2  N   UNL     1      42.389 -14.735   4.617  1.00  0.00    -0.056 N 
HETATM    3  H   UNL     1      42.765 -15.628   4.982  1.00  0.00     0.278 HD
HETATM    4  H   UNL     1      43.002 -14.504   3.820  1.00  0.00     0.278 HD
HETATM    5  C   UNL     1      42.426 -13.648   5.648  1.00  0.00     0.209 C 
HETATM    6  C   UNL     1      41.984 -12.339   4.960  1.00  0.00     0.115 C 
HETATM    7  N   UNL     1      40.677 -12.482   4.320  1.00  0.00    -0.353 N 
HETATM    8  C   UNL     1      40.291 -13.630   3.657  1.00  0.00     0.249 C 
HETATM    9  O   UNL     1      39.394 -13.589   2.822  1.00  0.00    -0.271 OA
HETATM   10  C   UNL     1      43.818 -13.530   6.249  1.00  0.00     0.035 C 
HETATM   11  C   UNL     1      43.848 -12.379   7.254  1.00  0.00     0.002 C 
HETATM   12  C   UNL     1      43.387 -11.062   6.627  1.00  0.00     0.002 C 
HETATM   13  C   UNL     1      42.015 -11.179   5.955  1.00  0.00     0.027 C 
HETATM   14  H   UNL     1      40.227 -11.645   3.951  1.00  0.00     0.163 HD
ENDROOT
BRANCH   1  15
HETATM   15  C   UNL     1      40.963 -15.985   2.989  1.00  0.00     0.146 C 
BRANCH  15  16
HETATM   16  C   UNL     1      42.256 -15.835   2.244  1.00  0.00     0.224 C 
HETATM   17  N   UNL     1      43.294 -16.702   2.314  1.00  0.00    -0.327 N 
HETATM   18  H   UNL     1      44.116 -16.314   1.856  1.00  0.00     0.169 HD
HETATM   19  O   UNL     1      42.468 -14.733   1.716  1.00  0.00    -0.273 OA
BRANCH  17  20
HETATM   20  C   UNL     1      43.505 -17.945   2.935  1.00  0.00     0.034 A 
HETATM   21  C   UNL     1      43.916 -18.142   4.254  1.00  0.00     0.032 A 
HETATM   22  C   UNL     1      44.114 -19.437   4.749  1.00  0.00     0.044 A 
HETATM   23  C   UNL     1      43.890 -20.535   3.931  1.00  0.00     0.116 A 
HETATM   24  C   UNL     1      43.453 -20.366   2.628  1.00  0.00     0.044 A 
HETATM   25  F   UNL     1      44.088 -21.770   4.409  1.00  0.00    -0.206 F 
HETATM   26  C   UNL     1      43.249 -19.075   2.137  1.00  0.00     0.032 A 
ENDBRANCH  17  20
ENDBRANCH  15  16
ENDBRANCH   1  15
TORSDOF 3
ENDMDL
MODEL 9
REMARK VINA RESULT:      -7.5      2.754      4.214
REMARK  3 active torsions:
REMARK  status: ('A' for Active; 'I' for Inactive)
REMARK    1  A    between atoms: C_2  and  N_3 
REMARK       I    between atoms: N_3  and  C_4 
REMARK    2  A    between atoms: C_4  and  C_5 
REMARK    3  A    between atoms: C_5  and  C_6 
ROOT
HETATM    1  C   UNL     1      41.014 -12.898   0.927  1.00  0.00     0.286 C 
HETATM    2  N   UNL     1      40.237 -14.115   0.405  1.00  0.00    -0.056 N 
HETATM    3  H   UNL     1      40.819 -14.965   0.502  1.00  0.00     0.278 HD
HETATM    4  H   UNL     1      39.425 -14.286   1.017  1.00  0.00     0.278 HD
HETATM    5  C   UNL     1      39.798 -13.895  -1.012  1.00  0.00     0.209 C 
HETATM    6  C   UNL     1      38.827 -12.695  -1.016  1.00  0.00     0.115 C 
HETATM    7  N   UNL     1      39.433 -11.510  -0.410  1.00  0.00    -0.353 N 
HETATM    8  C   UNL     1      40.250 -11.573   0.699  1.00  0.00     0.249 C 
HETATM    9  O   UNL     1      40.417 -10.582   1.401  1.00  0.00    -0.271 OA
HETATM   10  C   UNL     1      39.148 -15.151  -1.569  1.00  0.00     0.035 C 
HETATM   11  C   UNL     1      38.656 -14.888  -2.992  1.00  0.00     0.002 C 
HETATM   12  C   UNL     1      37.713 -13.685  -3.055  1.00  0.00     0.002 C 
HETATM   13  C   UNL     1      38.324 -12.425  -2.434  1.00  0.00     0.027 C 
HETATM   14  H   UNL     1      38.932 -10.624  -0.480  1.00  0.00     0.163 HD
ENDROOT
BRANCH   1  15
HETATM   15  C   UNL     1      41.359 -13.103   2.395  1.00  0.00     0.146 C 
BRANCH  15  16
HETATM   16  C   UNL     1      40.256 -13.913   3.007  1.00  0.00     0.224 C 
HETATM   17  N   UNL     1      40.383 -15.190   3.440  1.00  0.00    -0.327 N 
HETATM   18  H   UNL     1      39.471 -15.584   3.664  1.00  0.00     0.169 HD
HETATM   19  O   UNL     1      39.107 -13.460   2.895  1.00  0.00    -0.273 OA
BRANCH  17  20
HETATM   20  C   UNL     1      41.454 -16.092   3.563  1.00  0.00     0.034 A 
HETATM   21  C   UNL     1      42.169 -16.359   4.731  1.00  0.00     0.032 A 
HETATM   22  C   UNL     1      43.235 -17.266   4.717  1.00  0.00     0.044 A 
HETATM   23  C   UNL     1      43.581 -17.915   3.540  1.00  0.00     0.116 A 
HETATM   24  C   UNL     1      42.866 -17.689   2.375  1.00  0.00     0.044 A 
HETATM   25  F   UNL     1      44.605 -18.777   3.533  1.00  0.00    -0.206 F 
HETATM   26  C   UNL     1      41.798 -16.790   2.391  1.00  0.00     0.032 A 
ENDBRANCH  17  20
ENDBRANCH  15  16
ENDBRANCH   1  15
TORSDOF 3
ENDMDL
MODEL 10
REMARK VINA RESULT:      -7.5      3.683      5.528
REMARK  3 active torsions:
REMARK  status: ('A' for Active; 'I' for Inactive)
REMARK    1  A    between atoms: C_2  and  N_3 
REMARK       I    between atoms: N_3  and  C_4 
REMARK    2  A    between atoms: C_4  and  C_5 
REMARK    3  A    between atoms: C_5  and  C_6 
ROOT
HETATM    1  C   UNL     1      41.520 -11.419   4.527  1.00  0.00     0.286 C 
HETATM    2  N   UNL     1      41.753 -11.345   6.043  1.00  0.00    -0.056 N 
HETATM    3  H   UNL     1      40.992 -10.800   6.485  1.00  0.00     0.278 HD
HETATM    4  H   UNL     1      41.660 -12.290   6.446  1.00  0.00     0.278 HD
HETATM    5  C   UNL     1      43.103 -10.769   6.344  1.00  0.00     0.209 C 
HETATM    6  C   UNL     1      44.160 -11.734   5.764  1.00  0.00     0.115 C 
HETATM    7  N   UNL     1      43.942 -11.978   4.339  1.00  0.00    -0.353 N 
HETATM    8  C   UNL     1      42.684 -12.117   3.789  1.00  0.00     0.249 C 
HETATM    9  O   UNL     1      42.539 -12.692   2.716  1.00  0.00    -0.271 OA
HETATM   10  C   UNL     1      43.277 -10.572   7.842  1.00  0.00     0.035 C 
HETATM   11  C   UNL     1      44.681 -10.040   8.131  1.00  0.00     0.002 C 
HETATM   12  C   UNL     1      45.766 -10.947   7.548  1.00  0.00     0.002 C 
HETATM   13  C   UNL     1      45.568 -11.214   6.053  1.00  0.00     0.027 C 
HETATM   14  H   UNL     1      44.656 -12.492   3.824  1.00  0.00     0.163 HD
ENDROOT
BRANCH   1  15
HETATM   15  C   UNL     1      40.187 -12.100   4.247  1.00  0.00     0.146 C 
BRANCH  15  16
HETATM   16  C   UNL     1      39.944 -13.084   5.352  1.00  0.00     0.224 C 
HETATM   17  N   UNL     1      40.243 -14.404   5.292  1.00  0.00    -0.327 N 
HETATM   18  H   UNL     1      39.843 -14.897   6.089  1.00  0.00     0.169 HD
HETATM   19  O   UNL     1      39.217 -12.705   6.283  1.00  0.00    -0.273 OA
BRANCH  17  20
HETATM   20  C   UNL     1      40.890 -15.231   4.358  1.00  0.00     0.034 A 
HETATM   21  C   UNL     1      40.419 -15.551   3.085  1.00  0.00     0.032 A 
HETATM   22  C   UNL     1      41.149 -16.410   2.254  1.00  0.00     0.044 A 
HETATM   23  C   UNL     1      42.356 -16.938   2.690  1.00  0.00     0.116 A 
HETATM   24  C   UNL     1      42.859 -16.610   3.939  1.00  0.00     0.044 A 
HETATM   25  F   UNL     1      43.046 -17.763   1.893  1.00  0.00    -0.206 F 
HETATM   26  C   UNL     1      42.133 -15.748   4.763  1.00  0.00     0.032 A 
ENDBRANCH  17  20
ENDBRANCH  15  16
ENDBRANCH   1  15
TORSDOF 3
ENDMDL
