MODEL 1
REMARK VINA RESULT:      -8.8      0.000      0.000
REMARK  6 active torsions:
REMARK  status: ('A' for Active; 'I' for Inactive)
REMARK    1  A    between atoms: C_2  and  N_3 
REMARK       I    between atoms: N_3  and  C_4 
REMARK       I    between atoms: C_4  and  N_5 
REMARK    2  A    between atoms: N_5  and  C_6 
REMARK    3  A    between atoms: C_8  and  O_9 
REMARK    4  A    between atoms: O_9  and  C_10 
REMARK    5  A    between atoms: C_10  and  C_11 
REMARK    6  A    between atoms: C_11  and  N_12 
ROOT
HETATM    1  N   UNL     1      42.035 -14.295   5.800  1.00  0.00    -0.333 N 
HETATM    2  C   UNL     1      41.367 -13.115   5.652  1.00  0.00     0.321 C 
HETATM    3  N   UNL     1      42.142 -11.992   5.588  1.00  0.00    -0.309 N 
HETATM    4  O   UNL     1      40.155 -13.025   5.493  1.00  0.00    -0.247 OA
HETATM    5  H   UNL     1      43.000 -14.257   5.500  1.00  0.00     0.165 HD
HETATM    6  H   UNL     1      41.649 -11.213   5.167  1.00  0.00     0.170 HD
ENDROOT
BRANCH   3   7
HETATM    7  C   UNL     1      43.389 -11.707   6.171  1.00  0.00     0.039 A 
HETATM    8  C   UNL     1      43.552 -11.429   7.531  1.00  0.00     0.066 A 
HETATM    9  C   UNL     1      44.808 -11.069   8.020  1.00  0.00     0.070 A 
HETATM   10  C   UNL     1      45.918 -11.035   7.182  1.00  0.00     0.037 A 
HETATM   11  C   UNL     1      45.760 -11.304   5.824  1.00  0.00     0.005 A 
HETATM   12  C   UNL     1      44.496 -11.618   5.318  1.00  0.00     0.030 A 
BRANCH   9  13
HETATM   13  O   UNL     1      44.997 -10.804   9.348  1.00  0.00    -0.349 OA
BRANCH  13  14
HETATM   14  C   UNL     1      43.915 -10.046   9.917  1.00  0.00     0.197 C 
BRANCH  14  15
HETATM   15  C   UNL     1      43.554 -10.655  11.263  1.00  0.00     0.177 C 
BRANCH  15  16
HETATM   16  N   UNL     1      43.131  -9.656  12.220  1.00  0.00    -0.279 N 
HETATM   17  N   UNL     1      42.195  -9.966  13.138  1.00  0.00    -0.185 NA
HETATM   18  C   UNL     1      42.020  -8.826  13.811  1.00  0.00     0.140 A 
HETATM   19  C   UNL     1      42.845  -7.792  13.334  1.00  0.00     0.040 A 
HETATM   20  C   UNL     1      43.561  -8.363  12.309  1.00  0.00     0.113 A 
ENDBRANCH  15  16
ENDBRANCH  14  15
ENDBRANCH  13  14
ENDBRANCH   9  13
ENDBRANCH   3   7
BRANCH   1  21
HETATM   21  C   UNL     1      41.385 -15.625   5.809  1.00  0.00     0.039 C 
HETATM   22  C   UNL     1      40.179 -15.641   6.760  1.00  0.00     0.039 C 
HETATM   23  C   UNL     1      42.412 -16.744   6.174  1.00  0.00     0.070 C 
HETATM   24  C   UNL     1      42.871 -17.229   4.829  1.00  0.00    -0.049 A 
HETATM   25  C   UNL     1      42.022 -16.790   3.813  1.00  0.00    -0.049 A 
HETATM   26  C   UNL     1      43.936 -18.069   4.551  1.00  0.00     0.007 A 
HETATM   27  C   UNL     1      40.896 -15.974   4.365  1.00  0.00     0.070 C 
HETATM   28  C   UNL     1      42.216 -17.179   2.498  1.00  0.00     0.007 A 
HETATM   29  C   UNL     1      43.292 -18.018   2.205  1.00  0.00     0.001 A 
HETATM   30  C   UNL     1      44.147 -18.460   3.225  1.00  0.00     0.001 A 
ENDBRANCH   1  21
TORSDOF 6
ENDMDL
MODEL 2
REMARK VINA RESULT:      -8.0      1.783      2.198
REMARK  6 active torsions:
REMARK  status: ('A' for Active; 'I' for Inactive)
REMARK    1  A    between atoms: C_2  and  N_3 
REMARK       I    between atoms: N_3  and  C_4 
REMARK       I    between atoms: C_4  and  N_5 
REMARK    2  A    between atoms: N_5  and  C_6 
REMARK    3  A    between atoms: C_8  and  O_9 
REMARK    4  A    between atoms: O_9  and  C_10 
REMARK    5  A    between atoms: C_10  and  C_11 
REMARK    6  A    between atoms: C_11  and  N_12 
ROOT
HETATM    1  N   UNL     1      42.694 -13.651   4.486  1.00  0.00    -0.333 N 
HETATM    2  C   UNL     1      43.016 -12.611   3.664  1.00  0.00     0.321 C 
HETATM    3  N   UNL     1      43.952 -11.739   4.142  1.00  0.00    -0.309 N 
HETATM    4  O   UNL     1      42.585 -12.474   2.525  1.00  0.00    -0.247 OA
HETATM    5  H   UNL     1      43.405 -13.862   5.173  1.00  0.00     0.165 HD
HETATM    6  H   UNL     1      44.380 -11.196   3.401  1.00  0.00     0.170 HD
ENDROOT
BRANCH   3   7
HETATM    7  C   UNL     1      44.254 -11.352   5.460  1.00  0.00     0.039 A 
HETATM    8  C   UNL     1      43.308 -10.812   6.335  1.00  0.00     0.066 A 
HETATM    9  C   UNL     1      43.703 -10.372   7.599  1.00  0.00     0.070 A 
HETATM   10  C   UNL     1      45.021 -10.512   8.024  1.00  0.00     0.037 A 
HETATM   11  C   UNL     1      45.969 -11.042   7.153  1.00  0.00     0.005 A 
HETATM   12  C   UNL     1      45.591 -11.442   5.868  1.00  0.00     0.030 A 
BRANCH   9  13
HETATM   13  O   UNL     1      42.796  -9.852   8.478  1.00  0.00    -0.349 OA
BRANCH  13  14
HETATM   14  C   UNL     1      43.317  -9.758   9.815  1.00  0.00     0.197 C 
BRANCH  14  15
HETATM   15  C   UNL     1      42.481  -8.750  10.589  1.00  0.00     0.177 C 
BRANCH  15  16
HETATM   16  N   UNL     1      41.462  -9.388  11.395  1.00  0.00    -0.279 N 
HETATM   17  N   UNL     1      40.254  -9.649  10.857  1.00  0.00    -0.185 NA
HETATM   18  C   UNL     1      39.568 -10.187  11.868  1.00  0.00     0.140 A 
HETATM   19  C   UNL     1      40.332 -10.279  13.045  1.00  0.00     0.040 A 
HETATM   20  C   UNL     1      41.559  -9.762  12.704  1.00  0.00     0.113 A 
ENDBRANCH  15  16
ENDBRANCH  14  15
ENDBRANCH  13  14
ENDBRANCH   9  13
ENDBRANCH   3   7
BRANCH   1  21
HETATM   21  C   UNL     1      41.766 -14.745   4.120  1.00  0.00     0.039 C 
HETATM   22  C   UNL     1      40.418 -14.185   3.641  1.00  0.00     0.039 C 
HETATM   23  C   UNL     1      41.578 -15.738   5.311  1.00  0.00     0.070 C 
HETATM   24  C   UNL     1      42.592 -16.806   5.019  1.00  0.00    -0.049 A 
HETATM   25  C   UNL     1      43.055 -16.723   3.706  1.00  0.00    -0.049 A 
HETATM   26  C   UNL     1      43.010 -17.827   5.857  1.00  0.00     0.007 A 
HETATM   27  C   UNL     1      42.396 -15.599   2.971  1.00  0.00     0.070 C 
HETATM   28  C   UNL     1      43.944 -17.656   3.199  1.00  0.00     0.007 A 
HETATM   29  C   UNL     1      44.379 -18.683   4.038  1.00  0.00     0.001 A 
HETATM   30  C   UNL     1      43.915 -18.768   5.358  1.00  0.00     0.001 A 
ENDBRANCH   1  21
TORSDOF 6
ENDMDL
MODEL 3
REMARK VINA RESULT:      -8.0      2.056      8.966
REMARK  6 active torsions:
REMARK  status: ('A' for Active; 'I' for Inactive)
REMARK    1  A    between atoms: C_2  and  N_3 
REMARK       I    between atoms: N_3  and  C_4 
REMARK       I    between atoms: C_4  and  N_5 
REMARK    2  A    between atoms: N_5  and  C_6 
REMARK    3  A    between atoms: C_8  and  O_9 
REMARK    4  A    between atoms: O_9  and  C_10 
REMARK    5  A    between atoms: C_10  and  C_11 
REMARK    6  A    between atoms: C_11  and  N_12 
ROOT
HETATM    1  N   UNL     1      44.326 -10.274   7.403  1.00  0.00    -0.333 N 
HETATM    2  C   UNL     1      44.803 -11.164   6.485  1.00  0.00     0.321 C 
HETATM    3  N   UNL     1      43.897 -11.633   5.578  1.00  0.00    -0.309 N 
HETATM    4  O   UNL     1      45.982 -11.485   6.387  1.00  0.00    -0.247 OA
HETATM    5  H   UNL     1      43.482  -9.802   7.110  1.00  0.00     0.165 HD
HETATM    6  H   UNL     1      44.347 -12.016   4.754  1.00  0.00     0.170 HD
ENDROOT
BRANCH   3   7
HETATM    7  C   UNL     1      42.511 -11.840   5.692  1.00  0.00     0.039 A 
HETATM    8  C   UNL     1      41.949 -13.059   6.081  1.00  0.00     0.066 A 
HETATM    9  C   UNL     1      40.563 -13.213   6.087  1.00  0.00     0.070 A 
HETATM   10  C   UNL     1      39.725 -12.151   5.763  1.00  0.00     0.037 A 
HETATM   11  C   UNL     1      40.279 -10.936   5.367  1.00  0.00     0.005 A 
HETATM   12  C   UNL     1      41.667 -10.788   5.312  1.00  0.00     0.030 A 
BRANCH   9  13
HETATM   13  O   UNL     1      39.988 -14.391   6.475  1.00  0.00    -0.349 OA
BRANCH  13  14
HETATM   14  C   UNL     1      40.848 -15.522   6.252  1.00  0.00     0.197 C 
BRANCH  14  15
HETATM   15  C   UNL     1      40.542 -16.098   4.878  1.00  0.00     0.177 C 
BRANCH  15  16
HETATM   16  N   UNL     1      41.721 -16.642   4.238  1.00  0.00    -0.279 N 
HETATM   17  N   UNL     1      42.770 -17.026   4.990  1.00  0.00    -0.185 NA
HETATM   18  C   UNL     1      43.673 -17.428   4.092  1.00  0.00     0.140 A 
HETATM   19  C   UNL     1      43.203 -17.311   2.772  1.00  0.00     0.040 A 
HETATM   20  C   UNL     1      41.930 -16.808   2.899  1.00  0.00     0.113 A 
ENDBRANCH  15  16
ENDBRANCH  14  15
ENDBRANCH  13  14
ENDBRANCH   9  13
ENDBRANCH   3   7
BRANCH   1  21
HETATM   21  C   UNL     1      45.163  -9.592   8.415  1.00  0.00     0.039 C 
HETATM   22  C   UNL     1      46.560  -9.283   7.855  1.00  0.00     0.039 C 
HETATM   23  C   UNL     1      45.249 -10.436   9.726  1.00  0.00     0.070 C 
HETATM   24  C   UNL     1      44.153  -9.855  10.571  1.00  0.00    -0.049 A 
HETATM   25  C   UNL     1      43.716  -8.630  10.067  1.00  0.00    -0.049 A 
HETATM   26  C   UNL     1      43.638 -10.360  11.754  1.00  0.00     0.007 A 
HETATM   27  C   UNL     1      44.478  -8.250   8.837  1.00  0.00     0.070 C 
HETATM   28  C   UNL     1      42.758  -7.881  10.730  1.00  0.00     0.007 A 
HETATM   29  C   UNL     1      42.226  -8.386  11.917  1.00  0.00     0.001 A 
HETATM   30  C   UNL     1      42.663  -9.617  12.427  1.00  0.00     0.001 A 
ENDBRANCH   1  21
TORSDOF 6
ENDMDL
MODEL 4
REMARK VINA RESULT:      -7.8      1.908      2.645
REMARK  6 active torsions:
REMARK  status: ('A' for Active; 'I' for Inactive)
REMARK    1  A    between atoms: C_2  and  N_3 
REMARK       I    between atoms: N_3  and  C_4 
REMARK       I    between atoms: C_4  and  N_5 
REMARK    2  A    between atoms: N_5  and  C_6 
REMARK    3  A    between atoms: C_8  and  O_9 
REMARK    4  A    between atoms: O_9  and  C_10 
REMARK    5  A    between atoms: C_10  and  C_11 
REMARK    6  A    between atoms: C_11  and  N_12 
ROOT
HETATM    1  N   UNL     1      41.947 -14.040   3.616  1.00  0.00    -0.333 N 
HETATM    2  C   UNL     1      42.300 -13.165   2.630  1.00  0.00     0.321 C 
HETATM    3  N   UNL     1      43.012 -12.070   3.028  1.00  0.00    -0.309 N 
HETATM    4  O   UNL     1      42.091 -13.352   1.436  1.00  0.00    -0.247 OA
HETATM    5  H   UNL     1      42.527 -13.977   4.441  1.00  0.00     0.165 HD
HETATM    6  H   UNL     1      43.512 -11.641   2.257  1.00  0.00     0.170 HD
ENDROOT
BRANCH   3   7
HETATM    7  C   UNL     1      42.999 -11.362   4.242  1.00  0.00     0.039 A 
HETATM    8  C   UNL     1      43.906 -11.602   5.278  1.00  0.00     0.066 A 
HETATM    9  C   UNL     1      43.775 -10.918   6.487  1.00  0.00     0.070 A 
HETATM   10  C   UNL     1      42.785  -9.956   6.660  1.00  0.00     0.037 A 
HETATM   11  C   UNL     1      41.874  -9.718   5.634  1.00  0.00     0.005 A 
HETATM   12  C   UNL     1      41.969 -10.433   4.437  1.00  0.00     0.030 A 
BRANCH   9  13
HETATM   13  O   UNL     1      44.656 -11.126   7.511  1.00  0.00    -0.349 OA
BRANCH  13  14
HETATM   14  C   UNL     1      45.172  -9.897   8.051  1.00  0.00     0.197 C 
BRANCH  14  15
HETATM   15  C   UNL     1      45.449 -10.099   9.533  1.00  0.00     0.177 C 
BRANCH  15  16
HETATM   16  N   UNL     1      44.270  -9.886  10.344  1.00  0.00    -0.279 N 
HETATM   17  N   UNL     1      43.553  -8.755  10.194  1.00  0.00    -0.185 NA
HETATM   18  C   UNL     1      42.585  -8.870  11.107  1.00  0.00     0.140 A 
HETATM   19  C   UNL     1      42.675 -10.071  11.833  1.00  0.00     0.040 A 
HETATM   20  C   UNL     1      43.771 -10.713  11.309  1.00  0.00     0.113 A 
ENDBRANCH  15  16
ENDBRANCH  14  15
ENDBRANCH  13  14
ENDBRANCH   9  13
ENDBRANCH   3   7
BRANCH   1  21
HETATM   21  C   UNL     1      41.246 -15.323   3.380  1.00  0.00     0.039 C 
HETATM   22  C   UNL     1      39.862 -15.086   2.757  1.00  0.00     0.039 C 
HETATM   23  C   UNL     1      41.142 -16.150   4.700  1.00  0.00     0.070 C 
HETATM   24  C   UNL     1      42.340 -17.052   4.626  1.00  0.00    -0.049 A 
HETATM   25  C   UNL     1      42.879 -17.078   3.339  1.00  0.00    -0.049 A 
HETATM   26  C   UNL     1      42.862 -17.850   5.630  1.00  0.00     0.007 A 
HETATM   27  C   UNL     1      42.095 -16.207   2.408  1.00  0.00     0.070 C 
HETATM   28  C   UNL     1      43.948 -17.900   3.025  1.00  0.00     0.007 A 
HETATM   29  C   UNL     1      44.487 -18.702   4.032  1.00  0.00     0.001 A 
HETATM   30  C   UNL     1      43.948 -18.677   5.327  1.00  0.00     0.001 A 
ENDBRANCH   1  21
TORSDOF 6
ENDMDL
MODEL 5
REMARK VINA RESULT:      -7.7      2.425      9.496
REMARK  6 active torsions:
REMARK  status: ('A' for Active; 'I' for Inactive)
REMARK    1  A    between atoms: C_2  and  N_3 
REMARK       I    between atoms: N_3  and  C_4 
REMARK       I    between atoms: C_4  and  N_5 
REMARK    2  A    between atoms: N_5  and  C_6 
REMARK    3  A    between atoms: C_8  and  O_9 
REMARK    4  A    between atoms: O_9  and  C_10 
REMARK    5  A    between atoms: C_10  and  C_11 
REMARK    6  A    between atoms: C_11  and  N_12 
ROOT
HETATM    1  N   UNL     1      43.351 -11.282   7.830  1.00  0.00    -0.333 N 
HETATM    2  C   UNL     1      42.664 -10.962   6.695  1.00  0.00     0.321 C 
HETATM    3  N   UNL     1      41.734 -11.872   6.282  1.00  0.00    -0.309 N 
HETATM    4  O   UNL     1      42.779  -9.897   6.099  1.00  0.00    -0.247 OA
HETATM    5  H   UNL     1      42.875 -11.951   8.418  1.00  0.00     0.165 HD
HETATM    6  H   UNL     1      41.052 -11.460   5.655  1.00  0.00     0.170 HD
ENDROOT
BRANCH   3   7
HETATM    7  C   UNL     1      41.694 -13.269   6.425  1.00  0.00     0.039 A 
HETATM    8  C   UNL     1      42.841 -14.063   6.512  1.00  0.00     0.066 A 
HETATM    9  C   UNL     1      42.722 -15.452   6.565  1.00  0.00     0.070 A 
HETATM   10  C   UNL     1      41.471 -16.061   6.588  1.00  0.00     0.037 A 
HETATM   11  C   UNL     1      40.325 -15.276   6.494  1.00  0.00     0.005 A 
HETATM   12  C   UNL     1      40.437 -13.887   6.393  1.00  0.00     0.030 A 
BRANCH   9  13
HETATM   13  O   UNL     1      43.827 -16.249   6.662  1.00  0.00    -0.349 OA
BRANCH  13  14
HETATM   14  C   UNL     1      43.608 -17.562   6.117  1.00  0.00     0.197 C 
BRANCH  14  15
HETATM   15  C   UNL     1      44.527 -17.746   4.918  1.00  0.00     0.177 C 
BRANCH  15  16
HETATM   16  N   UNL     1      44.153 -18.889   4.113  1.00  0.00    -0.279 N 
HETATM   17  N   UNL     1      44.189 -20.123   4.651  1.00  0.00    -0.185 NA
HETATM   18  C   UNL     1      43.833 -20.920   3.640  1.00  0.00     0.140 A 
HETATM   19  C   UNL     1      43.562 -20.201   2.462  1.00  0.00     0.040 A 
HETATM   20  C   UNL     1      43.768 -18.885   2.802  1.00  0.00     0.113 A 
ENDBRANCH  15  16
ENDBRANCH  14  15
ENDBRANCH  13  14
ENDBRANCH   9  13
ENDBRANCH   3   7
BRANCH   1  21
HETATM   21  C   UNL     1      44.341 -10.395   8.483  1.00  0.00     0.039 C 
HETATM   22  C   UNL     1      45.701 -10.471   7.771  1.00  0.00     0.039 C 
HETATM   23  C   UNL     1      44.474 -10.733  10.002  1.00  0.00     0.070 C 
HETATM   24  C   UNL     1      43.521  -9.767  10.644  1.00  0.00    -0.049 A 
HETATM   25  C   UNL     1      43.153  -8.752   9.761  1.00  0.00    -0.049 A 
HETATM   26  C   UNL     1      43.078  -9.762  11.956  1.00  0.00     0.007 A 
HETATM   27  C   UNL     1      43.826  -8.919   8.436  1.00  0.00     0.070 C 
HETATM   28  C   UNL     1      42.336  -7.710  10.167  1.00  0.00     0.007 A 
HETATM   29  C   UNL     1      41.876  -7.701  11.484  1.00  0.00     0.001 A 
HETATM   30  C   UNL     1      42.244  -8.721  12.374  1.00  0.00     0.001 A 
ENDBRANCH   1  21
TORSDOF 6
ENDMDL
MODEL 6
REMARK VINA RESULT:      -7.6      5.235      9.518
REMARK  6 active torsions:
REMARK  status: ('A' for Active; 'I' for Inactive)
REMARK    1  A    between atoms: C_2  and  N_3 
REMARK       I    between atoms: N_3  and  C_4 
REMARK       I    between atoms: C_4  and  N_5 
REMARK    2  A    between atoms: N_5  and  C_6 
REMARK    3  A    between atoms: C_8  and  O_9 
REMARK    4  A    between atoms: O_9  and  C_10 
REMARK    5  A    between atoms: C_10  and  C_11 
REMARK    6  A    between atoms: C_11  and  N_12 
ROOT
HETATM    1  N   UNL     1      41.615 -12.298   2.919  1.00  0.00    -0.333 N 
HETATM    2  C   UNL     1      40.891 -11.413   3.664  1.00  0.00     0.321 C 
HETATM    3  N   UNL     1      39.640 -11.124   3.199  1.00  0.00    -0.309 N 
HETATM    4  O   UNL     1      41.262 -10.950   4.736  1.00  0.00    -0.247 OA
HETATM    5  H   UNL     1      41.049 -12.893   2.330  1.00  0.00     0.165 HD
HETATM    6  H   UNL     1      39.045 -10.738   3.924  1.00  0.00     0.170 HD
ENDROOT
BRANCH   3   7
HETATM    7  C   UNL     1      39.136 -11.090   1.887  1.00  0.00     0.039 A 
HETATM    8  C   UNL     1      39.919 -10.772   0.774  1.00  0.00     0.066 A 
HETATM    9  C   UNL     1      39.328 -10.674  -0.486  1.00  0.00     0.070 A 
HETATM   10  C   UNL     1      37.974 -10.944  -0.662  1.00  0.00     0.037 A 
HETATM   11  C   UNL     1      37.187 -11.254   0.445  1.00  0.00     0.005 A 
HETATM   12  C   UNL     1      37.763 -11.307   1.717  1.00  0.00     0.030 A 
BRANCH   9  13
HETATM   13  O   UNL     1      40.074 -10.377  -1.591  1.00  0.00    -0.349 OA
BRANCH  13  14
HETATM   14  C   UNL     1      41.215 -11.241  -1.734  1.00  0.00     0.197 C 
BRANCH  14  15
HETATM   15  C   UNL     1      40.988 -12.144  -2.937  1.00  0.00     0.177 C 
BRANCH  15  16
HETATM   16  N   UNL     1      40.166 -13.290  -2.613  1.00  0.00    -0.279 N 
HETATM   17  N   UNL     1      39.291 -13.761  -3.523  1.00  0.00    -0.185 NA
HETATM   18  C   UNL     1      38.687 -14.770  -2.890  1.00  0.00     0.140 A 
HETATM   19  C   UNL     1      39.177 -14.951  -1.584  1.00  0.00     0.040 A 
HETATM   20  C   UNL     1      40.142 -13.984  -1.437  1.00  0.00     0.113 A 
ENDBRANCH  15  16
ENDBRANCH  14  15
ENDBRANCH  13  14
ENDBRANCH   9  13
ENDBRANCH   3   7
BRANCH   1  21
HETATM   21  C   UNL     1      42.956 -12.802   3.295  1.00  0.00     0.039 C 
HETATM   22  C   UNL     1      43.869 -11.651   3.746  1.00  0.00     0.039 C 
HETATM   23  C   UNL     1      43.596 -13.609   2.122  1.00  0.00     0.070 C 
HETATM   24  C   UNL     1      43.221 -15.026   2.447  1.00  0.00    -0.049 A 
HETATM   25  C   UNL     1      42.777 -15.146   3.763  1.00  0.00    -0.049 A 
HETATM   26  C   UNL     1      43.345 -16.141   1.635  1.00  0.00     0.007 A 
HETATM   27  C   UNL     1      42.815 -13.827   4.468  1.00  0.00     0.070 C 
HETATM   28  C   UNL     1      42.446 -16.379   4.300  1.00  0.00     0.007 A 
HETATM   29  C   UNL     1      42.558 -17.508   3.487  1.00  0.00     0.001 A 
HETATM   30  C   UNL     1      43.005 -17.390   2.163  1.00  0.00     0.001 A 
ENDBRANCH   1  21
TORSDOF 6
ENDMDL
MODEL 7
REMARK VINA RESULT:      -7.6      2.379      3.339
REMARK  6 active torsions:
REMARK  status: ('A' for Active; 'I' for Inactive)
REMARK    1  A    between atoms: C_2  and  N_3 
REMARK       I    between atoms: N_3  and  C_4 
REMARK       I    between atoms: C_4  and  N_5 
REMARK    2  A    between atoms: N_5  and  C_6 
REMARK    3  A    between atoms: C_8  and  O_9 
REMARK    4  A    between atoms: O_9  and  C_10 
REMARK    5  A    between atoms: C_10  and  C_11 
REMARK    6  A    between atoms: C_11  and  N_12 
ROOT
HETATM    1  N   UNL     1      42.604 -13.570   5.869  1.00  0.00    -0.333 N 
HETATM    2  C   UNL     1      42.922 -12.686   4.879  1.00  0.00     0.321 C 
HETATM    3  N   UNL     1      43.936 -11.815   5.159  1.00  0.00    -0.309 N 
HETATM    4  O   UNL     1      42.418 -12.693   3.762  1.00  0.00    -0.247 OA
HETATM    5  H   UNL     1      43.349 -13.722   6.534  1.00  0.00     0.165 HD
HETATM    6  H   UNL     1      44.338 -11.418   4.317  1.00  0.00     0.170 HD
ENDROOT
BRANCH   3   7
HETATM    7  C   UNL     1      44.353 -11.258   6.380  1.00  0.00     0.039 A 
HETATM    8  C   UNL     1      43.471 -10.686   7.301  1.00  0.00     0.066 A 
HETATM    9  C   UNL     1      43.970 -10.074   8.451  1.00  0.00     0.070 A 
HETATM   10  C   UNL     1      45.334 -10.073   8.725  1.00  0.00     0.037 A 
HETATM   11  C   UNL     1      46.218 -10.635   7.808  1.00  0.00     0.005 A 
HETATM   12  C   UNL     1      45.730 -11.207   6.630  1.00  0.00     0.030 A 
BRANCH   9  13
HETATM   13  O   UNL     1      43.128  -9.518   9.373  1.00  0.00    -0.349 OA
BRANCH  13  14
HETATM   14  C   UNL     1      42.551  -8.282   8.917  1.00  0.00     0.197 C 
BRANCH  14  15
HETATM   15  C   UNL     1      41.047  -8.340   9.140  1.00  0.00     0.177 C 
BRANCH  15  16
HETATM   16  N   UNL     1      40.365  -9.053   8.081  1.00  0.00    -0.279 N 
HETATM   17  N   UNL     1      40.571  -8.698   6.798  1.00  0.00    -0.185 NA
HETATM   18  C   UNL     1      39.770  -9.517   6.111  1.00  0.00     0.140 A 
HETATM   19  C   UNL     1      39.061 -10.398   6.946  1.00  0.00     0.040 A 
HETATM   20  C   UNL     1      39.475 -10.080   8.218  1.00  0.00     0.113 A 
ENDBRANCH  15  16
ENDBRANCH  14  15
ENDBRANCH  13  14
ENDBRANCH   9  13
ENDBRANCH   3   7
BRANCH   1  21
HETATM   21  C   UNL     1      41.593 -14.644   5.733  1.00  0.00     0.039 C 
HETATM   22  C   UNL     1      40.175 -14.096   5.959  1.00  0.00     0.039 C 
HETATM   23  C   UNL     1      41.906 -15.828   6.703  1.00  0.00     0.070 C 
HETATM   24  C   UNL     1      42.692 -16.770   5.838  1.00  0.00    -0.049 A 
HETATM   25  C   UNL     1      42.568 -16.445   4.487  1.00  0.00    -0.049 A 
HETATM   26  C   UNL     1      43.408 -17.887   6.236  1.00  0.00     0.007 A 
HETATM   27  C   UNL     1      41.677 -15.258   4.297  1.00  0.00     0.070 C 
HETATM   28  C   UNL     1      43.153 -17.226   3.504  1.00  0.00     0.007 A 
HETATM   29  C   UNL     1      43.884 -18.348   3.895  1.00  0.00     0.001 A 
HETATM   30  C   UNL     1      44.011 -18.677   5.253  1.00  0.00     0.001 A 
ENDBRANCH   1  21
TORSDOF 6
ENDMDL
MODEL 8
REMARK VINA RESULT:      -7.6      2.713      9.562
REMARK  6 active torsions:
REMARK  status: ('A' for Active; 'I' for Inactive)
REMARK    1  A    between atoms: C_2  and  N_3 
REMARK       I    between atoms: N_3  and  C_4 
REMARK       I    between atoms: C_4  and  N_5 
REMARK    2  A    between atoms: N_5  and  C_6 
REMARK    3  A    between atoms: C_8  and  O_9 
REMARK    4  A    between atoms: O_9  and  C_10 
REMARK    5  A    between atoms: C_10  and  C_11 
REMARK    6  A    between atoms: C_11  and  N_12 
ROOT
HETATM    1  N   UNL     1      43.508 -10.779   9.013  1.00  0.00    -0.333 N 
HETATM    2  C   UNL     1      44.705 -11.103   8.443  1.00  0.00     0.321 C 
HETATM    3  N   UNL     1      44.642 -11.687   7.211  1.00  0.00    -0.309 N 
HETATM    4  O   UNL     1      45.796 -10.828   8.930  1.00  0.00    -0.247 OA
HETATM    5  H   UNL     1      42.755 -10.678   8.346  1.00  0.00     0.165 HD
HETATM    6  H   UNL     1      45.520 -11.612   6.709  1.00  0.00     0.170 HD
ENDROOT
BRANCH   3   7
HETATM    7  C   UNL     1      43.659 -12.513   6.638  1.00  0.00     0.039 A 
HETATM    8  C   UNL     1      43.639 -13.902   6.798  1.00  0.00     0.066 A 
HETATM    9  C   UNL     1      42.681 -14.663   6.127  1.00  0.00     0.070 A 
HETATM   10  C   UNL     1      41.708 -14.055   5.341  1.00  0.00     0.037 A 
HETATM   11  C   UNL     1      41.728 -12.673   5.172  1.00  0.00     0.005 A 
HETATM   12  C   UNL     1      42.713 -11.907   5.802  1.00  0.00     0.030 A 
BRANCH   9  13
HETATM   13  O   UNL     1      42.632 -16.021   6.276  1.00  0.00    -0.349 OA
BRANCH  13  14
HETATM   14  C   UNL     1      43.900 -16.649   6.017  1.00  0.00     0.197 C 
BRANCH  14  15
HETATM   15  C   UNL     1      43.881 -17.207   4.601  1.00  0.00     0.177 C 
BRANCH  15  16
HETATM   16  N   UNL     1      43.893 -18.654   4.583  1.00  0.00    -0.279 N 
HETATM   17  N   UNL     1      43.887 -19.335   5.746  1.00  0.00    -0.185 NA
HETATM   18  C   UNL     1      43.944 -20.613   5.364  1.00  0.00     0.140 A 
HETATM   19  C   UNL     1      43.976 -20.753   3.965  1.00  0.00     0.040 A 
HETATM   20  C   UNL     1      43.931 -19.466   3.486  1.00  0.00     0.113 A 
ENDBRANCH  15  16
ENDBRANCH  14  15
ENDBRANCH  13  14
ENDBRANCH   9  13
ENDBRANCH   3   7
BRANCH   1  21
HETATM   21  C   UNL     1      43.365 -10.068  10.304  1.00  0.00     0.039 C 
HETATM   22  C   UNL     1      43.922 -10.912  11.460  1.00  0.00     0.039 C 
HETATM   23  C   UNL     1      41.876  -9.668  10.557  1.00  0.00     0.070 C 
HETATM   24  C   UNL     1      41.814  -8.262  10.034  1.00  0.00    -0.049 A 
HETATM   25  C   UNL     1      43.090  -7.730   9.851  1.00  0.00    -0.049 A 
HETATM   26  C   UNL     1      40.685  -7.491   9.811  1.00  0.00     0.007 A 
HETATM   27  C   UNL     1      44.147  -8.715  10.241  1.00  0.00     0.070 C 
HETATM   28  C   UNL     1      43.269  -6.418   9.443  1.00  0.00     0.007 A 
HETATM   29  C   UNL     1      42.138  -5.636   9.207  1.00  0.00     0.001 A 
HETATM   30  C   UNL     1      40.854  -6.169   9.390  1.00  0.00     0.001 A 
ENDBRANCH   1  21
TORSDOF 6
ENDMDL
MODEL 9
REMARK VINA RESULT:      -7.5     18.259     19.796
REMARK  6 active torsions:
REMARK  status: ('A' for Active; 'I' for Inactive)
REMARK    1  A    between atoms: C_2  and  N_3 
REMARK       I    between atoms: N_3  and  C_4 
REMARK       I    between atoms: C_4  and  N_5 
REMARK    2  A    between atoms: N_5  and  C_6 
REMARK    3  A    between atoms: C_8  and  O_9 
REMARK    4  A    between atoms: O_9  and  C_10 
REMARK    5  A    between atoms: C_10  and  C_11 
REMARK    6  A    between atoms: C_11  and  N_12 
ROOT
HETATM    1  N   UNL     1      46.117 -29.894  -1.316  1.00  0.00    -0.333 N 
HETATM    2  C   UNL     1      46.609 -28.673  -0.956  1.00  0.00     0.321 C 
HETATM    3  N   UNL     1      47.969 -28.553  -0.953  1.00  0.00    -0.309 N 
HETATM    4  O   UNL     1      45.912 -27.691  -0.727  1.00  0.00    -0.247 OA
HETATM    5  H   UNL     1      46.762 -30.447  -1.864  1.00  0.00     0.165 HD
HETATM    6  H   UNL     1      48.265 -27.585  -0.998  1.00  0.00     0.170 HD
ENDROOT
BRANCH   3   7
HETATM    7  C   UNL     1      48.971 -29.507  -0.705  1.00  0.00     0.039 A 
HETATM    8  C   UNL     1      49.301 -29.956   0.577  1.00  0.00     0.066 A 
HETATM    9  C   UNL     1      50.366 -30.839   0.750  1.00  0.00     0.070 A 
HETATM   10  C   UNL     1      51.075 -31.326  -0.343  1.00  0.00     0.037 A 
HETATM   11  C   UNL     1      50.757 -30.877  -1.622  1.00  0.00     0.005 A 
HETATM   12  C   UNL     1      49.722 -29.955  -1.800  1.00  0.00     0.030 A 
BRANCH   9  13
HETATM   13  O   UNL     1      50.701 -31.302   1.992  1.00  0.00    -0.349 OA
BRANCH  13  14
HETATM   14  C   UNL     1      51.073 -30.243   2.892  1.00  0.00     0.197 C 
BRANCH  14  15
HETATM   15  C   UNL     1      50.639 -30.630   4.297  1.00  0.00     0.177 C 
BRANCH  15  16
HETATM   16  N   UNL     1      49.200 -30.731   4.418  1.00  0.00    -0.279 N 
HETATM   17  N   UNL     1      48.644 -31.891   4.817  1.00  0.00    -0.185 NA
HETATM   18  C   UNL     1      47.333 -31.644   4.776  1.00  0.00     0.140 A 
HETATM   19  C   UNL     1      47.048 -30.330   4.361  1.00  0.00     0.040 A 
HETATM   20  C   UNL     1      48.280 -29.759   4.146  1.00  0.00     0.113 A 
ENDBRANCH  15  16
ENDBRANCH  14  15
ENDBRANCH  13  14
ENDBRANCH   9  13
ENDBRANCH   3   7
BRANCH   1  21
HETATM   21  C   UNL     1      44.676 -30.203  -1.460  1.00  0.00     0.039 C 
HETATM   22  C   UNL     1      43.915 -29.886  -0.163  1.00  0.00     0.039 C 
HETATM   23  C   UNL     1      44.465 -31.688  -1.895  1.00  0.00     0.070 C 
HETATM   24  C   UNL     1      44.361 -31.587  -3.389  1.00  0.00    -0.049 A 
HETATM   25  C   UNL     1      44.148 -30.270  -3.797  1.00  0.00    -0.049 A 
HETATM   26  C   UNL     1      44.381 -32.621  -4.310  1.00  0.00     0.007 A 
HETATM   27  C   UNL     1      44.075 -29.346  -2.622  1.00  0.00     0.070 C 
HETATM   28  C   UNL     1      43.949 -29.955  -5.131  1.00  0.00     0.007 A 
HETATM   29  C   UNL     1      43.977 -30.989  -6.068  1.00  0.00     0.001 A 
HETATM   30  C   UNL     1      44.191 -32.313  -5.661  1.00  0.00     0.001 A 
ENDBRANCH   1  21
TORSDOF 6
ENDMDL
MODEL 10
REMARK VINA RESULT:      -7.5      5.573      8.714
REMARK  6 active torsions:
REMARK  status: ('A' for Active; 'I' for Inactive)
REMARK    1  A    between atoms: C_2  and  N_3 
REMARK       I    between atoms: N_3  and  C_4 
REMARK       I    between atoms: C_4  and  N_5 
REMARK    2  A    between atoms: N_5  and  C_6 
REMARK    3  A    between atoms: C_8  and  O_9 
REMARK    4  A    between atoms: O_9  and  C_10 
REMARK    5  A    between atoms: C_10  and  C_11 
REMARK    6  A    between atoms: C_11  and  N_12 
ROOT
HETATM    1  N   UNL     1      41.485 -14.781   0.920  1.00  0.00    -0.333 N 
HETATM    2  C   UNL     1      40.209 -15.253   0.812  1.00  0.00     0.321 C 
HETATM    3  N   UNL     1      39.523 -14.874  -0.305  1.00  0.00    -0.309 N 
HETATM    4  O   UNL     1      39.699 -16.043   1.599  1.00  0.00    -0.247 OA
HETATM    5  H   UNL     1      41.894 -14.509   0.036  1.00  0.00     0.165 HD
HETATM    6  H   UNL     1      38.737 -15.486  -0.495  1.00  0.00     0.170 HD
ENDROOT
BRANCH   3   7
HETATM    7  C   UNL     1      39.611 -13.705  -1.081  1.00  0.00     0.039 A 
HETATM    8  C   UNL     1      38.973 -12.509  -0.739  1.00  0.00     0.066 A 
HETATM    9  C   UNL     1      39.036 -11.417  -1.604  1.00  0.00     0.070 A 
HETATM   10  C   UNL     1      39.775 -11.480  -2.782  1.00  0.00     0.037 A 
HETATM   11  C   UNL     1      40.407 -12.671  -3.131  1.00  0.00     0.005 A 
HETATM   12  C   UNL     1      40.308 -13.785  -2.293  1.00  0.00     0.030 A 
BRANCH   9  13
HETATM   13  O   UNL     1      38.431 -10.233  -1.288  1.00  0.00    -0.349 OA
BRANCH  13  14
HETATM   14  C   UNL     1      37.210 -10.420  -0.549  1.00  0.00     0.197 C 
BRANCH  14  15
HETATM   15  C   UNL     1      37.185  -9.424   0.600  1.00  0.00     0.177 C 
BRANCH  15  16
HETATM   16  N   UNL     1      38.120  -9.774   1.648  1.00  0.00    -0.279 N 
HETATM   17  N   UNL     1      37.997 -10.956   2.283  1.00  0.00    -0.185 NA
HETATM   18  C   UNL     1      38.974 -10.929   3.193  1.00  0.00     0.140 A 
HETATM   19  C   UNL     1      39.725  -9.742   3.137  1.00  0.00     0.040 A 
HETATM   20  C   UNL     1      39.154  -9.017   2.119  1.00  0.00     0.113 A 
ENDBRANCH  15  16
ENDBRANCH  14  15
ENDBRANCH  13  14
ENDBRANCH   9  13
ENDBRANCH   3   7
BRANCH   1  21
HETATM   21  C   UNL     1      42.418 -15.142   2.011  1.00  0.00     0.039 C 
HETATM   22  C   UNL     1      43.015 -16.539   1.784  1.00  0.00     0.039 C 
HETATM   23  C   UNL     1      41.713 -15.044   3.401  1.00  0.00     0.070 C 
HETATM   24  C   UNL     1      42.069 -13.660   3.861  1.00  0.00    -0.049 A 
HETATM   25  C   UNL     1      43.114 -13.126   3.106  1.00  0.00    -0.049 A 
HETATM   26  C   UNL     1      41.538 -12.961   4.932  1.00  0.00     0.007 A 
HETATM   27  C   UNL     1      43.580 -14.097   2.068  1.00  0.00     0.070 C 
HETATM   28  C   UNL     1      43.653 -11.886   3.404  1.00  0.00     0.007 A 
HETATM   29  C   UNL     1      43.119 -11.170   4.476  1.00  0.00     0.001 A 
HETATM   30  C   UNL     1      42.068 -11.704   5.236  1.00  0.00     0.001 A 
ENDBRANCH   1  21
TORSDOF 6
ENDMDL
