MODEL 1
REMARK VINA RESULT:      -8.7      0.000      0.000
REMARK  9 active torsions:
REMARK  status: ('A' for Active; 'I' for Inactive)
REMARK    1  A    between atoms: O_2  and  C_3 
REMARK    2  A    between atoms: C_4  and  C_5 
REMARK    3  A    between atoms: C_9  and  C_10 
REMARK       I    between atoms: C_10  and  N_11 
REMARK    4  A    between atoms: N_11  and  C_12 
REMARK    5  A    between atoms: C_12  and  C_13 
REMARK    6  A    between atoms: C_13  and  C_14 
REMARK    7  A    between atoms: C_14  and  C_15 
REMARK    8  A    between atoms: C_15  and  O_16 
REMARK    9  A    between atoms: O_16  and  C_17 
ROOT
HETATM    1  C   UNL     1      45.144  -9.205   8.541  1.00  0.00     0.270 C 
HETATM    2  N   UNL     1      44.869 -10.500   8.186  1.00  0.00    -0.345 N 
HETATM    3  O   UNL     1      46.016  -8.540   7.992  1.00  0.00    -0.266 OA
HETATM    4  H   UNL     1      44.093 -10.985   8.609  1.00  0.00     0.163 HD
ENDROOT
BRANCH   1   5
HETATM    5  C   UNL     1      44.341  -8.686   9.615  1.00  0.00     0.120 A 
HETATM    6  N   UNL     1      43.593  -7.550   9.473  1.00  0.00    -0.272 N 
HETATM    7  N   UNL     1      42.928  -7.186  10.579  1.00  0.00    -0.174 NA
HETATM    8  H   UNL     1      43.513  -6.975   8.640  1.00  0.00     0.189 HD
HETATM    9  C   UNL     1      43.234  -8.125  11.485  1.00  0.00     0.092 A 
HETATM   10  C   UNL     1      44.117  -9.087  10.917  1.00  0.00     0.071 A 
BRANCH   9  11
HETATM   11  C   UNL     1      42.737  -8.092  12.862  1.00  0.00     0.028 A 
HETATM   12  C   UNL     1      41.769  -8.979  13.364  1.00  0.00     0.080 A 
HETATM   13  C   UNL     1      41.298  -8.843  14.678  1.00  0.00     0.037 A 
HETATM   14  C   UNL     1      41.814  -7.859  15.518  1.00  0.00     0.003 A 
HETATM   15  C   UNL     1      42.793  -6.991  15.045  1.00  0.00     0.001 A 
HETATM   16  C   UNL     1      43.246  -7.103  13.727  1.00  0.00     0.017 A 
BRANCH  12  17
HETATM   17  O   UNL     1      41.182  -9.989  12.648  1.00  0.00    -0.355 OA
HETATM   18  C   UNL     1      39.898 -10.349  13.154  1.00  0.00     0.210 C 
ENDBRANCH  12  17
ENDBRANCH   9  11
ENDBRANCH   1   5
BRANCH   2  19
HETATM   19  C   UNL     1      45.587 -11.163   7.129  1.00  0.00     0.217 C 
BRANCH  19  20
HETATM   20  C   UNL     1      44.704 -12.273   6.581  1.00  0.00    -0.085 C 
BRANCH  20  21
HETATM   21  C   UNL     1      43.948 -13.224   6.109  1.00  0.00    -0.078 C 
BRANCH  21  22
HETATM   22  C   UNL     1      43.068 -14.334   5.559  1.00  0.00     0.269 C 
BRANCH  22  23
HETATM   23  O   UNL     1      43.637 -15.597   5.887  1.00  0.00    -0.339 OA
BRANCH  23  24
HETATM   24  C   UNL     1      43.565 -16.566   4.920  1.00  0.00     0.072 A 
HETATM   25  C   UNL     1      43.969 -17.897   5.064  1.00  0.00     0.076 A 
HETATM   26  C   UNL     1      43.819 -18.736   3.977  1.00  0.00     0.107 A 
HETATM   27  C   UNL     1      43.295 -18.302   2.784  1.00  0.00     0.105 A 
HETATM   28  O   UNL     1      44.159 -20.053   3.945  1.00  0.00    -0.323 OA
HETATM   29  O   UNL     1      43.237 -19.288   1.851  1.00  0.00    -0.323 OA
HETATM   30  C   UNL     1      42.887 -16.998   2.608  1.00  0.00     0.042 A 
HETATM   31  C   UNL     1      43.787 -20.397   2.593  1.00  0.00     0.352 A 
HETATM   32  C   UNL     1      43.027 -16.126   3.693  1.00  0.00     0.040 A 
ENDBRANCH  23  24
ENDBRANCH  22  23
ENDBRANCH  21  22
ENDBRANCH  20  21
ENDBRANCH  19  20
ENDBRANCH   2  19
TORSDOF 9
ENDMDL
MODEL 2
REMARK VINA RESULT:      -8.4      3.172     11.735
REMARK  9 active torsions:
REMARK  status: ('A' for Active; 'I' for Inactive)
REMARK    1  A    between atoms: O_2  and  C_3 
REMARK    2  A    between atoms: C_4  and  C_5 
REMARK    3  A    between atoms: C_9  and  C_10 
REMARK       I    between atoms: C_10  and  N_11 
REMARK    4  A    between atoms: N_11  and  C_12 
REMARK    5  A    between atoms: C_12  and  C_13 
REMARK    6  A    between atoms: C_13  and  C_14 
REMARK    7  A    between atoms: C_14  and  C_15 
REMARK    8  A    between atoms: C_15  and  O_16 
REMARK    9  A    between atoms: O_16  and  C_17 
ROOT
HETATM    1  C   UNL     1      42.595 -13.223   3.302  1.00  0.00     0.270 C 
HETATM    2  N   UNL     1      43.350 -12.713   4.326  1.00  0.00    -0.345 N 
HETATM    3  O   UNL     1      41.726 -12.572   2.733  1.00  0.00    -0.266 OA
HETATM    4  H   UNL     1      44.106 -13.255   4.713  1.00  0.00     0.163 HD
ENDROOT
BRANCH   1   5
HETATM    5  C   UNL     1      42.890 -14.586   2.951  1.00  0.00     0.120 A 
HETATM    6  N   UNL     1      43.080 -14.973   1.653  1.00  0.00    -0.272 N 
HETATM    7  N   UNL     1      43.314 -16.283   1.496  1.00  0.00    -0.174 NA
HETATM    8  H   UNL     1      43.046 -14.378   0.830  1.00  0.00     0.189 HD
HETATM    9  C   UNL     1      43.294 -16.784   2.740  1.00  0.00     0.092 A 
HETATM   10  C   UNL     1      43.034 -15.749   3.683  1.00  0.00     0.071 A 
BRANCH   9  11
HETATM   11  C   UNL     1      43.477 -18.208   3.025  1.00  0.00     0.028 A 
HETATM   12  C   UNL     1      43.947 -18.704   4.254  1.00  0.00     0.080 A 
HETATM   13  C   UNL     1      44.155 -20.080   4.428  1.00  0.00     0.037 A 
HETATM   14  C   UNL     1      43.857 -20.978   3.406  1.00  0.00     0.003 A 
HETATM   15  C   UNL     1      43.365 -20.505   2.194  1.00  0.00     0.001 A 
HETATM   16  C   UNL     1      43.182 -19.132   2.004  1.00  0.00     0.017 A 
BRANCH  12  17
HETATM   17  O   UNL     1      44.276 -17.934   5.339  1.00  0.00    -0.355 OA
HETATM   18  C   UNL     1      43.421 -18.165   6.456  1.00  0.00     0.210 C 
ENDBRANCH  12  17
ENDBRANCH   9  11
ENDBRANCH   1   5
BRANCH   2  19
HETATM   19  C   UNL     1      43.176 -11.363   4.794  1.00  0.00     0.217 C 
BRANCH  19  20
HETATM   20  C   UNL     1      44.225 -11.091   5.860  1.00  0.00    -0.085 C 
BRANCH  20  21
HETATM   21  C   UNL     1      45.125 -10.857   6.773  1.00  0.00    -0.078 C 
BRANCH  21  22
HETATM   22  C   UNL     1      46.175 -10.582   7.837  1.00  0.00     0.269 C 
BRANCH  22  23
HETATM   23  O   UNL     1      46.157  -9.198   8.173  1.00  0.00    -0.339 OA
BRANCH  23  24
HETATM   24  C   UNL     1      45.154  -8.790   9.012  1.00  0.00     0.072 A 
HETATM   25  C   UNL     1      44.260  -7.742   8.770  1.00  0.00     0.076 A 
HETATM   26  C   UNL     1      43.307  -7.472   9.733  1.00  0.00     0.107 A 
HETATM   27  C   UNL     1      43.221  -8.193  10.898  1.00  0.00     0.105 A 
HETATM   28  O   UNL     1      42.366  -6.493   9.657  1.00  0.00    -0.323 OA
HETATM   29  O   UNL     1      42.215  -7.761  11.704  1.00  0.00    -0.323 OA
HETATM   30  C   UNL     1      44.084  -9.231  11.169  1.00  0.00     0.042 A 
HETATM   31  C   UNL     1      41.677  -6.683  10.912  1.00  0.00     0.352 A 
HETATM   32  C   UNL     1      45.060  -9.527  10.211  1.00  0.00     0.040 A 
ENDBRANCH  23  24
ENDBRANCH  22  23
ENDBRANCH  21  22
ENDBRANCH  20  21
ENDBRANCH  19  20
ENDBRANCH   2  19
TORSDOF 9
ENDMDL
MODEL 3
REMARK VINA RESULT:      -8.4      1.593      1.783
REMARK  9 active torsions:
REMARK  status: ('A' for Active; 'I' for Inactive)
REMARK    1  A    between atoms: O_2  and  C_3 
REMARK    2  A    between atoms: C_4  and  C_5 
REMARK    3  A    between atoms: C_9  and  C_10 
REMARK       I    between atoms: C_10  and  N_11 
REMARK    4  A    between atoms: N_11  and  C_12 
REMARK    5  A    between atoms: C_12  and  C_13 
REMARK    6  A    between atoms: C_13  and  C_14 
REMARK    7  A    between atoms: C_14  and  C_15 
REMARK    8  A    between atoms: C_15  and  O_16 
REMARK    9  A    between atoms: O_16  and  C_17 
ROOT
HETATM    1  C   UNL     1      44.574 -10.759   8.243  1.00  0.00     0.270 C 
HETATM    2  N   UNL     1      43.918 -10.942   7.054  1.00  0.00    -0.345 N 
HETATM    3  O   UNL     1      45.753 -11.055   8.401  1.00  0.00    -0.266 OA
HETATM    4  H   UNL     1      42.971 -10.613   6.945  1.00  0.00     0.163 HD
ENDROOT
BRANCH   1   5
HETATM    5  C   UNL     1      43.772 -10.205   9.300  1.00  0.00     0.120 A 
HETATM    6  N   UNL     1      42.470  -9.835   9.101  1.00  0.00    -0.272 N 
HETATM    7  N   UNL     1      41.876  -9.307  10.180  1.00  0.00    -0.174 NA
HETATM    8  H   UNL     1      41.942  -9.910   8.237  1.00  0.00     0.189 HD
HETATM    9  C   UNL     1      42.813  -9.342  11.138  1.00  0.00     0.092 A 
HETATM   10  C   UNL     1      44.018  -9.902  10.625  1.00  0.00     0.071 A 
BRANCH   9  11
HETATM   11  C   UNL     1      42.589  -8.825  12.489  1.00  0.00     0.028 A 
HETATM   12  C   UNL     1      41.655  -9.368  13.388  1.00  0.00     0.080 A 
HETATM   13  C   UNL     1      41.454  -8.776  14.643  1.00  0.00     0.037 A 
HETATM   14  C   UNL     1      42.206  -7.672  15.035  1.00  0.00     0.003 A 
HETATM   15  C   UNL     1      43.154  -7.139  14.168  1.00  0.00     0.001 A 
HETATM   16  C   UNL     1      43.340  -7.707  12.904  1.00  0.00     0.017 A 
BRANCH  12  17
HETATM   17  O   UNL     1      40.854 -10.450  13.131  1.00  0.00    -0.355 OA
HETATM   18  C   UNL     1      39.520 -10.079  12.793  1.00  0.00     0.210 C 
ENDBRANCH  12  17
ENDBRANCH   9  11
ENDBRANCH   1   5
BRANCH   2  19
HETATM   19  C   UNL     1      44.582 -11.488   5.900  1.00  0.00     0.217 C 
BRANCH  19  20
HETATM   20  C   UNL     1      43.529 -12.100   4.991  1.00  0.00    -0.085 C 
BRANCH  20  21
HETATM   21  C   UNL     1      42.626 -12.625   4.211  1.00  0.00    -0.078 C 
BRANCH  21  22
HETATM   22  C   UNL     1      41.573 -13.235   3.301  1.00  0.00     0.269 C 
BRANCH  22  23
HETATM   23  O   UNL     1      41.092 -14.445   3.877  1.00  0.00    -0.339 OA
BRANCH  23  24
HETATM   24  C   UNL     1      41.896 -15.546   3.733  1.00  0.00     0.072 A 
HETATM   25  C   UNL     1      42.400 -16.332   4.775  1.00  0.00     0.076 A 
HETATM   26  C   UNL     1      43.197 -17.410   4.441  1.00  0.00     0.107 A 
HETATM   27  C   UNL     1      43.498 -17.720   3.137  1.00  0.00     0.105 A 
HETATM   28  O   UNL     1      43.766 -18.273   5.325  1.00  0.00    -0.323 OA
HETATM   29  O   UNL     1      44.294 -18.816   3.035  1.00  0.00    -0.323 OA
HETATM   30  C   UNL     1      43.019 -16.968   2.088  1.00  0.00     0.042 A 
HETATM   31  C   UNL     1      44.461 -19.163   4.425  1.00  0.00     0.352 A 
HETATM   32  C   UNL     1      42.209 -15.869   2.397  1.00  0.00     0.040 A 
ENDBRANCH  23  24
ENDBRANCH  22  23
ENDBRANCH  21  22
ENDBRANCH  20  21
ENDBRANCH  19  20
ENDBRANCH   2  19
TORSDOF 9
ENDMDL
MODEL 4
REMARK VINA RESULT:      -8.3      1.968      2.571
REMARK  9 active torsions:
REMARK  status: ('A' for Active; 'I' for Inactive)
REMARK    1  A    between atoms: O_2  and  C_3 
REMARK    2  A    between atoms: C_4  and  C_5 
REMARK    3  A    between atoms: C_9  and  C_10 
REMARK       I    between atoms: C_10  and  N_11 
REMARK    4  A    between atoms: N_11  and  C_12 
REMARK    5  A    between atoms: C_12  and  C_13 
REMARK    6  A    between atoms: C_13  and  C_14 
REMARK    7  A    between atoms: C_14  and  C_15 
REMARK    8  A    between atoms: C_15  and  O_16 
REMARK    9  A    between atoms: O_16  and  C_17 
ROOT
HETATM    1  C   UNL     1      44.478 -10.805   8.663  1.00  0.00     0.270 C 
HETATM    2  N   UNL     1      43.703 -11.559   7.820  1.00  0.00    -0.345 N 
HETATM    3  O   UNL     1      45.703 -10.843   8.646  1.00  0.00    -0.266 OA
HETATM    4  H   UNL     1      42.702 -11.440   7.814  1.00  0.00     0.163 HD
ENDROOT
BRANCH   1   5
HETATM    5  C   UNL     1      43.746  -9.973   9.578  1.00  0.00     0.120 A 
HETATM    6  N   UNL     1      42.953  -8.945   9.145  1.00  0.00    -0.272 N 
HETATM    7  N   UNL     1      42.367  -8.249  10.129  1.00  0.00    -0.174 NA
HETATM    8  H   UNL     1      42.791  -8.667   8.182  1.00  0.00     0.189 HD
HETATM    9  C   UNL     1      42.772  -8.846  11.258  1.00  0.00     0.092 A 
HETATM   10  C   UNL     1      43.637  -9.936  10.955  1.00  0.00     0.071 A 
BRANCH   9  11
HETATM   11  C   UNL     1      42.383  -8.376  12.589  1.00  0.00     0.028 A 
HETATM   12  C   UNL     1      41.111  -8.582  13.150  1.00  0.00     0.080 A 
HETATM   13  C   UNL     1      40.796  -8.046  14.406  1.00  0.00     0.037 A 
HETATM   14  C   UNL     1      41.750  -7.341  15.136  1.00  0.00     0.003 A 
HETATM   15  C   UNL     1      43.022  -7.152  14.608  1.00  0.00     0.001 A 
HETATM   16  C   UNL     1      43.335  -7.660  13.344  1.00  0.00     0.017 A 
BRANCH  12  17
HETATM   17  O   UNL     1      40.084  -9.257  12.542  1.00  0.00    -0.355 OA
HETATM   18  C   UNL     1      39.821 -10.520  13.148  1.00  0.00     0.210 C 
ENDBRANCH  12  17
ENDBRANCH   9  11
ENDBRANCH   1   5
BRANCH   2  19
HETATM   19  C   UNL     1      44.286 -12.443   6.845  1.00  0.00     0.217 C 
BRANCH  19  20
HETATM   20  C   UNL     1      43.541 -13.767   6.900  1.00  0.00    -0.085 C 
BRANCH  20  21
HETATM   21  C   UNL     1      42.901 -14.901   6.948  1.00  0.00    -0.078 C 
BRANCH  21  22
HETATM   22  C   UNL     1      42.153 -16.223   7.002  1.00  0.00     0.269 C 
BRANCH  22  23
HETATM   23  O   UNL     1      42.564 -17.045   5.914  1.00  0.00    -0.339 OA
BRANCH  23  24
HETATM   24  C   UNL     1      42.225 -16.607   4.661  1.00  0.00     0.072 A 
HETATM   25  C   UNL     1      40.945 -16.223   4.247  1.00  0.00     0.076 A 
HETATM   26  C   UNL     1      40.789 -15.805   2.939  1.00  0.00     0.107 A 
HETATM   27  C   UNL     1      41.840 -15.761   2.056  1.00  0.00     0.105 A 
HETATM   28  O   UNL     1      39.620 -15.400   2.375  1.00  0.00    -0.323 OA
HETATM   29  O   UNL     1      41.466 -15.321   0.826  1.00  0.00    -0.323 OA
HETATM   30  C   UNL     1      43.112 -16.131   2.430  1.00  0.00     0.042 A 
HETATM   31  C   UNL     1      40.057 -15.094   1.034  1.00  0.00     0.352 A 
HETATM   32  C   UNL     1      43.299 -16.559   3.749  1.00  0.00     0.040 A 
ENDBRANCH  23  24
ENDBRANCH  22  23
ENDBRANCH  21  22
ENDBRANCH  20  21
ENDBRANCH  19  20
ENDBRANCH   2  19
TORSDOF 9
ENDMDL
MODEL 5
REMARK VINA RESULT:      -8.1      1.643      2.095
REMARK  9 active torsions:
REMARK  status: ('A' for Active; 'I' for Inactive)
REMARK    1  A    between atoms: O_2  and  C_3 
REMARK    2  A    between atoms: C_4  and  C_5 
REMARK    3  A    between atoms: C_9  and  C_10 
REMARK       I    between atoms: C_10  and  N_11 
REMARK    4  A    between atoms: N_11  and  C_12 
REMARK    5  A    between atoms: C_12  and  C_13 
REMARK    6  A    between atoms: C_13  and  C_14 
REMARK    7  A    between atoms: C_14  and  C_15 
REMARK    8  A    between atoms: C_15  and  O_16 
REMARK    9  A    between atoms: O_16  and  C_17 
ROOT
HETATM    1  C   UNL     1      44.306 -10.423  10.058  1.00  0.00     0.270 C 
HETATM    2  N   UNL     1      43.840 -10.526   8.773  1.00  0.00    -0.345 N 
HETATM    3  O   UNL     1      45.448 -10.739  10.375  1.00  0.00    -0.266 OA
HETATM    4  H   UNL     1      42.921 -10.182   8.541  1.00  0.00     0.163 HD
ENDROOT
BRANCH   1   5
HETATM    5  C   UNL     1      43.352  -9.928  11.013  1.00  0.00     0.120 A 
HETATM    6  N   UNL     1      42.059 -10.375  11.040  1.00  0.00    -0.272 N 
HETATM    7  N   UNL     1      41.293  -9.789  11.970  1.00  0.00    -0.174 NA
HETATM    8  H   UNL     1      41.645 -11.073  10.430  1.00  0.00     0.189 HD
HETATM    9  C   UNL     1      42.111  -8.931  12.595  1.00  0.00     0.092 A 
HETATM   10  C   UNL     1      43.415  -8.991  12.025  1.00  0.00     0.071 A 
BRANCH   9  11
HETATM   11  C   UNL     1      41.663  -8.051  13.676  1.00  0.00     0.028 A 
HETATM   12  C   UNL     1      41.238  -6.725  13.480  1.00  0.00     0.080 A 
HETATM   13  C   UNL     1      40.883  -5.926  14.575  1.00  0.00     0.037 A 
HETATM   14  C   UNL     1      40.902  -6.444  15.867  1.00  0.00     0.003 A 
HETATM   15  C   UNL     1      41.293  -7.763  16.077  1.00  0.00     0.001 A 
HETATM   16  C   UNL     1      41.676  -8.557  14.991  1.00  0.00     0.017 A 
BRANCH  12  17
HETATM   17  O   UNL     1      41.171  -6.094  12.265  1.00  0.00    -0.355 OA
HETATM   18  C   UNL     1      42.191  -5.112  12.098  1.00  0.00     0.210 C 
ENDBRANCH  12  17
ENDBRANCH   9  11
ENDBRANCH   1   5
BRANCH   2  19
HETATM   19  C   UNL     1      44.674 -11.005   7.702  1.00  0.00     0.217 C 
BRANCH  19  20
HETATM   20  C   UNL     1      44.062 -12.287   7.162  1.00  0.00    -0.085 C 
BRANCH  20  21
HETATM   21  C   UNL     1      43.536 -13.386   6.700  1.00  0.00    -0.078 C 
BRANCH  21  22
HETATM   22  C   UNL     1      42.921 -14.667   6.160  1.00  0.00     0.269 C 
BRANCH  22  23
HETATM   23  O   UNL     1      43.921 -15.678   6.085  1.00  0.00    -0.339 OA
BRANCH  23  24
HETATM   24  C   UNL     1      43.771 -16.608   5.089  1.00  0.00     0.072 A 
HETATM   25  C   UNL     1      44.092 -17.966   5.183  1.00  0.00     0.076 A 
HETATM   26  C   UNL     1      43.871 -18.758   4.074  1.00  0.00     0.107 A 
HETATM   27  C   UNL     1      43.354 -18.253   2.906  1.00  0.00     0.105 A 
HETATM   28  O   UNL     1      44.126 -20.092   3.994  1.00  0.00    -0.323 OA
HETATM   29  O   UNL     1      43.218 -19.203   1.944  1.00  0.00    -0.323 OA
HETATM   30  C   UNL     1      43.027 -16.921   2.779  1.00  0.00     0.042 A 
HETATM   31  C   UNL     1      43.710 -20.367   2.639  1.00  0.00     0.352 A 
HETATM   32  C   UNL     1      43.241 -16.095   3.888  1.00  0.00     0.040 A 
ENDBRANCH  23  24
ENDBRANCH  22  23
ENDBRANCH  21  22
ENDBRANCH  20  21
ENDBRANCH  19  20
ENDBRANCH   2  19
TORSDOF 9
ENDMDL
MODEL 6
REMARK VINA RESULT:      -8.0      6.482     10.698
REMARK  9 active torsions:
REMARK  status: ('A' for Active; 'I' for Inactive)
REMARK    1  A    between atoms: O_2  and  C_3 
REMARK    2  A    between atoms: C_4  and  C_5 
REMARK    3  A    between atoms: C_9  and  C_10 
REMARK       I    between atoms: C_10  and  N_11 
REMARK    4  A    between atoms: N_11  and  C_12 
REMARK    5  A    between atoms: C_12  and  C_13 
REMARK    6  A    between atoms: C_13  and  C_14 
REMARK    7  A    between atoms: C_14  and  C_15 
REMARK    8  A    between atoms: C_15  and  O_16 
REMARK    9  A    between atoms: O_16  and  C_17 
ROOT
HETATM    1  C   UNL     1      40.781 -14.277   0.778  1.00  0.00     0.270 C 
HETATM    2  N   UNL     1      41.133 -12.961   0.925  1.00  0.00    -0.345 N 
HETATM    3  O   UNL     1      39.738 -14.627   0.236  1.00  0.00    -0.266 OA
HETATM    4  H   UNL     1      42.035 -12.719   1.306  1.00  0.00     0.163 HD
ENDROOT
BRANCH   1   5
HETATM    5  C   UNL     1      41.721 -15.221   1.320  1.00  0.00     0.120 A 
HETATM    6  N   UNL     1      43.072 -15.030   1.226  1.00  0.00    -0.272 N 
HETATM    7  N   UNL     1      43.807 -16.019   1.754  1.00  0.00    -0.174 NA
HETATM    8  H   UNL     1      43.546 -14.242   0.795  1.00  0.00     0.189 HD
HETATM    9  C   UNL     1      42.910 -16.893   2.231  1.00  0.00     0.092 A 
HETATM   10  C   UNL     1      41.588 -16.427   1.981  1.00  0.00     0.071 A 
BRANCH   9  11
HETATM   11  C   UNL     1      43.292 -18.153   2.871  1.00  0.00     0.028 A 
HETATM   12  C   UNL     1      43.806 -18.242   4.176  1.00  0.00     0.080 A 
HETATM   13  C   UNL     1      44.207 -19.481   4.696  1.00  0.00     0.037 A 
HETATM   14  C   UNL     1      44.061 -20.646   3.946  1.00  0.00     0.003 A 
HETATM   15  C   UNL     1      43.528 -20.579   2.663  1.00  0.00     0.001 A 
HETATM   16  C   UNL     1      43.152 -19.343   2.128  1.00  0.00     0.017 A 
BRANCH  12  17
HETATM   17  O   UNL     1      43.999 -17.179   5.019  1.00  0.00    -0.355 OA
HETATM   18  C   UNL     1      43.750 -17.506   6.384  1.00  0.00     0.210 C 
ENDBRANCH  12  17
ENDBRANCH   9  11
ENDBRANCH   1   5
BRANCH   2  19
HETATM   19  C   UNL     1      40.298 -11.895   0.436  1.00  0.00     0.217 C 
BRANCH  19  20
HETATM   20  C   UNL     1      39.666 -11.202   1.631  1.00  0.00    -0.085 C 
BRANCH  20  21
HETATM   21  C   UNL     1      39.124 -10.605   2.656  1.00  0.00    -0.078 C 
BRANCH  21  22
HETATM   22  C   UNL     1      38.491  -9.910   3.850  1.00  0.00     0.269 C 
BRANCH  22  23
HETATM   23  O   UNL     1      39.441  -9.823   4.906  1.00  0.00    -0.339 OA
BRANCH  23  24
HETATM   24  C   UNL     1      40.052 -10.993   5.271  1.00  0.00     0.072 A 
HETATM   25  C   UNL     1      39.406 -12.143   5.737  1.00  0.00     0.076 A 
HETATM   26  C   UNL     1      40.187 -13.236   6.059  1.00  0.00     0.107 A 
HETATM   27  C   UNL     1      41.555 -13.219   5.933  1.00  0.00     0.105 A 
HETATM   28  O   UNL     1      39.723 -14.427   6.523  1.00  0.00    -0.323 OA
HETATM   29  O   UNL     1      42.125 -14.396   6.303  1.00  0.00    -0.323 OA
HETATM   30  C   UNL     1      42.223 -12.105   5.478  1.00  0.00     0.042 A 
HETATM   31  C   UNL     1      40.959 -15.158   6.677  1.00  0.00     0.352 A 
HETATM   32  C   UNL     1      41.456 -10.982   5.145  1.00  0.00     0.040 A 
ENDBRANCH  23  24
ENDBRANCH  22  23
ENDBRANCH  21  22
ENDBRANCH  20  21
ENDBRANCH  19  20
ENDBRANCH   2  19
TORSDOF 9
ENDMDL
MODEL 7
REMARK VINA RESULT:      -7.9      2.464     12.003
REMARK  9 active torsions:
REMARK  status: ('A' for Active; 'I' for Inactive)
REMARK    1  A    between atoms: O_2  and  C_3 
REMARK    2  A    between atoms: C_4  and  C_5 
REMARK    3  A    between atoms: C_9  and  C_10 
REMARK       I    between atoms: C_10  and  N_11 
REMARK    4  A    between atoms: N_11  and  C_12 
REMARK    5  A    between atoms: C_12  and  C_13 
REMARK    6  A    between atoms: C_13  and  C_14 
REMARK    7  A    between atoms: C_14  and  C_15 
REMARK    8  A    between atoms: C_15  and  O_16 
REMARK    9  A    between atoms: O_16  and  C_17 
ROOT
HETATM    1  C   UNL     1      42.555 -11.962   6.052  1.00  0.00     0.270 C 
HETATM    2  N   UNL     1      43.732 -11.738   6.718  1.00  0.00    -0.345 N 
HETATM    3  O   UNL     1      41.715 -11.086   5.881  1.00  0.00    -0.266 OA
HETATM    4  H   UNL     1      44.429 -12.465   6.768  1.00  0.00     0.163 HD
ENDROOT
BRANCH   1   5
HETATM    5  C   UNL     1      42.372 -13.307   5.578  1.00  0.00     0.120 A 
HETATM    6  N   UNL     1      41.212 -13.998   5.797  1.00  0.00    -0.272 N 
HETATM    7  N   UNL     1      41.216 -15.250   5.318  1.00  0.00    -0.174 NA
HETATM    8  H   UNL     1      40.387 -13.662   6.285  1.00  0.00     0.189 HD
HETATM    9  C   UNL     1      42.420 -15.391   4.744  1.00  0.00     0.092 A 
HETATM   10  C   UNL     1      43.174 -14.191   4.884  1.00  0.00     0.071 A 
BRANCH   9  11
HETATM   11  C   UNL     1      42.859 -16.638   4.116  1.00  0.00     0.028 A 
HETATM   12  C   UNL     1      43.732 -17.555   4.726  1.00  0.00     0.080 A 
HETATM   13  C   UNL     1      44.155 -18.698   4.034  1.00  0.00     0.037 A 
HETATM   14  C   UNL     1      43.682 -18.966   2.751  1.00  0.00     0.003 A 
HETATM   15  C   UNL     1      42.795 -18.083   2.144  1.00  0.00     0.001 A 
HETATM   16  C   UNL     1      42.392 -16.927   2.818  1.00  0.00     0.017 A 
BRANCH  12  17
HETATM   17  O   UNL     1      44.269 -17.415   5.980  1.00  0.00    -0.355 OA
HETATM   18  C   UNL     1      43.488 -18.054   6.987  1.00  0.00     0.210 C 
ENDBRANCH  12  17
ENDBRANCH   9  11
ENDBRANCH   1   5
BRANCH   2  19
HETATM   19  C   UNL     1      44.063 -10.444   7.253  1.00  0.00     0.217 C 
BRANCH  19  20
HETATM   20  C   UNL     1      43.897 -10.498   8.763  1.00  0.00    -0.085 C 
BRANCH  20  21
HETATM   21  C   UNL     1      43.754 -10.543  10.058  1.00  0.00    -0.078 C 
BRANCH  21  22
HETATM   22  C   UNL     1      43.586 -10.597  11.567  1.00  0.00     0.269 C 
BRANCH  22  23
HETATM   23  O   UNL     1      42.315 -10.063  11.922  1.00  0.00    -0.339 OA
BRANCH  23  24
HETATM   24  C   UNL     1      42.297  -9.188  12.976  1.00  0.00     0.072 A 
HETATM   25  C   UNL     1      41.427  -9.243  14.070  1.00  0.00     0.076 A 
HETATM   26  C   UNL     1      41.555  -8.273  15.045  1.00  0.00     0.107 A 
HETATM   27  C   UNL     1      42.497  -7.276  14.964  1.00  0.00     0.105 A 
HETATM   28  O   UNL     1      40.795  -8.179  16.169  1.00  0.00    -0.323 OA
HETATM   29  O   UNL     1      42.450  -6.430  16.026  1.00  0.00    -0.323 OA
HETATM   30  C   UNL     1      43.368  -7.192  13.902  1.00  0.00     0.042 A 
HETATM   31  C   UNL     1      41.368  -7.007  16.787  1.00  0.00     0.352 A 
HETATM   32  C   UNL     1      43.261  -8.162  12.899  1.00  0.00     0.040 A 
ENDBRANCH  23  24
ENDBRANCH  22  23
ENDBRANCH  21  22
ENDBRANCH  20  21
ENDBRANCH  19  20
ENDBRANCH   2  19
TORSDOF 9
ENDMDL
MODEL 8
REMARK VINA RESULT:      -7.7      4.568     10.985
REMARK  9 active torsions:
REMARK  status: ('A' for Active; 'I' for Inactive)
REMARK    1  A    between atoms: O_2  and  C_3 
REMARK    2  A    between atoms: C_4  and  C_5 
REMARK    3  A    between atoms: C_9  and  C_10 
REMARK       I    between atoms: C_10  and  N_11 
REMARK    4  A    between atoms: N_11  and  C_12 
REMARK    5  A    between atoms: C_12  and  C_13 
REMARK    6  A    between atoms: C_13  and  C_14 
REMARK    7  A    between atoms: C_14  and  C_15 
REMARK    8  A    between atoms: C_15  and  O_16 
REMARK    9  A    between atoms: O_16  and  C_17 
ROOT
HETATM    1  C   UNL     1      41.387 -13.250   2.506  1.00  0.00     0.270 C 
HETATM    2  N   UNL     1      40.094 -13.349   2.950  1.00  0.00    -0.345 N 
HETATM    3  O   UNL     1      41.890 -12.184   2.167  1.00  0.00    -0.266 OA
HETATM    4  H   UNL     1      39.745 -14.231   3.292  1.00  0.00     0.163 HD
ENDROOT
BRANCH   1   5
HETATM    5  C   UNL     1      42.108 -14.492   2.455  1.00  0.00     0.120 A 
HETATM    6  N   UNL     1      43.044 -14.745   1.489  1.00  0.00    -0.272 N 
HETATM    7  N   UNL     1      43.601 -15.961   1.565  1.00  0.00    -0.174 NA
HETATM    8  H   UNL     1      43.330 -14.119   0.742  1.00  0.00     0.189 HD
HETATM    9  C   UNL     1      43.025 -16.534   2.632  1.00  0.00     0.092 A 
HETATM   10  C   UNL     1      42.083 -15.642   3.220  1.00  0.00     0.071 A 
BRANCH   9  11
HETATM   11  C   UNL     1      43.328 -17.901   3.060  1.00  0.00     0.028 A 
HETATM   12  C   UNL     1      43.810 -18.230   4.339  1.00  0.00     0.080 A 
HETATM   13  C   UNL     1      44.135 -19.557   4.652  1.00  0.00     0.037 A 
HETATM   14  C   UNL     1      43.945 -20.574   3.719  1.00  0.00     0.003 A 
HETATM   15  C   UNL     1      43.442 -20.268   2.458  1.00  0.00     0.001 A 
HETATM   16  C   UNL     1      43.142 -18.943   2.130  1.00  0.00     0.017 A 
BRANCH  12  17
HETATM   17  O   UNL     1      44.041 -17.331   5.347  1.00  0.00    -0.355 OA
HETATM   18  C   UNL     1      43.400 -17.697   6.567  1.00  0.00     0.210 C 
ENDBRANCH  12  17
ENDBRANCH   9  11
ENDBRANCH   1   5
BRANCH   2  19
HETATM   19  C   UNL     1      39.240 -12.195   3.058  1.00  0.00     0.217 C 
BRANCH  19  20
HETATM   20  C   UNL     1      39.462 -11.569   4.425  1.00  0.00    -0.085 C 
BRANCH  20  21
HETATM   21  C   UNL     1      39.653 -11.033   5.598  1.00  0.00    -0.078 C 
BRANCH  21  22
HETATM   22  C   UNL     1      39.878 -10.407   6.964  1.00  0.00     0.269 C 
BRANCH  22  23
HETATM   23  O   UNL     1      40.652  -9.221   6.821  1.00  0.00    -0.339 OA
BRANCH  23  24
HETATM   24  C   UNL     1      41.959  -9.295   7.226  1.00  0.00     0.072 A 
HETATM   25  C   UNL     1      42.840 -10.346   6.955  1.00  0.00     0.076 A 
HETATM   26  C   UNL     1      44.128 -10.249   7.446  1.00  0.00     0.107 A 
HETATM   27  C   UNL     1      44.552  -9.167   8.178  1.00  0.00     0.105 A 
HETATM   28  O   UNL     1      45.109 -11.177   7.276  1.00  0.00    -0.323 OA
HETATM   29  O   UNL     1      45.852  -9.275   8.560  1.00  0.00    -0.323 OA
HETATM   30  C   UNL     1      43.711  -8.115   8.462  1.00  0.00     0.042 A 
HETATM   31  C   UNL     1      46.199 -10.552   7.986  1.00  0.00     0.352 A 
HETATM   32  C   UNL     1      42.400  -8.187   7.978  1.00  0.00     0.040 A 
ENDBRANCH  23  24
ENDBRANCH  22  23
ENDBRANCH  21  22
ENDBRANCH  20  21
ENDBRANCH  19  20
ENDBRANCH   2  19
TORSDOF 9
ENDMDL
MODEL 9
REMARK VINA RESULT:      -7.6      1.995      2.760
REMARK  9 active torsions:
REMARK  status: ('A' for Active; 'I' for Inactive)
REMARK    1  A    between atoms: O_2  and  C_3 
REMARK    2  A    between atoms: C_4  and  C_5 
REMARK    3  A    between atoms: C_9  and  C_10 
REMARK       I    between atoms: C_10  and  N_11 
REMARK    4  A    between atoms: N_11  and  C_12 
REMARK    5  A    between atoms: C_12  and  C_13 
REMARK    6  A    between atoms: C_13  and  C_14 
REMARK    7  A    between atoms: C_14  and  C_15 
REMARK    8  A    between atoms: C_15  and  O_16 
REMARK    9  A    between atoms: O_16  and  C_17 
ROOT
HETATM    1  C   UNL     1      44.198 -10.423  10.098  1.00  0.00     0.270 C 
HETATM    2  N   UNL     1      43.591 -10.707   8.903  1.00  0.00    -0.345 N 
HETATM    3  O   UNL     1      45.393 -10.619  10.296  1.00  0.00    -0.266 OA
HETATM    4  H   UNL     1      42.625 -10.459   8.757  1.00  0.00     0.163 HD
ENDROOT
BRANCH   1   5
HETATM    5  C   UNL     1      43.328  -9.890  11.110  1.00  0.00     0.120 A 
HETATM    6  N   UNL     1      42.048 -10.345  11.275  1.00  0.00    -0.272 N 
HETATM    7  N   UNL     1      41.361  -9.720  12.242  1.00  0.00    -0.174 NA
HETATM    8  H   UNL     1      41.589 -11.075  10.739  1.00  0.00     0.189 HD
HETATM    9  C   UNL     1      42.223  -8.827  12.750  1.00  0.00     0.092 A 
HETATM   10  C   UNL     1      43.471  -8.905  12.068  1.00  0.00     0.071 A 
BRANCH   9  11
HETATM   11  C   UNL     1      41.863  -7.900  13.824  1.00  0.00     0.028 A 
HETATM   12  C   UNL     1      41.621  -6.529  13.625  1.00  0.00     0.080 A 
HETATM   13  C   UNL     1      41.343  -5.694  14.715  1.00  0.00     0.037 A 
HETATM   14  C   UNL     1      41.257  -6.214  16.004  1.00  0.00     0.003 A 
HETATM   15  C   UNL     1      41.467  -7.573  16.215  1.00  0.00     0.001 A 
HETATM   16  C   UNL     1      41.772  -8.407  15.135  1.00  0.00     0.017 A 
BRANCH  12  17
HETATM   17  O   UNL     1      41.671  -5.891  12.412  1.00  0.00    -0.355 OA
HETATM   18  C   UNL     1      42.290  -4.609  12.491  1.00  0.00     0.210 C 
ENDBRANCH  12  17
ENDBRANCH   9  11
ENDBRANCH   1   5
BRANCH   2  19
HETATM   19  C   UNL     1      44.327 -11.247   7.789  1.00  0.00     0.217 C 
BRANCH  19  20
HETATM   20  C   UNL     1      43.346 -11.959   6.873  1.00  0.00    -0.085 C 
BRANCH  20  21
HETATM   21  C   UNL     1      42.505 -12.569   6.086  1.00  0.00    -0.078 C 
BRANCH  21  22
HETATM   22  C   UNL     1      41.524 -13.279   5.167  1.00  0.00     0.269 C 
BRANCH  22  23
HETATM   23  O   UNL     1      41.075 -14.478   5.788  1.00  0.00    -0.339 OA
BRANCH  23  24
HETATM   24  C   UNL     1      41.857 -15.588   5.604  1.00  0.00     0.072 A 
HETATM   25  C   UNL     1      42.267 -16.104   4.370  1.00  0.00     0.076 A 
HETATM   26  C   UNL     1      43.059 -17.236   4.377  1.00  0.00     0.107 A 
HETATM   27  C   UNL     1      43.445 -17.852   5.543  1.00  0.00     0.105 A 
HETATM   28  O   UNL     1      43.543 -17.866   3.273  1.00  0.00    -0.323 OA
HETATM   29  O   UNL     1      44.220 -18.946   5.320  1.00  0.00    -0.323 OA
HETATM   30  C   UNL     1      43.060 -17.370   6.774  1.00  0.00     0.042 A 
HETATM   31  C   UNL     1      44.278 -18.950   3.879  1.00  0.00     0.352 A 
HETATM   32  C   UNL     1      42.257 -16.224   6.797  1.00  0.00     0.040 A 
ENDBRANCH  23  24
ENDBRANCH  22  23
ENDBRANCH  21  22
ENDBRANCH  20  21
ENDBRANCH  19  20
ENDBRANCH   2  19
TORSDOF 9
ENDMDL
MODEL 10
REMARK VINA RESULT:      -7.5      3.262     11.560
REMARK  9 active torsions:
REMARK  status: ('A' for Active; 'I' for Inactive)
REMARK    1  A    between atoms: O_2  and  C_3 
REMARK    2  A    between atoms: C_4  and  C_5 
REMARK    3  A    between atoms: C_9  and  C_10 
REMARK       I    between atoms: C_10  and  N_11 
REMARK    4  A    between atoms: N_11  and  C_12 
REMARK    5  A    between atoms: C_12  and  C_13 
REMARK    6  A    between atoms: C_13  and  C_14 
REMARK    7  A    between atoms: C_14  and  C_15 
REMARK    8  A    between atoms: C_15  and  O_16 
REMARK    9  A    between atoms: O_16  and  C_17 
ROOT
HETATM    1  C   UNL     1      40.542 -12.299   4.015  1.00  0.00     0.270 C 
HETATM    2  N   UNL     1      40.489 -11.881   5.319  1.00  0.00    -0.345 N 
HETATM    3  O   UNL     1      40.343 -11.543   3.069  1.00  0.00    -0.266 OA
HETATM    4  H   UNL     1      40.735 -12.516   6.062  1.00  0.00     0.163 HD
ENDROOT
BRANCH   1   5
HETATM    5  C   UNL     1      40.836 -13.695   3.836  1.00  0.00     0.120 A 
HETATM    6  N   UNL     1      39.860 -14.607   3.543  1.00  0.00    -0.272 N 
HETATM    7  N   UNL     1      40.297 -15.869   3.440  1.00  0.00    -0.174 NA
HETATM    8  H   UNL     1      38.870 -14.418   3.417  1.00  0.00     0.189 HD
HETATM    9  C   UNL     1      41.618 -15.791   3.657  1.00  0.00     0.092 A 
HETATM   10  C   UNL     1      41.996 -14.441   3.906  1.00  0.00     0.071 A 
BRANCH   9  11
HETATM   11  C   UNL     1      42.492 -16.966   3.667  1.00  0.00     0.028 A 
HETATM   12  C   UNL     1      43.247 -17.368   4.782  1.00  0.00     0.080 A 
HETATM   13  C   UNL     1      44.109 -18.470   4.692  1.00  0.00     0.037 A 
HETATM   14  C   UNL     1      44.197 -19.209   3.515  1.00  0.00     0.003 A 
HETATM   15  C   UNL     1      43.434 -18.841   2.411  1.00  0.00     0.001 A 
HETATM   16  C   UNL     1      42.594 -17.726   2.485  1.00  0.00     0.017 A 
BRANCH  12  17
HETATM   17  O   UNL     1      43.254 -16.734   5.997  1.00  0.00    -0.355 OA
HETATM   18  C   UNL     1      44.565 -16.360   6.415  1.00  0.00     0.210 C 
ENDBRANCH  12  17
ENDBRANCH   9  11
ENDBRANCH   1   5
BRANCH   2  19
HETATM   19  C   UNL     1      40.205 -10.512   5.664  1.00  0.00     0.217 C 
BRANCH  19  20
HETATM   20  C   UNL     1      41.232 -10.059   6.688  1.00  0.00    -0.085 C 
BRANCH  20  21
HETATM   21  C   UNL     1      42.114  -9.669   7.566  1.00  0.00    -0.078 C 
BRANCH  21  22
HETATM   22  C   UNL     1      43.141  -9.215   8.590  1.00  0.00     0.269 C 
BRANCH  22  23
HETATM   23  O   UNL     1      43.169 -10.139   9.674  1.00  0.00    -0.339 OA
BRANCH  23  24
HETATM   24  C   UNL     1      42.865  -9.633  10.910  1.00  0.00     0.072 A 
HETATM   25  C   UNL     1      41.729  -9.944  11.665  1.00  0.00     0.076 A 
HETATM   26  C   UNL     1      41.588  -9.336  12.897  1.00  0.00     0.107 A 
HETATM   27  C   UNL     1      42.518  -8.452  13.387  1.00  0.00     0.105 A 
HETATM   28  O   UNL     1      40.549  -9.526  13.755  1.00  0.00    -0.323 OA
HETATM   29  O   UNL     1      42.183  -7.973  14.614  1.00  0.00    -0.323 OA
HETATM   30  C   UNL     1      43.647  -8.124  12.671  1.00  0.00     0.042 A 
HETATM   31  C   UNL     1      40.934  -8.657  14.842  1.00  0.00     0.352 A 
HETATM   32  C   UNL     1      43.816  -8.725  11.419  1.00  0.00     0.040 A 
ENDBRANCH  23  24
ENDBRANCH  22  23
ENDBRANCH  21  22
ENDBRANCH  20  21
ENDBRANCH  19  20
ENDBRANCH   2  19
TORSDOF 9
ENDMDL
