MODEL 1
REMARK VINA RESULT:      -7.6      0.000      0.000
REMARK  5 active torsions:
REMARK  status: ('A' for Active; 'I' for Inactive)
REMARK    1  A    between atoms: C_2  and  O_3 
REMARK    2  A    between atoms: C_2  and  C_5 
REMARK    3  A    between atoms: C_7  and  N_8 
REMARK    4  A    between atoms: N_8  and  C_9 
REMARK    5  A    between atoms: C_9  and  C_10 
ROOT
HETATM    1  N   UNL     1      39.712 -15.425   2.474  1.00  0.00    -0.289 NA
HETATM    2  H   UNL     1      39.668 -14.409   2.550  1.00  0.00     0.128 HD
ENDROOT
BRANCH   1   3
HETATM    3  C   UNL     1      40.663 -15.931   3.378  1.00  0.00     0.009 A 
HETATM    4  C   UNL     1      41.682 -16.761   2.881  1.00  0.00     0.033 A 
HETATM    5  C   UNL     1      42.713 -17.256   3.704  1.00  0.00    -0.028 A 
HETATM    6  C   UNL     1      42.711 -16.899   5.056  1.00  0.00     0.010 A 
HETATM    7  C   UNL     1      41.743 -16.026   5.554  1.00  0.00     0.002 A 
HETATM    8  C   UNL     1      40.743 -15.531   4.714  1.00  0.00     0.023 A 
BRANCH   5   9
HETATM    9  C   UNL     1      43.757 -18.185   3.112  1.00  0.00     0.149 C 
HETATM   10  C   UNL     1      44.488 -19.030   4.157  1.00  0.00     0.045 C 
BRANCH   9  11
HETATM   11  O   UNL     1      43.080 -19.022   2.171  1.00  0.00    -0.386 OA
HETATM   12  C   UNL     1      43.666 -20.309   2.036  1.00  0.00     0.202 C 
ENDBRANCH   9  11
ENDBRANCH   5   9
ENDBRANCH   1   3
BRANCH   1  13
HETATM   13  C   UNL     1      39.810 -15.820   1.063  1.00  0.00     0.133 C 
BRANCH  13  14
HETATM   14  C   UNL     1      40.016 -14.648   0.127  1.00  0.00    -0.016 A 
HETATM   15  C   UNL     1      39.486 -14.531  -1.170  1.00  0.00     0.069 A 
HETATM   16  C   UNL     1      39.656 -13.420  -1.985  1.00  0.00     0.012 A 
HETATM   17  N   UNL     1      38.733 -15.405  -1.915  1.00  0.00    -0.277 N 
HETATM   18  C   UNL     1      38.952 -13.735  -3.169  1.00  0.00     0.152 A 
HETATM   19  C   UNL     1      40.406 -12.330  -1.514  1.00  0.00     0.015 A 
HETATM   20  N   UNL     1      38.381 -14.941  -3.129  1.00  0.00    -0.186 NA
HETATM   21  C   UNL     1      40.956 -12.404  -0.231  1.00  0.00     0.002 A 
HETATM   22  C   UNL     1      40.762 -13.534   0.567  1.00  0.00     0.011 A 
HETATM   23  H   UNL     1      38.445 -16.335  -1.625  1.00  0.00     0.189 HD
ENDBRANCH  13  14
ENDBRANCH   1  13
TORSDOF 5
ENDMDL
MODEL 2
REMARK VINA RESULT:      -7.3      3.164      5.048
REMARK  5 active torsions:
REMARK  status: ('A' for Active; 'I' for Inactive)
REMARK    1  A    between atoms: C_2  and  O_3 
REMARK    2  A    between atoms: C_2  and  C_5 
REMARK    3  A    between atoms: C_7  and  N_8 
REMARK    4  A    between atoms: N_8  and  C_9 
REMARK    5  A    between atoms: C_9  and  C_10 
ROOT
HETATM    1  N   UNL     1      39.885 -15.622   3.049  1.00  0.00    -0.289 NA
HETATM    2  H   UNL     1      39.436 -15.475   3.952  1.00  0.00     0.128 HD
ENDROOT
BRANCH   1   3
HETATM    3  C   UNL     1      41.133 -16.244   3.230  1.00  0.00     0.009 A 
HETATM    4  C   UNL     1      41.625 -16.386   4.539  1.00  0.00     0.033 A 
HETATM    5  C   UNL     1      42.834 -17.056   4.816  1.00  0.00    -0.028 A 
HETATM    6  C   UNL     1      43.554 -17.594   3.744  1.00  0.00     0.010 A 
HETATM    7  C   UNL     1      43.050 -17.517   2.446  1.00  0.00     0.002 A 
HETATM    8  C   UNL     1      41.839 -16.867   2.198  1.00  0.00     0.023 A 
BRANCH   5   9
HETATM    9  C   UNL     1      43.330 -17.133   6.248  1.00  0.00     0.149 C 
HETATM   10  C   UNL     1      44.706 -16.497   6.454  1.00  0.00     0.045 C 
BRANCH   9  11
HETATM   11  O   UNL     1      42.349 -16.485   7.062  1.00  0.00    -0.386 OA
HETATM   12  C   UNL     1      42.892 -15.487   7.914  1.00  0.00     0.202 C 
ENDBRANCH   9  11
ENDBRANCH   5   9
ENDBRANCH   1   3
BRANCH   1  13
HETATM   13  C   UNL     1      39.827 -14.389   2.252  1.00  0.00     0.133 C 
BRANCH  13  14
HETATM   14  C   UNL     1      40.535 -13.222   2.906  1.00  0.00    -0.016 A 
HETATM   15  C   UNL     1      40.291 -12.736   4.202  1.00  0.00     0.069 A 
HETATM   16  C   UNL     1      40.992 -11.691   4.789  1.00  0.00     0.012 A 
HETATM   17  N   UNL     1      39.374 -13.123   5.148  1.00  0.00    -0.277 N 
HETATM   18  C   UNL     1      40.425 -11.559   6.076  1.00  0.00     0.152 A 
HETATM   19  C   UNL     1      42.012 -11.054   4.063  1.00  0.00     0.015 A 
HETATM   20  N   UNL     1      39.443 -12.435   6.303  1.00  0.00    -0.186 NA
HETATM   21  C   UNL     1      42.287 -11.501   2.767  1.00  0.00     0.002 A 
HETATM   22  C   UNL     1      41.567 -12.559   2.207  1.00  0.00     0.011 A 
HETATM   23  H   UNL     1      38.677 -13.854   5.035  1.00  0.00     0.189 HD
ENDBRANCH  13  14
ENDBRANCH   1  13
TORSDOF 5
ENDMDL
MODEL 3
REMARK VINA RESULT:      -7.3      5.559      7.666
REMARK  5 active torsions:
REMARK  status: ('A' for Active; 'I' for Inactive)
REMARK    1  A    between atoms: C_2  and  O_3 
REMARK    2  A    between atoms: C_2  and  C_5 
REMARK    3  A    between atoms: C_7  and  N_8 
REMARK    4  A    between atoms: N_8  and  C_9 
REMARK    5  A    between atoms: C_9  and  C_10 
ROOT
HETATM    1  N   UNL     1      42.182 -16.260   6.595  1.00  0.00    -0.289 NA
HETATM    2  H   UNL     1      41.445 -16.636   6.000  1.00  0.00     0.128 HD
ENDROOT
BRANCH   1   3
HETATM    3  C   UNL     1      42.203 -14.857   6.502  1.00  0.00     0.009 A 
HETATM    4  C   UNL     1      43.403 -14.186   6.792  1.00  0.00     0.033 A 
HETATM    5  C   UNL     1      43.531 -12.789   6.659  1.00  0.00    -0.028 A 
HETATM    6  C   UNL     1      42.421 -12.061   6.219  1.00  0.00     0.010 A 
HETATM    7  C   UNL     1      41.241 -12.716   5.867  1.00  0.00     0.002 A 
HETATM    8  C   UNL     1      41.144 -14.105   5.987  1.00  0.00     0.023 A 
BRANCH   5   9
HETATM    9  C   UNL     1      44.842 -12.123   7.033  1.00  0.00     0.149 C 
HETATM   10  C   UNL     1      45.398 -11.207   5.941  1.00  0.00     0.045 C 
BRANCH   9  11
HETATM   11  O   UNL     1      44.603 -11.385   8.235  1.00  0.00    -0.386 OA
HETATM   12  C   UNL     1      45.607 -10.421   8.515  1.00  0.00     0.202 C 
ENDBRANCH   9  11
ENDBRANCH   5   9
ENDBRANCH   1   3
BRANCH   1  13
HETATM   13  C   UNL     1      43.434 -16.994   6.370  1.00  0.00     0.133 C 
BRANCH  13  14
HETATM   14  C   UNL     1      43.514 -17.634   5.001  1.00  0.00    -0.016 A 
HETATM   15  C   UNL     1      43.705 -19.003   4.745  1.00  0.00     0.069 A 
HETATM   16  C   UNL     1      43.726 -19.564   3.474  1.00  0.00     0.012 A 
HETATM   17  N   UNL     1      43.911 -20.057   5.601  1.00  0.00    -0.277 N 
HETATM   18  C   UNL     1      43.929 -20.944   3.697  1.00  0.00     0.152 A 
HETATM   19  C   UNL     1      43.555 -18.734   2.354  1.00  0.00     0.015 A 
HETATM   20  N   UNL     1      44.035 -21.251   4.992  1.00  0.00    -0.186 NA
HETATM   21  C   UNL     1      43.366 -17.365   2.560  1.00  0.00     0.002 A 
HETATM   22  C   UNL     1      43.344 -16.832   3.851  1.00  0.00     0.011 A 
HETATM   23  H   UNL     1      43.978 -19.994   6.612  1.00  0.00     0.189 HD
ENDBRANCH  13  14
ENDBRANCH   1  13
TORSDOF 5
ENDMDL
MODEL 4
REMARK VINA RESULT:      -7.3      4.137      5.883
REMARK  5 active torsions:
REMARK  status: ('A' for Active; 'I' for Inactive)
REMARK    1  A    between atoms: C_2  and  O_3 
REMARK    2  A    between atoms: C_2  and  C_5 
REMARK    3  A    between atoms: C_7  and  N_8 
REMARK    4  A    between atoms: N_8  and  C_9 
REMARK    5  A    between atoms: C_9  and  C_10 
ROOT
HETATM    1  N   UNL     1      40.020 -14.491   5.532  1.00  0.00    -0.289 NA
HETATM    2  H   UNL     1      39.194 -14.833   6.021  1.00  0.00     0.128 HD
ENDROOT
BRANCH   1   3
HETATM    3  C   UNL     1      41.011 -15.490   5.511  1.00  0.00     0.009 A 
HETATM    4  C   UNL     1      41.425 -15.995   4.266  1.00  0.00     0.033 A 
HETATM    5  C   UNL     1      42.457 -16.946   4.150  1.00  0.00    -0.028 A 
HETATM    6  C   UNL     1      43.083 -17.391   5.319  1.00  0.00     0.010 A 
HETATM    7  C   UNL     1      42.729 -16.856   6.557  1.00  0.00     0.002 A 
HETATM    8  C   UNL     1      41.716 -15.898   6.646  1.00  0.00     0.023 A 
BRANCH   5   9
HETATM    9  C   UNL     1      42.824 -17.483   2.778  1.00  0.00     0.149 C 
HETATM   10  C   UNL     1      43.262 -16.399   1.793  1.00  0.00     0.045 C 
BRANCH   9  11
HETATM   11  O   UNL     1      43.869 -18.439   2.974  1.00  0.00    -0.386 OA
HETATM   12  C   UNL     1      43.589 -19.708   2.400  1.00  0.00     0.202 C 
ENDBRANCH   9  11
ENDBRANCH   5   9
ENDBRANCH   1   3
BRANCH   1  13
HETATM   13  C   UNL     1      40.384 -13.158   6.028  1.00  0.00     0.133 C 
BRANCH  13  14
HETATM   14  C   UNL     1      41.610 -12.582   5.352  1.00  0.00    -0.016 A 
HETATM   15  C   UNL     1      42.834 -12.294   5.981  1.00  0.00     0.069 A 
HETATM   16  C   UNL     1      43.956 -11.811   5.320  1.00  0.00     0.012 A 
HETATM   17  N   UNL     1      43.214 -12.397   7.296  1.00  0.00    -0.277 N 
HETATM   18  C   UNL     1      44.937 -11.683   6.329  1.00  0.00     0.152 A 
HETATM   19  C   UNL     1      43.892 -11.578   3.937  1.00  0.00     0.015 A 
HETATM   20  N   UNL     1      44.492 -12.046   7.535  1.00  0.00    -0.186 NA
HETATM   21  C   UNL     1      42.693 -11.847   3.270  1.00  0.00     0.002 A 
HETATM   22  C   UNL     1      41.584 -12.338   3.962  1.00  0.00     0.011 A 
HETATM   23  H   UNL     1      42.620 -12.698   8.063  1.00  0.00     0.189 HD
ENDBRANCH  13  14
ENDBRANCH   1  13
TORSDOF 5
ENDMDL
MODEL 5
REMARK VINA RESULT:      -7.3      2.702      7.508
REMARK  5 active torsions:
REMARK  status: ('A' for Active; 'I' for Inactive)
REMARK    1  A    between atoms: C_2  and  O_3 
REMARK    2  A    between atoms: C_2  and  C_5 
REMARK    3  A    between atoms: C_7  and  N_8 
REMARK    4  A    between atoms: N_8  and  C_9 
REMARK    5  A    between atoms: C_9  and  C_10 
ROOT
HETATM    1  N   UNL     1      40.143 -15.839   1.828  1.00  0.00    -0.289 NA
HETATM    2  H   UNL     1      40.513 -16.693   1.413  1.00  0.00     0.128 HD
ENDROOT
BRANCH   1   3
HETATM    3  C   UNL     1      40.373 -14.750   0.968  1.00  0.00     0.009 A 
HETATM    4  C   UNL     1      39.876 -14.818  -0.344  1.00  0.00     0.033 A 
HETATM    5  C   UNL     1      40.002 -13.747  -1.250  1.00  0.00    -0.028 A 
HETATM    6  C   UNL     1      40.643 -12.582  -0.814  1.00  0.00     0.010 A 
HETATM    7  C   UNL     1      41.088 -12.473   0.503  1.00  0.00     0.002 A 
HETATM    8  C   UNL     1      40.932 -13.541   1.390  1.00  0.00     0.023 A 
BRANCH   5   9
HETATM    9  C   UNL     1      39.482 -13.904  -2.667  1.00  0.00     0.149 C 
HETATM   10  C   UNL     1      38.634 -15.160  -2.872  1.00  0.00     0.045 C 
BRANCH   9  11
HETATM   11  O   UNL     1      38.723 -12.729  -2.963  1.00  0.00    -0.386 OA
HETATM   12  C   UNL     1      37.357 -12.829  -2.585  1.00  0.00     0.202 C 
ENDBRANCH   9  11
ENDBRANCH   5   9
ENDBRANCH   1   3
BRANCH   1  13
HETATM   13  C   UNL     1      40.580 -15.729   3.226  1.00  0.00     0.133 C 
BRANCH  13  14
HETATM   14  C   UNL     1      41.791 -16.580   3.543  1.00  0.00    -0.016 A 
HETATM   15  C   UNL     1      42.329 -16.798   4.823  1.00  0.00     0.069 A 
HETATM   16  C   UNL     1      43.415 -17.624   5.083  1.00  0.00     0.012 A 
HETATM   17  N   UNL     1      41.966 -16.294   6.047  1.00  0.00    -0.277 N 
HETATM   18  C   UNL     1      43.592 -17.550   6.483  1.00  0.00     0.152 A 
HETATM   19  C   UNL     1      44.040 -18.293   4.018  1.00  0.00     0.015 A 
HETATM   20  N   UNL     1      42.706 -16.747   7.077  1.00  0.00    -0.186 NA
HETATM   21  C   UNL     1      43.542 -18.103   2.726  1.00  0.00     0.002 A 
HETATM   22  C   UNL     1      42.444 -17.270   2.498  1.00  0.00     0.011 A 
HETATM   23  H   UNL     1      41.215 -15.631   6.216  1.00  0.00     0.189 HD
ENDBRANCH  13  14
ENDBRANCH   1  13
TORSDOF 5
ENDMDL
MODEL 6
REMARK VINA RESULT:      -7.2      4.494      7.280
REMARK  5 active torsions:
REMARK  status: ('A' for Active; 'I' for Inactive)
REMARK    1  A    between atoms: C_2  and  O_3 
REMARK    2  A    between atoms: C_2  and  C_5 
REMARK    3  A    between atoms: C_7  and  N_8 
REMARK    4  A    between atoms: N_8  and  C_9 
REMARK    5  A    between atoms: C_9  and  C_10 
ROOT
HETATM    1  N   UNL     1      40.868 -14.303   4.797  1.00  0.00    -0.289 NA
HETATM    2  H   UNL     1      39.980 -13.846   5.002  1.00  0.00     0.128 HD
ENDROOT
BRANCH   1   3
HETATM    3  C   UNL     1      41.884 -13.339   4.673  1.00  0.00     0.009 A 
HETATM    4  C   UNL     1      42.721 -13.104   5.777  1.00  0.00     0.033 A 
HETATM    5  C   UNL     1      43.805 -12.206   5.717  1.00  0.00    -0.028 A 
HETATM    6  C   UNL     1      44.045 -11.536   4.513  1.00  0.00     0.010 A 
HETATM    7  C   UNL     1      43.264 -11.803   3.389  1.00  0.00     0.002 A 
HETATM    8  C   UNL     1      42.207 -12.713   3.466  1.00  0.00     0.023 A 
BRANCH   5   9
HETATM    9  C   UNL     1      44.642 -11.965   6.960  1.00  0.00     0.149 C 
HETATM   10  C   UNL     1      45.937 -11.199   6.688  1.00  0.00     0.045 C 
BRANCH   9  11
HETATM   11  O   UNL     1      43.816 -11.247   7.882  1.00  0.00    -0.386 OA
HETATM   12  C   UNL     1      44.555 -10.503   8.840  1.00  0.00     0.202 C 
ENDBRANCH   9  11
ENDBRANCH   5   9
ENDBRANCH   1   3
BRANCH   1  13
HETATM   13  C   UNL     1      40.694 -15.279   3.713  1.00  0.00     0.133 C 
BRANCH  13  14
HETATM   14  C   UNL     1      41.813 -16.296   3.640  1.00  0.00    -0.016 A 
HETATM   15  C   UNL     1      42.450 -16.896   4.741  1.00  0.00     0.069 A 
HETATM   16  C   UNL     1      43.442 -17.862   4.636  1.00  0.00     0.012 A 
HETATM   17  N   UNL     1      42.284 -16.702   6.089  1.00  0.00    -0.277 N 
HETATM   18  C   UNL     1      43.773 -18.178   5.973  1.00  0.00     0.152 A 
HETATM   19  C   UNL     1      43.862 -18.282   3.364  1.00  0.00     0.015 A 
HETATM   20  N   UNL     1      43.064 -17.479   6.863  1.00  0.00    -0.186 NA
HETATM   21  C   UNL     1      43.259 -17.710   2.240  1.00  0.00     0.002 A 
HETATM   22  C   UNL     1      42.259 -16.744   2.378  1.00  0.00     0.011 A 
HETATM   23  H   UNL     1      41.646 -16.037   6.519  1.00  0.00     0.189 HD
ENDBRANCH  13  14
ENDBRANCH   1  13
TORSDOF 5
ENDMDL
MODEL 7
REMARK VINA RESULT:      -7.2      4.645      7.106
REMARK  5 active torsions:
REMARK  status: ('A' for Active; 'I' for Inactive)
REMARK    1  A    between atoms: C_2  and  O_3 
REMARK    2  A    between atoms: C_2  and  C_5 
REMARK    3  A    between atoms: C_7  and  N_8 
REMARK    4  A    between atoms: N_8  and  C_9 
REMARK    5  A    between atoms: C_9  and  C_10 
ROOT
HETATM    1  N   UNL     1      42.793 -16.829   7.257  1.00  0.00    -0.289 NA
HETATM    2  H   UNL     1      42.123 -17.591   7.161  1.00  0.00     0.128 HD
ENDROOT
BRANCH   1   3
HETATM    3  C   UNL     1      42.186 -15.611   6.900  1.00  0.00     0.009 A 
HETATM    4  C   UNL     1      42.982 -14.454   6.858  1.00  0.00     0.033 A 
HETATM    5  C   UNL     1      42.471 -13.208   6.446  1.00  0.00    -0.028 A 
HETATM    6  C   UNL     1      41.127 -13.136   6.065  1.00  0.00     0.010 A 
HETATM    7  C   UNL     1      40.338 -14.286   6.040  1.00  0.00     0.002 A 
HETATM    8  C   UNL     1      40.872 -15.515   6.433  1.00  0.00     0.023 A 
BRANCH   5   9
HETATM    9  C   UNL     1      43.373 -11.988   6.469  1.00  0.00     0.149 C 
HETATM   10  C   UNL     1      42.612 -10.663   6.535  1.00  0.00     0.045 C 
BRANCH   9  11
HETATM   11  O   UNL     1      44.234 -12.132   7.602  1.00  0.00    -0.386 OA
HETATM   12  C   UNL     1      44.346 -10.948   8.379  1.00  0.00     0.202 C 
ENDBRANCH   9  11
ENDBRANCH   5   9
ENDBRANCH   1   3
BRANCH   1  13
HETATM   13  C   UNL     1      44.064 -17.191   6.615  1.00  0.00     0.133 C 
BRANCH  13  14
HETATM   14  C   UNL     1      43.883 -17.881   5.280  1.00  0.00    -0.016 A 
HETATM   15  C   UNL     1      43.617 -17.243   4.056  1.00  0.00     0.069 A 
HETATM   16  C   UNL     1      43.504 -17.905   2.840  1.00  0.00     0.012 A 
HETATM   17  N   UNL     1      43.409 -15.919   3.760  1.00  0.00    -0.277 N 
HETATM   18  C   UNL     1      43.250 -16.882   1.900  1.00  0.00     0.152 A 
HETATM   19  C   UNL     1      43.653 -19.301   2.800  1.00  0.00     0.015 A 
HETATM   20  N   UNL     1      43.199 -15.668   2.454  1.00  0.00    -0.186 NA
HETATM   21  C   UNL     1      43.914 -19.978   3.994  1.00  0.00     0.002 A 
HETATM   22  C   UNL     1      44.029 -19.283   5.201  1.00  0.00     0.011 A 
HETATM   23  H   UNL     1      43.398 -15.156   4.431  1.00  0.00     0.189 HD
ENDBRANCH  13  14
ENDBRANCH   1  13
TORSDOF 5
ENDMDL
MODEL 8
REMARK VINA RESULT:      -7.2      1.600      1.888
REMARK  5 active torsions:
REMARK  status: ('A' for Active; 'I' for Inactive)
REMARK    1  A    between atoms: C_2  and  O_3 
REMARK    2  A    between atoms: C_2  and  C_5 
REMARK    3  A    between atoms: C_7  and  N_8 
REMARK    4  A    between atoms: N_8  and  C_9 
REMARK    5  A    between atoms: C_9  and  C_10 
ROOT
HETATM    1  N   UNL     1      41.832 -14.337   0.820  1.00  0.00    -0.289 NA
HETATM    2  H   UNL     1      41.301 -14.781   0.072  1.00  0.00     0.128 HD
ENDROOT
BRANCH   1   3
HETATM    3  C   UNL     1      41.893 -15.191   1.936  1.00  0.00     0.009 A 
HETATM    4  C   UNL     1      42.816 -16.250   1.917  1.00  0.00     0.033 A 
HETATM    5  C   UNL     1      42.991 -17.112   3.018  1.00  0.00    -0.028 A 
HETATM    6  C   UNL     1      42.216 -16.891   4.161  1.00  0.00     0.010 A 
HETATM    7  C   UNL     1      41.339 -15.808   4.221  1.00  0.00     0.002 A 
HETATM    8  C   UNL     1      41.199 -14.954   3.125  1.00  0.00     0.023 A 
BRANCH   5   9
HETATM    9  C   UNL     1      43.972 -18.265   2.913  1.00  0.00     0.149 C 
HETATM   10  C   UNL     1      44.448 -18.789   4.269  1.00  0.00     0.045 C 
BRANCH   9  11
HETATM   11  O   UNL     1      43.318 -19.299   2.174  1.00  0.00    -0.386 OA
HETATM   12  C   UNL     1      43.682 -20.607   2.591  1.00  0.00     0.202 C 
ENDBRANCH   9  11
ENDBRANCH   5   9
ENDBRANCH   1   3
BRANCH   1  13
HETATM   13  C   UNL     1      41.364 -12.959   1.020  1.00  0.00     0.133 C 
BRANCH  13  14
HETATM   14  C   UNL     1      40.130 -12.624   0.211  1.00  0.00    -0.016 A 
HETATM   15  C   UNL     1      39.887 -13.020  -1.116  1.00  0.00     0.069 A 
HETATM   16  C   UNL     1      38.720 -12.734  -1.814  1.00  0.00     0.012 A 
HETATM   17  N   UNL     1      40.666 -13.724  -2.000  1.00  0.00    -0.277 N 
HETATM   18  C   UNL     1      38.910 -13.328  -3.082  1.00  0.00     0.152 A 
HETATM   19  C   UNL     1      37.704 -11.998  -1.184  1.00  0.00     0.015 A 
HETATM   20  N   UNL     1      40.091 -13.940  -3.199  1.00  0.00    -0.186 NA
HETATM   21  C   UNL     1      37.904 -11.580   0.135  1.00  0.00     0.002 A 
HETATM   22  C   UNL     1      39.086 -11.888   0.813  1.00  0.00     0.011 A 
HETATM   23  H   UNL     1      41.604 -14.069  -1.819  1.00  0.00     0.189 HD
ENDBRANCH  13  14
ENDBRANCH   1  13
TORSDOF 5
ENDMDL
MODEL 9
REMARK VINA RESULT:      -7.2      1.748      2.284
REMARK  5 active torsions:
REMARK  status: ('A' for Active; 'I' for Inactive)
REMARK    1  A    between atoms: C_2  and  O_3 
REMARK    2  A    between atoms: C_2  and  C_5 
REMARK    3  A    between atoms: C_7  and  N_8 
REMARK    4  A    between atoms: N_8  and  C_9 
REMARK    5  A    between atoms: C_9  and  C_10 
ROOT
HETATM    1  N   UNL     1      39.809 -15.335   1.455  1.00  0.00    -0.289 NA
HETATM    2  H   UNL     1      39.166 -14.610   1.772  1.00  0.00     0.128 HD
ENDROOT
BRANCH   1   3
HETATM    3  C   UNL     1      40.617 -15.759   2.525  1.00  0.00     0.009 A 
HETATM    4  C   UNL     1      41.665 -16.655   2.257  1.00  0.00     0.033 A 
HETATM    5  C   UNL     1      42.565 -17.077   3.256  1.00  0.00    -0.028 A 
HETATM    6  C   UNL     1      42.398 -16.577   4.551  1.00  0.00     0.010 A 
HETATM    7  C   UNL     1      41.402 -15.639   4.823  1.00  0.00     0.002 A 
HETATM    8  C   UNL     1      40.536 -15.219   3.811  1.00  0.00     0.023 A 
BRANCH   5   9
HETATM    9  C   UNL     1      43.646 -18.083   2.908  1.00  0.00     0.149 C 
HETATM   10  C   UNL     1      44.210 -18.821   4.123  1.00  0.00     0.045 C 
BRANCH   9  11
HETATM   11  O   UNL     1      43.070 -19.007   1.980  1.00  0.00    -0.386 OA
HETATM   12  C   UNL     1      43.473 -20.351   2.197  1.00  0.00     0.202 C 
ENDBRANCH   9  11
ENDBRANCH   5   9
ENDBRANCH   1   3
BRANCH   1  13
HETATM   13  C   UNL     1      40.462 -14.919   0.207  1.00  0.00     0.133 C 
BRANCH  13  14
HETATM   14  C   UNL     1      39.540 -14.169  -0.730  1.00  0.00    -0.016 A 
HETATM   15  C   UNL     1      38.798 -13.020  -0.404  1.00  0.00     0.069 A 
HETATM   16  C   UNL     1      37.997 -12.328  -1.303  1.00  0.00     0.012 A 
HETATM   17  N   UNL     1      38.671 -12.338   0.781  1.00  0.00    -0.277 N 
HETATM   18  C   UNL     1      37.465 -11.255  -0.554  1.00  0.00     0.152 A 
HETATM   19  C   UNL     1      37.895 -12.786  -2.627  1.00  0.00     0.015 A 
HETATM   20  N   UNL     1      37.879 -11.252   0.715  1.00  0.00    -0.186 NA
HETATM   21  C   UNL     1      38.612 -13.928  -2.995  1.00  0.00     0.002 A 
HETATM   22  C   UNL     1      39.415 -14.598  -2.069  1.00  0.00     0.011 A 
HETATM   23  H   UNL     1      39.110 -12.593   1.661  1.00  0.00     0.189 HD
ENDBRANCH  13  14
ENDBRANCH   1  13
TORSDOF 5
ENDMDL
MODEL 10
REMARK VINA RESULT:      -7.2      5.627      8.168
REMARK  5 active torsions:
REMARK  status: ('A' for Active; 'I' for Inactive)
REMARK    1  A    between atoms: C_2  and  O_3 
REMARK    2  A    between atoms: C_2  and  C_5 
REMARK    3  A    between atoms: C_7  and  N_8 
REMARK    4  A    between atoms: N_8  and  C_9 
REMARK    5  A    between atoms: C_9  and  C_10 
ROOT
HETATM    1  N   UNL     1      43.574 -13.205   7.460  1.00  0.00    -0.289 NA
HETATM    2  H   UNL     1      43.872 -13.374   8.420  1.00  0.00     0.128 HD
ENDROOT
BRANCH   1   3
HETATM    3  C   UNL     1      43.173 -14.414   6.864  1.00  0.00     0.009 A 
HETATM    4  C   UNL     1      43.236 -14.523   5.464  1.00  0.00     0.033 A 
HETATM    5  C   UNL     1      42.918 -15.718   4.791  1.00  0.00    -0.028 A 
HETATM    6  C   UNL     1      42.533 -16.826   5.553  1.00  0.00     0.010 A 
HETATM    7  C   UNL     1      42.525 -16.756   6.946  1.00  0.00     0.002 A 
HETATM    8  C   UNL     1      42.864 -15.565   7.593  1.00  0.00     0.023 A 
BRANCH   5   9
HETATM    9  C   UNL     1      42.962 -15.753   3.274  1.00  0.00     0.149 C 
HETATM   10  C   UNL     1      43.128 -17.160   2.698  1.00  0.00     0.045 C 
BRANCH   9  11
HETATM   11  O   UNL     1      41.747 -15.159   2.811  1.00  0.00    -0.386 OA
HETATM   12  C   UNL     1      40.934 -16.050   2.060  1.00  0.00     0.202 C 
ENDBRANCH   9  11
ENDBRANCH   5   9
ENDBRANCH   1   3
BRANCH   1  13
HETATM   13  C   UNL     1      44.568 -12.378   6.762  1.00  0.00     0.133 C 
BRANCH  13  14
HETATM   14  C   UNL     1      44.738 -11.004   7.375  1.00  0.00    -0.016 A 
HETATM   15  C   UNL     1      43.700 -10.178   7.839  1.00  0.00     0.069 A 
HETATM   16  C   UNL     1      43.896  -8.942   8.441  1.00  0.00     0.012 A 
HETATM   17  N   UNL     1      42.338 -10.350   7.819  1.00  0.00    -0.277 N 
HETATM   18  C   UNL     1      42.595  -8.485   8.749  1.00  0.00     0.152 A 
HETATM   19  C   UNL     1      45.204  -8.456   8.603  1.00  0.00     0.015 A 
HETATM   20  N   UNL     1      41.642  -9.344   8.380  1.00  0.00    -0.186 NA
HETATM   21  C   UNL     1      46.268  -9.242   8.153  1.00  0.00     0.002 A 
HETATM   22  C   UNL     1      46.038 -10.485   7.557  1.00  0.00     0.011 A 
HETATM   23  H   UNL     1      41.847 -11.146   7.421  1.00  0.00     0.189 HD
ENDBRANCH  13  14
ENDBRANCH   1  13
TORSDOF 5
ENDMDL
