MODEL 1
REMARK VINA RESULT:      -9.4      0.000      0.000
REMARK  8 active torsions:
REMARK  status: ('A' for Active; 'I' for Inactive)
REMARK    1  A    between atoms: C_3  and  N_4 
REMARK       I    between atoms: N_4  and  C_5 
REMARK    2  A    between atoms: C_5  and  C_6 
REMARK    3  A    between atoms: C_7  and  C_8 
REMARK    4  A    between atoms: C_11  and  C_12 
REMARK    5  A    between atoms: C_21  and  C_22 
REMARK    6  A    between atoms: C_22  and  C_23 
REMARK    7  A    between atoms: C_23  and  C_24 
REMARK    8  A    between atoms: C_24  and  O_25 
ROOT
HETATM    1  C   UNL     1      40.890 -12.439   3.090  1.00  0.00     0.062 A 
HETATM    2  C   UNL     1      42.387 -12.725   3.111  1.00  0.00     0.202 A 
HETATM    3  N   UNL     1      43.035 -12.097   4.271  1.00  0.00    -0.083 N 
HETATM    4  C   UNL     1      42.383 -11.292   5.167  1.00  0.00     0.726 A 
HETATM    5  N   UNL     1      41.063 -11.074   5.024  1.00  0.00    -0.192 N 
HETATM    6  N   UNL     1      44.365 -12.112   4.508  1.00  0.00    -0.140 NA
HETATM    7  C   UNL     1      44.428 -11.381   5.631  1.00  0.00     0.166 A 
HETATM    8  N   UNL     1      43.234 -10.845   6.053  1.00  0.00    -0.046 NA
HETATM    9  C   UNL     1      40.296 -11.653   4.021  1.00  0.00     0.037 A 
HETATM   10  C   UNL     1      38.821 -11.337   4.056  1.00  0.00     0.070 C 
HETATM   11  H   UNL     1      40.582 -10.517   5.725  1.00  0.00     0.184 HD
ENDROOT
BRANCH   1  12
HETATM   12  C   UNL     1      40.069 -13.161   2.085  1.00  0.00     0.256 C 
HETATM   13  N   UNL     1      40.070 -12.549   0.849  1.00  0.00    -0.323 N 
HETATM   14  H   UNL     1      40.533 -11.656   0.779  1.00  0.00     0.169 HD
HETATM   15  O   UNL     1      39.462 -14.168   2.424  1.00  0.00    -0.267 OA
BRANCH  13  16
HETATM   16  C   UNL     1      39.440 -13.013  -0.334  1.00  0.00     0.041 A 
HETATM   17  C   UNL     1      38.329 -12.302  -0.842  1.00  0.00    -0.035 A 
HETATM   18  C   UNL     1      37.786 -11.066  -0.178  1.00  0.00     0.050 C 
HETATM   19  C   UNL     1      37.706 -12.747  -2.023  1.00  0.00     0.009 A 
HETATM   20  C   UNL     1      38.164 -13.879  -2.693  1.00  0.00     0.001 A 
HETATM   21  C   UNL     1      39.257 -14.576  -2.196  1.00  0.00     0.002 A 
HETATM   22  C   UNL     1      39.890 -14.143  -1.028  1.00  0.00     0.030 A 
ENDBRANCH  13  16
ENDBRANCH   1  12
BRANCH   2  23
HETATM   23  C   UNL     1      42.727 -14.206   3.029  1.00  0.00    -0.028 A 
HETATM   24  C   UNL     1      42.628 -15.008   4.176  1.00  0.00     0.010 A 
HETATM   25  C   UNL     1      42.991 -16.356   4.139  1.00  0.00     0.008 A 
HETATM   26  C   UNL     1      43.461 -16.939   2.955  1.00  0.00    -0.055 A 
HETATM   27  C   UNL     1      43.544 -16.143   1.804  1.00  0.00     0.008 A 
HETATM   28  C   UNL     1      43.179 -14.794   1.838  1.00  0.00     0.010 A 
BRANCH  26  29
HETATM   29  C   UNL     1      43.885 -18.397   2.951  1.00  0.00     0.010 C 
HETATM   30  C   UNL     1      44.065 -18.944   4.368  1.00  0.00     0.015 C 
HETATM   31  C   UNL     1      42.903 -19.257   2.152  1.00  0.00     0.015 C 
ENDBRANCH  26  29
ENDBRANCH   2  23
BRANCH   7  32
HETATM   32  C   UNL     1      45.694 -11.161   6.375  1.00  0.00     0.085 C 
BRANCH  32  33
HETATM   33  C   UNL     1      45.472 -10.824   7.848  1.00  0.00     0.034 C 
BRANCH  33  34
HETATM   34  C   UNL     1      45.837  -9.385   8.192  1.00  0.00     0.164 C 
BRANCH  34  35
HETATM   35  O   UNL     1      46.971  -8.986   7.427  1.00  0.00    -0.401 OA
HETATM   36  H   UNL     1      47.023  -9.570   6.652  1.00  0.00     0.209 HD
ENDBRANCH  34  35
ENDBRANCH  33  34
ENDBRANCH  32  33
ENDBRANCH   7  32
TORSDOF 8
ENDMDL
MODEL 2
REMARK VINA RESULT:      -8.9      2.111      7.380
REMARK  8 active torsions:
REMARK  status: ('A' for Active; 'I' for Inactive)
REMARK    1  A    between atoms: C_3  and  N_4 
REMARK       I    between atoms: N_4  and  C_5 
REMARK    2  A    between atoms: C_5  and  C_6 
REMARK    3  A    between atoms: C_7  and  C_8 
REMARK    4  A    between atoms: C_11  and  C_12 
REMARK    5  A    between atoms: C_21  and  C_22 
REMARK    6  A    between atoms: C_22  and  C_23 
REMARK    7  A    between atoms: C_23  and  C_24 
REMARK    8  A    between atoms: C_24  and  O_25 
ROOT
HETATM    1  C   UNL     1      40.565 -12.396   2.252  1.00  0.00     0.062 A 
HETATM    2  C   UNL     1      40.190 -13.708   1.573  1.00  0.00     0.202 A 
HETATM    3  N   UNL     1      40.030 -13.532   0.122  1.00  0.00    -0.083 N 
HETATM    4  C   UNL     1      40.127 -12.325  -0.516  1.00  0.00     0.726 A 
HETATM    5  N   UNL     1      40.421 -11.221   0.195  1.00  0.00    -0.192 N 
HETATM    6  N   UNL     1      39.623 -14.501  -0.728  1.00  0.00    -0.140 NA
HETATM    7  C   UNL     1      39.601 -13.825  -1.886  1.00  0.00     0.166 A 
HETATM    8  N   UNL     1      39.885 -12.483  -1.791  1.00  0.00    -0.046 NA
HETATM    9  C   UNL     1      40.670 -11.235   1.561  1.00  0.00     0.037 A 
HETATM   10  C   UNL     1      41.041  -9.907   2.175  1.00  0.00     0.070 C 
HETATM   11  H   UNL     1      40.541 -10.341  -0.299  1.00  0.00     0.184 HD
ENDROOT
BRANCH   1  12
HETATM   12  C   UNL     1      40.944 -12.452   3.686  1.00  0.00     0.256 C 
HETATM   13  N   UNL     1      42.259 -12.101   3.910  1.00  0.00    -0.323 N 
HETATM   14  H   UNL     1      42.835 -11.939   3.099  1.00  0.00     0.169 HD
HETATM   15  O   UNL     1      40.114 -12.818   4.507  1.00  0.00    -0.267 OA
BRANCH  13  16
HETATM   16  C   UNL     1      42.913 -11.994   5.164  1.00  0.00     0.041 A 
HETATM   17  C   UNL     1      43.329 -13.173   5.822  1.00  0.00    -0.035 A 
HETATM   18  C   UNL     1      43.107 -14.545   5.244  1.00  0.00     0.050 C 
HETATM   19  C   UNL     1      43.990 -13.076   7.061  1.00  0.00     0.009 A 
HETATM   20  C   UNL     1      44.235 -11.837   7.648  1.00  0.00     0.001 A 
HETATM   21  C   UNL     1      43.829 -10.678   7.000  1.00  0.00     0.002 A 
HETATM   22  C   UNL     1      43.176 -10.758   5.767  1.00  0.00     0.030 A 
ENDBRANCH  13  16
ENDBRANCH   1  12
BRANCH   2  23
HETATM   23  C   UNL     1      41.145 -14.852   1.882  1.00  0.00    -0.028 A 
HETATM   24  C   UNL     1      40.711 -15.929   2.670  1.00  0.00     0.010 A 
HETATM   25  C   UNL     1      41.586 -16.960   3.015  1.00  0.00     0.008 A 
HETATM   26  C   UNL     1      42.918 -16.945   2.582  1.00  0.00    -0.055 A 
HETATM   27  C   UNL     1      43.348 -15.878   1.780  1.00  0.00     0.008 A 
HETATM   28  C   UNL     1      42.473 -14.845   1.430  1.00  0.00     0.010 A 
BRANCH  26  29
HETATM   29  C   UNL     1      43.860 -18.058   3.003  1.00  0.00     0.010 C 
HETATM   30  C   UNL     1      43.966 -18.173   4.525  1.00  0.00     0.015 C 
HETATM   31  C   UNL     1      43.450 -19.395   2.380  1.00  0.00     0.015 C 
ENDBRANCH  26  29
ENDBRANCH   2  23
BRANCH   7  32
HETATM   32  C   UNL     1      39.296 -14.473  -3.187  1.00  0.00     0.085 C 
BRANCH  32  33
HETATM   33  C   UNL     1      37.817 -14.400  -3.559  1.00  0.00     0.034 C 
BRANCH  33  34
HETATM   34  C   UNL     1      37.053 -13.347  -2.765  1.00  0.00     0.164 C 
BRANCH  34  35
HETATM   35  O   UNL     1      37.200 -12.077  -3.394  1.00  0.00    -0.401 OA
HETATM   36  H   UNL     1      38.109 -11.774  -3.236  1.00  0.00     0.209 HD
ENDBRANCH  34  35
ENDBRANCH  33  34
ENDBRANCH  32  33
ENDBRANCH   7  32
TORSDOF 8
ENDMDL
MODEL 3
REMARK VINA RESULT:      -8.6      2.872      6.730
REMARK  8 active torsions:
REMARK  status: ('A' for Active; 'I' for Inactive)
REMARK    1  A    between atoms: C_3  and  N_4 
REMARK       I    between atoms: N_4  and  C_5 
REMARK    2  A    between atoms: C_5  and  C_6 
REMARK    3  A    between atoms: C_7  and  C_8 
REMARK    4  A    between atoms: C_11  and  C_12 
REMARK    5  A    between atoms: C_21  and  C_22 
REMARK    6  A    between atoms: C_22  and  C_23 
REMARK    7  A    between atoms: C_23  and  C_24 
REMARK    8  A    between atoms: C_24  and  O_25 
ROOT
HETATM    1  C   UNL     1      41.453 -13.779   2.040  1.00  0.00     0.062 A 
HETATM    2  C   UNL     1      41.788 -12.329   2.369  1.00  0.00     0.202 A 
HETATM    3  N   UNL     1      40.587 -11.482   2.333  1.00  0.00    -0.083 N 
HETATM    4  C   UNL     1      39.346 -11.932   1.970  1.00  0.00     0.726 A 
HETATM    5  N   UNL     1      39.176 -13.230   1.656  1.00  0.00    -0.192 N 
HETATM    6  N   UNL     1      40.588 -10.142   2.505  1.00  0.00    -0.140 NA
HETATM    7  C   UNL     1      39.286  -9.867   2.335  1.00  0.00     0.166 A 
HETATM    8  N   UNL     1      38.498 -10.938   1.986  1.00  0.00    -0.046 NA
HETATM    9  C   UNL     1      40.198 -14.169   1.711  1.00  0.00     0.037 A 
HETATM   10  C   UNL     1      39.804 -15.588   1.380  1.00  0.00     0.070 C 
HETATM   11  H   UNL     1      38.241 -13.561   1.438  1.00  0.00     0.184 HD
ENDROOT
BRANCH   1  12
HETATM   12  C   UNL     1      42.528 -14.787   2.221  1.00  0.00     0.256 C 
HETATM   13  N   UNL     1      42.214 -15.750   3.157  1.00  0.00    -0.323 N 
HETATM   14  H   UNL     1      41.357 -15.624   3.674  1.00  0.00     0.169 HD
HETATM   15  O   UNL     1      43.567 -14.670   1.584  1.00  0.00    -0.267 OA
BRANCH  13  16
HETATM   16  C   UNL     1      42.992 -16.879   3.516  1.00  0.00     0.041 A 
HETATM   17  C   UNL     1      43.645 -16.889   4.770  1.00  0.00    -0.035 A 
HETATM   18  C   UNL     1      43.546 -15.747   5.745  1.00  0.00     0.050 C 
HETATM   19  C   UNL     1      44.410 -18.011   5.141  1.00  0.00     0.009 A 
HETATM   20  C   UNL     1      44.536 -19.106   4.290  1.00  0.00     0.001 A 
HETATM   21  C   UNL     1      43.892 -19.098   3.060  1.00  0.00     0.002 A 
HETATM   22  C   UNL     1      43.125 -17.994   2.679  1.00  0.00     0.030 A 
ENDBRANCH  13  16
ENDBRANCH   1  12
BRANCH   2  23
HETATM   23  C   UNL     1      42.538 -12.157   3.682  1.00  0.00    -0.028 A 
HETATM   24  C   UNL     1      41.888 -12.423   4.897  1.00  0.00     0.010 A 
HETATM   25  C   UNL     1      42.539 -12.217   6.115  1.00  0.00     0.008 A 
HETATM   26  C   UNL     1      43.856 -11.742   6.153  1.00  0.00    -0.055 A 
HETATM   27  C   UNL     1      44.512 -11.493   4.940  1.00  0.00     0.008 A 
HETATM   28  C   UNL     1      43.864 -11.700   3.718  1.00  0.00     0.010 A 
BRANCH  26  29
HETATM   29  C   UNL     1      44.527 -11.490   7.491  1.00  0.00     0.010 C 
HETATM   30  C   UNL     1      45.956 -10.971   7.326  1.00  0.00     0.015 C 
HETATM   31  C   UNL     1      43.696 -10.539   8.357  1.00  0.00     0.015 C 
ENDBRANCH  26  29
ENDBRANCH   2  23
BRANCH   7  32
HETATM   32  C   UNL     1      38.725  -8.503   2.513  1.00  0.00     0.085 C 
BRANCH  32  33
HETATM   33  C   UNL     1      38.857  -7.983   3.942  1.00  0.00     0.034 C 
BRANCH  33  34
HETATM   34  C   UNL     1      37.547  -8.033   4.719  1.00  0.00     0.164 C 
BRANCH  34  35
HETATM   35  O   UNL     1      37.407  -9.312   5.333  1.00  0.00    -0.401 OA
HETATM   36  H   UNL     1      37.498  -9.983   4.637  1.00  0.00     0.209 HD
ENDBRANCH  34  35
ENDBRANCH  33  34
ENDBRANCH  32  33
ENDBRANCH   7  32
TORSDOF 8
ENDMDL
MODEL 4
REMARK VINA RESULT:      -8.5      2.398      5.887
REMARK  8 active torsions:
REMARK  status: ('A' for Active; 'I' for Inactive)
REMARK    1  A    between atoms: C_3  and  N_4 
REMARK       I    between atoms: N_4  and  C_5 
REMARK    2  A    between atoms: C_5  and  C_6 
REMARK    3  A    between atoms: C_7  and  C_8 
REMARK    4  A    between atoms: C_11  and  C_12 
REMARK    5  A    between atoms: C_21  and  C_22 
REMARK    6  A    between atoms: C_22  and  C_23 
REMARK    7  A    between atoms: C_23  and  C_24 
REMARK    8  A    between atoms: C_24  and  O_25 
ROOT
HETATM    1  C   UNL     1      42.469 -14.885   5.783  1.00  0.00     0.062 A 
HETATM    2  C   UNL     1      41.532 -13.793   5.280  1.00  0.00     0.202 A 
HETATM    3  N   UNL     1      41.977 -12.463   5.717  1.00  0.00    -0.083 N 
HETATM    4  C   UNL     1      43.050 -12.249   6.541  1.00  0.00     0.726 A 
HETATM    5  N   UNL     1      43.783 -13.296   6.961  1.00  0.00    -0.192 N 
HETATM    6  N   UNL     1      41.301 -11.314   5.489  1.00  0.00    -0.140 NA
HETATM    7  C   UNL     1      42.091 -10.430   6.118  1.00  0.00     0.166 A 
HETATM    8  N   UNL     1      43.161 -10.970   6.791  1.00  0.00    -0.046 NA
HETATM    9  C   UNL     1      43.533 -14.607   6.577  1.00  0.00     0.037 A 
HETATM   10  C   UNL     1      44.497 -15.641   7.103  1.00  0.00     0.070 C 
HETATM   11  H   UNL     1      44.606 -13.119   7.529  1.00  0.00     0.184 HD
ENDROOT
BRANCH   1  12
HETATM   12  C   UNL     1      42.258 -16.260   5.267  1.00  0.00     0.256 C 
HETATM   13  N   UNL     1      43.339 -16.743   4.559  1.00  0.00    -0.323 N 
HETATM   14  H   UNL     1      44.099 -16.101   4.389  1.00  0.00     0.169 HD
HETATM   15  O   UNL     1      41.186 -16.814   5.470  1.00  0.00    -0.267 OA
BRANCH  13  16
HETATM   16  C   UNL     1      43.481 -18.034   3.991  1.00  0.00     0.041 A 
HETATM   17  C   UNL     1      43.138 -18.226   2.634  1.00  0.00    -0.035 A 
HETATM   18  C   UNL     1      42.629 -17.112   1.761  1.00  0.00     0.050 C 
HETATM   19  C   UNL     1      43.288 -19.502   2.058  1.00  0.00     0.009 A 
HETATM   20  C   UNL     1      43.763 -20.576   2.807  1.00  0.00     0.001 A 
HETATM   21  C   UNL     1      44.103 -20.386   4.140  1.00  0.00     0.002 A 
HETATM   22  C   UNL     1      43.965 -19.125   4.724  1.00  0.00     0.030 A 
ENDBRANCH  13  16
ENDBRANCH   1  12
BRANCH   2  23
HETATM   23  C   UNL     1      41.308 -13.826   3.775  1.00  0.00    -0.028 A 
HETATM   24  C   UNL     1      42.354 -13.478   2.906  1.00  0.00     0.010 A 
HETATM   25  C   UNL     1      42.154 -13.446   1.524  1.00  0.00     0.008 A 
HETATM   26  C   UNL     1      40.906 -13.762   0.973  1.00  0.00    -0.055 A 
HETATM   27  C   UNL     1      39.865 -14.127   1.839  1.00  0.00     0.008 A 
HETATM   28  C   UNL     1      40.063 -14.163   3.223  1.00  0.00     0.010 A 
BRANCH  26  29
HETATM   29  C   UNL     1      40.704 -13.682  -0.529  1.00  0.00     0.010 C 
HETATM   30  C   UNL     1      39.475 -14.470  -0.985  1.00  0.00     0.015 C 
HETATM   31  C   UNL     1      40.628 -12.227  -1.001  1.00  0.00     0.015 C 
ENDBRANCH  26  29
ENDBRANCH   2  23
BRANCH   7  32
HETATM   32  C   UNL     1      41.835  -8.968   6.093  1.00  0.00     0.085 C 
BRANCH  32  33
HETATM   33  C   UNL     1      42.156  -8.282   7.419  1.00  0.00     0.034 C 
BRANCH  33  34
HETATM   34  C   UNL     1      41.182  -8.649   8.533  1.00  0.00     0.164 C 
BRANCH  34  35
HETATM   35  O   UNL     1      41.741  -9.691   9.329  1.00  0.00    -0.401 OA
HETATM   36  H   UNL     1      41.811  -9.359  10.239  1.00  0.00     0.209 HD
ENDBRANCH  34  35
ENDBRANCH  33  34
ENDBRANCH  32  33
ENDBRANCH   7  32
TORSDOF 8
ENDMDL
MODEL 5
REMARK VINA RESULT:      -8.5      2.809      6.147
REMARK  8 active torsions:
REMARK  status: ('A' for Active; 'I' for Inactive)
REMARK    1  A    between atoms: C_3  and  N_4 
REMARK       I    between atoms: N_4  and  C_5 
REMARK    2  A    between atoms: C_5  and  C_6 
REMARK    3  A    between atoms: C_7  and  C_8 
REMARK    4  A    between atoms: C_11  and  C_12 
REMARK    5  A    between atoms: C_21  and  C_22 
REMARK    6  A    between atoms: C_22  and  C_23 
REMARK    7  A    between atoms: C_23  and  C_24 
REMARK    8  A    between atoms: C_24  and  O_25 
ROOT
HETATM    1  C   UNL     1      41.704 -13.957   5.596  1.00  0.00     0.062 A 
HETATM    2  C   UNL     1      40.708 -13.036   4.901  1.00  0.00     0.202 A 
HETATM    3  N   UNL     1      40.940 -11.630   5.258  1.00  0.00    -0.083 N 
HETATM    4  C   UNL     1      41.881 -11.218   6.164  1.00  0.00     0.726 A 
HETATM    5  N   UNL     1      42.679 -12.128   6.751  1.00  0.00    -0.192 N 
HETATM    6  N   UNL     1      40.165 -10.598   4.858  1.00  0.00    -0.140 NA
HETATM    7  C   UNL     1      40.768  -9.575   5.481  1.00  0.00     0.166 A 
HETATM    8  N   UNL     1      41.812  -9.920   6.307  1.00  0.00    -0.046 NA
HETATM    9  C   UNL     1      42.630 -13.486   6.465  1.00  0.00     0.037 A 
HETATM   10  C   UNL     1      43.644 -14.345   7.180  1.00  0.00     0.070 C 
HETATM   11  H   UNL     1      43.407 -11.804   7.383  1.00  0.00     0.184 HD
ENDROOT
BRANCH   1  12
HETATM   12  C   UNL     1      41.716 -15.385   5.188  1.00  0.00     0.256 C 
HETATM   13  N   UNL     1      42.858 -15.741   4.503  1.00  0.00    -0.323 N 
HETATM   14  H   UNL     1      43.504 -15.001   4.273  1.00  0.00     0.169 HD
HETATM   15  O   UNL     1      40.747 -16.086   5.448  1.00  0.00    -0.267 OA
BRANCH  13  16
HETATM   16  C   UNL     1      43.205 -17.033   4.032  1.00  0.00     0.041 A 
HETATM   17  C   UNL     1      42.775 -17.431   2.747  1.00  0.00    -0.035 A 
HETATM   18  C   UNL     1      41.961 -16.536   1.851  1.00  0.00     0.050 C 
HETATM   19  C   UNL     1      43.125 -18.707   2.266  1.00  0.00     0.009 A 
HETATM   20  C   UNL     1      43.884 -19.581   3.040  1.00  0.00     0.001 A 
HETATM   21  C   UNL     1      44.309 -19.189   4.302  1.00  0.00     0.002 A 
HETATM   22  C   UNL     1      43.974 -17.924   4.791  1.00  0.00     0.030 A 
ENDBRANCH  13  16
ENDBRANCH   1  12
BRANCH   2  23
HETATM   23  C   UNL     1      40.661 -13.215   3.390  1.00  0.00    -0.028 A 
HETATM   24  C   UNL     1      41.751 -12.809   2.605  1.00  0.00     0.010 A 
HETATM   25  C   UNL     1      41.707 -12.910   1.213  1.00  0.00     0.008 A 
HETATM   26  C   UNL     1      40.573 -13.421   0.568  1.00  0.00    -0.055 A 
HETATM   27  C   UNL     1      39.491 -13.844   1.352  1.00  0.00     0.008 A 
HETATM   28  C   UNL     1      39.533 -13.746   2.746  1.00  0.00     0.010 A 
BRANCH  26  29
HETATM   29  C   UNL     1      40.536 -13.485  -0.948  1.00  0.00     0.010 C 
HETATM   30  C   UNL     1      39.367 -14.331  -1.457  1.00  0.00     0.015 C 
HETATM   31  C   UNL     1      40.504 -12.082  -1.561  1.00  0.00     0.015 C 
ENDBRANCH  26  29
ENDBRANCH   2  23
BRANCH   7  32
HETATM   32  C   UNL     1      40.347  -8.163   5.297  1.00  0.00     0.085 C 
BRANCH  32  33
HETATM   33  C   UNL     1      39.075  -7.812   6.066  1.00  0.00     0.034 C 
BRANCH  33  34
HETATM   34  C   UNL     1      37.815  -7.922   5.216  1.00  0.00     0.164 C 
BRANCH  34  35
HETATM   35  O   UNL     1      37.311  -9.253   5.281  1.00  0.00    -0.401 OA
HETATM   36  H   UNL     1      37.567  -9.622   6.142  1.00  0.00     0.209 HD
ENDBRANCH  34  35
ENDBRANCH  33  34
ENDBRANCH  32  33
ENDBRANCH   7  32
TORSDOF 8
ENDMDL
MODEL 6
REMARK VINA RESULT:      -8.1      2.414      6.541
REMARK  8 active torsions:
REMARK  status: ('A' for Active; 'I' for Inactive)
REMARK    1  A    between atoms: C_3  and  N_4 
REMARK       I    between atoms: N_4  and  C_5 
REMARK    2  A    between atoms: C_5  and  C_6 
REMARK    3  A    between atoms: C_7  and  C_8 
REMARK    4  A    between atoms: C_11  and  C_12 
REMARK    5  A    between atoms: C_21  and  C_22 
REMARK    6  A    between atoms: C_22  and  C_23 
REMARK    7  A    between atoms: C_23  and  C_24 
REMARK    8  A    between atoms: C_24  and  O_25 
ROOT
HETATM    1  C   UNL     1      42.107 -13.044   3.903  1.00  0.00     0.062 A 
HETATM    2  C   UNL     1      40.701 -12.764   3.386  1.00  0.00     0.202 A 
HETATM    3  N   UNL     1      40.198 -11.472   3.876  1.00  0.00    -0.083 N 
HETATM    4  C   UNL     1      40.881 -10.669   4.750  1.00  0.00     0.726 A 
HETATM    5  N   UNL     1      42.103 -11.040   5.175  1.00  0.00    -0.192 N 
HETATM    6  N   UNL     1      38.954 -10.996   3.648  1.00  0.00    -0.140 NA
HETATM    7  C   UNL     1      38.998  -9.843   4.332  1.00  0.00     0.166 A 
HETATM    8  N   UNL     1      40.157  -9.619   5.037  1.00  0.00    -0.046 NA
HETATM    9  C   UNL     1      42.743 -12.196   4.749  1.00  0.00     0.037 A 
HETATM   10  C   UNL     1      44.134 -12.415   5.290  1.00  0.00     0.070 C 
HETATM   11  H   UNL     1      42.619 -10.410   5.783  1.00  0.00     0.184 HD
ENDROOT
BRANCH   1  12
HETATM   12  C   UNL     1      42.821 -14.219   3.344  1.00  0.00     0.256 C 
HETATM   13  N   UNL     1      42.553 -15.387   4.026  1.00  0.00    -0.323 N 
HETATM   14  H   UNL     1      41.994 -15.312   4.863  1.00  0.00     0.169 HD
HETATM   15  O   UNL     1      43.576 -14.060   2.394  1.00  0.00    -0.267 OA
BRANCH  13  16
HETATM   16  C   UNL     1      43.023 -16.688   3.711  1.00  0.00     0.041 A 
HETATM   17  C   UNL     1      43.929 -17.319   4.593  1.00  0.00    -0.035 A 
HETATM   18  C   UNL     1      44.417 -16.667   5.858  1.00  0.00     0.050 C 
HETATM   19  C   UNL     1      44.391 -18.615   4.295  1.00  0.00     0.009 A 
HETATM   20  C   UNL     1      43.972 -19.280   3.145  1.00  0.00     0.001 A 
HETATM   21  C   UNL     1      43.079 -18.660   2.281  1.00  0.00     0.002 A 
HETATM   22  C   UNL     1      42.608 -17.377   2.565  1.00  0.00     0.030 A 
ENDBRANCH  13  16
ENDBRANCH   1  12
BRANCH   2  23
HETATM   23  C   UNL     1      40.575 -12.860   1.873  1.00  0.00    -0.028 A 
HETATM   24  C   UNL     1      40.002 -14.002   1.292  1.00  0.00     0.010 A 
HETATM   25  C   UNL     1      39.929 -14.137  -0.096  1.00  0.00     0.008 A 
HETATM   26  C   UNL     1      40.425 -13.136  -0.941  1.00  0.00    -0.055 A 
HETATM   27  C   UNL     1      40.982 -11.987  -0.361  1.00  0.00     0.008 A 
HETATM   28  C   UNL     1      41.054 -11.848   1.028  1.00  0.00     0.010 A 
BRANCH  26  29
HETATM   29  C   UNL     1      40.369 -13.326  -2.446  1.00  0.00     0.010 C 
HETATM   30  C   UNL     1      38.931 -13.452  -2.953  1.00  0.00     0.015 C 
HETATM   31  C   UNL     1      41.109 -12.201  -3.174  1.00  0.00     0.015 C 
ENDBRANCH  26  29
ENDBRANCH   2  23
BRANCH   7  32
HETATM   32  C   UNL     1      37.877  -8.869   4.332  1.00  0.00     0.085 C 
BRANCH  32  33
HETATM   33  C   UNL     1      38.331  -7.435   4.597  1.00  0.00     0.034 C 
BRANCH  33  34
HETATM   34  C   UNL     1      37.905  -6.916   5.965  1.00  0.00     0.164 C 
BRANCH  34  35
HETATM   35  O   UNL     1      38.384  -7.796   6.978  1.00  0.00    -0.401 OA
HETATM   36  H   UNL     1      39.306  -8.017   6.763  1.00  0.00     0.209 HD
ENDBRANCH  34  35
ENDBRANCH  33  34
ENDBRANCH  32  33
ENDBRANCH   7  32
TORSDOF 8
ENDMDL
MODEL 7
REMARK VINA RESULT:      -8.0     16.866     19.217
REMARK  8 active torsions:
REMARK  status: ('A' for Active; 'I' for Inactive)
REMARK    1  A    between atoms: C_3  and  N_4 
REMARK       I    between atoms: N_4  and  C_5 
REMARK    2  A    between atoms: C_5  and  C_6 
REMARK    3  A    between atoms: C_7  and  C_8 
REMARK    4  A    between atoms: C_11  and  C_12 
REMARK    5  A    between atoms: C_21  and  C_22 
REMARK    6  A    between atoms: C_22  and  C_23 
REMARK    7  A    between atoms: C_23  and  C_24 
REMARK    8  A    between atoms: C_24  and  O_25 
ROOT
HETATM    1  C   UNL     1      48.144 -30.000   1.191  1.00  0.00     0.062 A 
HETATM    2  C   UNL     1      48.669 -29.485  -0.145  1.00  0.00     0.202 A 
HETATM    3  N   UNL     1      49.864 -30.226  -0.572  1.00  0.00    -0.083 N 
HETATM    4  C   UNL     1      50.469 -31.198   0.180  1.00  0.00     0.726 A 
HETATM    5  N   UNL     1      49.940 -31.542   1.369  1.00  0.00    -0.192 N 
HETATM    6  N   UNL     1      50.591 -29.940  -1.675  1.00  0.00    -0.140 NA
HETATM    7  C   UNL     1      51.565 -30.857  -1.577  1.00  0.00     0.166 A 
HETATM    8  N   UNL     1      51.533 -31.633  -0.442  1.00  0.00    -0.046 NA
HETATM    9  C   UNL     1      48.775 -30.983   1.878  1.00  0.00     0.037 A 
HETATM   10  C   UNL     1      48.304 -31.537   3.200  1.00  0.00     0.070 C 
HETATM   11  H   UNL     1      50.370 -32.299   1.892  1.00  0.00     0.184 HD
ENDROOT
BRANCH   1  12
HETATM   12  C   UNL     1      46.836 -29.478   1.660  1.00  0.00     0.256 C 
HETATM   13  N   UNL     1      45.808 -30.383   1.506  1.00  0.00    -0.323 N 
HETATM   14  H   UNL     1      46.021 -31.242   1.022  1.00  0.00     0.169 HD
HETATM   15  O   UNL     1      46.772 -28.334   2.090  1.00  0.00    -0.267 OA
BRANCH  13  16
HETATM   16  C   UNL     1      44.458 -30.219   1.908  1.00  0.00     0.041 A 
HETATM   17  C   UNL     1      43.568 -29.531   1.052  1.00  0.00    -0.035 A 
HETATM   18  C   UNL     1      43.995 -28.964  -0.275  1.00  0.00     0.050 C 
HETATM   19  C   UNL     1      42.223 -29.375   1.437  1.00  0.00     0.009 A 
HETATM   20  C   UNL     1      41.759 -29.883   2.648  1.00  0.00     0.001 A 
HETATM   21  C   UNL     1      42.633 -30.562   3.487  1.00  0.00     0.002 A 
HETATM   22  C   UNL     1      43.969 -30.730   3.117  1.00  0.00     0.030 A 
ENDBRANCH  13  16
ENDBRANCH   1  12
BRANCH   2  23
HETATM   23  C   UNL     1      47.618 -29.462  -1.246  1.00  0.00    -0.028 A 
HETATM   24  C   UNL     1      47.130 -30.668  -1.770  1.00  0.00     0.010 A 
HETATM   25  C   UNL     1      46.209 -30.671  -2.820  1.00  0.00     0.008 A 
HETATM   26  C   UNL     1      45.749 -29.468  -3.373  1.00  0.00    -0.055 A 
HETATM   27  C   UNL     1      46.223 -28.262  -2.838  1.00  0.00     0.008 A 
HETATM   28  C   UNL     1      47.143 -28.256  -1.785  1.00  0.00     0.010 A 
BRANCH  26  29
HETATM   29  C   UNL     1      44.778 -29.499  -4.539  1.00  0.00     0.010 C 
HETATM   30  C   UNL     1      45.026 -30.696  -5.459  1.00  0.00     0.015 C 
HETATM   31  C   UNL     1      43.327 -29.474  -4.052  1.00  0.00     0.015 C 
ENDBRANCH  26  29
ENDBRANCH   2  23
BRANCH   7  32
HETATM   32  C   UNL     1      52.609 -31.032  -2.618  1.00  0.00     0.085 C 
BRANCH  32  33
HETATM   33  C   UNL     1      52.825 -32.492  -3.010  1.00  0.00     0.034 C 
BRANCH  33  34
HETATM   34  C   UNL     1      54.198 -33.020  -2.610  1.00  0.00     0.164 C 
BRANCH  34  35
HETATM   35  O   UNL     1      54.617 -32.392  -1.402  1.00  0.00    -0.401 OA
HETATM   36  H   UNL     1      54.725 -31.444  -1.586  1.00  0.00     0.209 HD
ENDBRANCH  34  35
ENDBRANCH  33  34
ENDBRANCH  32  33
ENDBRANCH   7  32
TORSDOF 8
ENDMDL
MODEL 8
REMARK VINA RESULT:      -7.9      2.781      6.255
REMARK  8 active torsions:
REMARK  status: ('A' for Active; 'I' for Inactive)
REMARK    1  A    between atoms: C_3  and  N_4 
REMARK       I    between atoms: N_4  and  C_5 
REMARK    2  A    between atoms: C_5  and  C_6 
REMARK    3  A    between atoms: C_7  and  C_8 
REMARK    4  A    between atoms: C_11  and  C_12 
REMARK    5  A    between atoms: C_21  and  C_22 
REMARK    6  A    between atoms: C_22  and  C_23 
REMARK    7  A    between atoms: C_23  and  C_24 
REMARK    8  A    between atoms: C_24  and  O_25 
ROOT
HETATM    1  C   UNL     1      41.512 -12.693   3.671  1.00  0.00     0.062 A 
HETATM    2  C   UNL     1      42.170 -13.545   2.591  1.00  0.00     0.202 A 
HETATM    3  N   UNL     1      42.507 -14.883   3.097  1.00  0.00    -0.083 N 
HETATM    4  C   UNL     1      42.324 -15.277   4.396  1.00  0.00     0.726 A 
HETATM    5  N   UNL     1      41.771 -14.422   5.276  1.00  0.00    -0.192 N 
HETATM    6  N   UNL     1      43.169 -15.827   2.391  1.00  0.00    -0.140 NA
HETATM    7  C   UNL     1      43.255 -16.807   3.303  1.00  0.00     0.166 A 
HETATM    8  N   UNL     1      42.765 -16.498   4.549  1.00  0.00    -0.046 NA
HETATM    9  C   UNL     1      41.336 -13.148   4.935  1.00  0.00     0.037 A 
HETATM   10  C   UNL     1      40.689 -12.356   6.044  1.00  0.00     0.070 C 
HETATM   11  H   UNL     1      41.595 -14.745   6.224  1.00  0.00     0.184 HD
ENDROOT
BRANCH   1  12
HETATM   12  C   UNL     1      40.945 -11.385   3.259  1.00  0.00     0.256 C 
HETATM   13  N   UNL     1      39.568 -11.388   3.199  1.00  0.00    -0.323 N 
HETATM   14  H   UNL     1      39.105 -12.272   3.344  1.00  0.00     0.169 HD
HETATM   15  O   UNL     1      41.707 -10.466   2.986  1.00  0.00    -0.267 OA
BRANCH  13  16
HETATM   16  C   UNL     1      38.723 -10.289   2.901  1.00  0.00     0.041 A 
HETATM   17  C   UNL     1      37.934 -10.331   1.729  1.00  0.00    -0.035 A 
HETATM   18  C   UNL     1      37.953 -11.499   0.780  1.00  0.00     0.050 C 
HETATM   19  C   UNL     1      37.083  -9.250   1.431  1.00  0.00     0.009 A 
HETATM   20  C   UNL     1      37.010  -8.142   2.271  1.00  0.00     0.001 A 
HETATM   21  C   UNL     1      37.782  -8.103   3.424  1.00  0.00     0.002 A 
HETATM   22  C   UNL     1      38.628  -9.169   3.736  1.00  0.00     0.030 A 
ENDBRANCH  13  16
ENDBRANCH   1  12
BRANCH   2  23
HETATM   23  C   UNL     1      41.361 -13.635   1.306  1.00  0.00    -0.028 A 
HETATM   24  C   UNL     1      40.484 -14.713   1.107  1.00  0.00     0.010 A 
HETATM   25  C   UNL     1      39.775 -14.846  -0.088  1.00  0.00     0.008 A 
HETATM   26  C   UNL     1      39.920 -13.907  -1.117  1.00  0.00    -0.055 A 
HETATM   27  C   UNL     1      40.783 -12.820  -0.913  1.00  0.00     0.008 A 
HETATM   28  C   UNL     1      41.492 -12.682   0.284  1.00  0.00     0.010 A 
BRANCH  26  29
HETATM   29  C   UNL     1      39.168 -14.096  -2.421  1.00  0.00     0.010 C 
HETATM   30  C   UNL     1      38.659 -15.529  -2.586  1.00  0.00     0.015 C 
HETATM   31  C   UNL     1      38.021 -13.090  -2.550  1.00  0.00     0.015 C 
ENDBRANCH  26  29
ENDBRANCH   2  23
BRANCH   7  32
HETATM   32  C   UNL     1      43.835 -18.139   2.995  1.00  0.00     0.085 C 
BRANCH  32  33
HETATM   33  C   UNL     1      42.898 -19.025   2.176  1.00  0.00     0.034 C 
BRANCH  33  34
HETATM   34  C   UNL     1      43.516 -20.370   1.812  1.00  0.00     0.164 C 
BRANCH  34  35
HETATM   35  O   UNL     1      43.833 -21.085   3.003  1.00  0.00    -0.401 OA
HETATM   36  H   UNL     1      43.402 -20.628   3.744  1.00  0.00     0.209 HD
ENDBRANCH  34  35
ENDBRANCH  33  34
ENDBRANCH  32  33
ENDBRANCH   7  32
TORSDOF 8
ENDMDL
MODEL 9
REMARK VINA RESULT:      -7.9      1.994      2.568
REMARK  8 active torsions:
REMARK  status: ('A' for Active; 'I' for Inactive)
REMARK    1  A    between atoms: C_3  and  N_4 
REMARK       I    between atoms: N_4  and  C_5 
REMARK    2  A    between atoms: C_5  and  C_6 
REMARK    3  A    between atoms: C_7  and  C_8 
REMARK    4  A    between atoms: C_11  and  C_12 
REMARK    5  A    between atoms: C_21  and  C_22 
REMARK    6  A    between atoms: C_22  and  C_23 
REMARK    7  A    between atoms: C_23  and  C_24 
REMARK    8  A    between atoms: C_24  and  O_25 
ROOT
HETATM    1  C   UNL     1      40.992 -10.663   2.135  1.00  0.00     0.062 A 
HETATM    2  C   UNL     1      42.134 -11.179   3.002  1.00  0.00     0.202 A 
HETATM    3  N   UNL     1      42.080 -10.607   4.355  1.00  0.00    -0.083 N 
HETATM    4  C   UNL     1      41.165  -9.668   4.750  1.00  0.00     0.726 A 
HETATM    5  N   UNL     1      40.224  -9.252   3.883  1.00  0.00    -0.192 N 
HETATM    6  N   UNL     1      43.006 -10.820   5.316  1.00  0.00    -0.140 NA
HETATM    7  C   UNL     1      42.520 -10.055   6.306  1.00  0.00     0.166 A 
HETATM    8  N   UNL     1      41.403  -9.319   5.987  1.00  0.00    -0.046 NA
HETATM    9  C   UNL     1      40.101  -9.750   2.592  1.00  0.00     0.037 A 
HETATM   10  C   UNL     1      38.949  -9.204   1.785  1.00  0.00     0.070 C 
HETATM   11  H   UNL     1      39.521  -8.594   4.205  1.00  0.00     0.184 HD
ENDROOT
BRANCH   1  12
HETATM   12  C   UNL     1      40.804 -11.293   0.804  1.00  0.00     0.256 C 
HETATM   13  N   UNL     1      39.675 -12.081   0.735  1.00  0.00    -0.323 N 
HETATM   14  H   UNL     1      39.161 -12.221   1.591  1.00  0.00     0.169 HD
HETATM   15  O   UNL     1      41.641 -11.101  -0.069  1.00  0.00    -0.267 OA
BRANCH  13  16
HETATM   16  C   UNL     1      39.181 -12.768  -0.402  1.00  0.00     0.041 A 
HETATM   17  C   UNL     1      39.589 -14.102  -0.627  1.00  0.00    -0.035 A 
HETATM   18  C   UNL     1      40.529 -14.828   0.296  1.00  0.00     0.050 C 
HETATM   19  C   UNL     1      39.093 -14.796  -1.747  1.00  0.00     0.009 A 
HETATM   20  C   UNL     1      38.212 -14.187  -2.637  1.00  0.00     0.001 A 
HETATM   21  C   UNL     1      37.809 -12.877  -2.414  1.00  0.00     0.002 A 
HETATM   22  C   UNL     1      38.287 -12.176  -1.305  1.00  0.00     0.030 A 
ENDBRANCH  13  16
ENDBRANCH   1  12
BRANCH   2  23
HETATM   23  C   UNL     1      42.224 -12.698   3.055  1.00  0.00    -0.028 A 
HETATM   24  C   UNL     1      41.260 -13.429   3.766  1.00  0.00     0.010 A 
HETATM   25  C   UNL     1      41.354 -14.818   3.876  1.00  0.00     0.008 A 
HETATM   26  C   UNL     1      42.412 -15.514   3.277  1.00  0.00    -0.055 A 
HETATM   27  C   UNL     1      43.366 -14.786   2.552  1.00  0.00     0.008 A 
HETATM   28  C   UNL     1      43.273 -13.396   2.438  1.00  0.00     0.010 A 
BRANCH  26  29
HETATM   29  C   UNL     1      42.513 -17.019   3.444  1.00  0.00     0.010 C 
HETATM   30  C   UNL     1      42.521 -17.745   2.098  1.00  0.00     0.015 C 
HETATM   31  C   UNL     1      43.736 -17.403   4.281  1.00  0.00     0.015 C 
ENDBRANCH  26  29
ENDBRANCH   2  23
BRANCH   7  32
HETATM   32  C   UNL     1      43.137 -10.003   7.655  1.00  0.00     0.085 C 
BRANCH  32  33
HETATM   33  C   UNL     1      42.426  -9.038   8.601  1.00  0.00     0.034 C 
BRANCH  33  34
HETATM   34  C   UNL     1      43.127  -7.690   8.717  1.00  0.00     0.164 C 
BRANCH  34  35
HETATM   35  O   UNL     1      42.867  -6.917   7.548  1.00  0.00    -0.401 OA
HETATM   36  H   UNL     1      42.374  -6.126   7.823  1.00  0.00     0.209 HD
ENDBRANCH  34  35
ENDBRANCH  33  34
ENDBRANCH  32  33
ENDBRANCH   7  32
TORSDOF 8
ENDMDL
MODEL 10
REMARK VINA RESULT:      -7.9      2.200      7.516
REMARK  8 active torsions:
REMARK  status: ('A' for Active; 'I' for Inactive)
REMARK    1  A    between atoms: C_3  and  N_4 
REMARK       I    between atoms: N_4  and  C_5 
REMARK    2  A    between atoms: C_5  and  C_6 
REMARK    3  A    between atoms: C_7  and  C_8 
REMARK    4  A    between atoms: C_11  and  C_12 
REMARK    5  A    between atoms: C_21  and  C_22 
REMARK    6  A    between atoms: C_22  and  C_23 
REMARK    7  A    between atoms: C_23  and  C_24 
REMARK    8  A    between atoms: C_24  and  O_25 
ROOT
HETATM    1  C   UNL     1      40.504 -11.807   3.596  1.00  0.00     0.062 A 
HETATM    2  C   UNL     1      40.156 -13.226   3.158  1.00  0.00     0.202 A 
HETATM    3  N   UNL     1      40.077 -13.329   1.694  1.00  0.00    -0.083 N 
HETATM    4  C   UNL     1      40.217 -12.264   0.845  1.00  0.00     0.726 A 
HETATM    5  N   UNL     1      40.480 -11.045   1.348  1.00  0.00    -0.192 N 
HETATM    6  N   UNL     1      39.710 -14.443   1.023  1.00  0.00    -0.140 NA
HETATM    7  C   UNL     1      39.756 -13.999  -0.243  1.00  0.00     0.166 A 
HETATM    8  N   UNL     1      40.044 -12.663  -0.388  1.00  0.00    -0.046 NA
HETATM    9  C   UNL     1      40.655 -10.798   2.704  1.00  0.00     0.037 A 
HETATM   10  C   UNL     1      41.001  -9.377   3.074  1.00  0.00     0.070 C 
HETATM   11  H   UNL     1      40.633 -10.274   0.704  1.00  0.00     0.184 HD
ENDROOT
BRANCH   1  12
HETATM   12  C   UNL     1      40.804 -11.589   5.033  1.00  0.00     0.256 C 
HETATM   13  N   UNL     1      42.099 -11.170   5.256  1.00  0.00    -0.323 N 
HETATM   14  H   UNL     1      42.716 -11.146   4.459  1.00  0.00     0.169 HD
HETATM   15  O   UNL     1      39.935 -11.819   5.864  1.00  0.00    -0.267 OA
BRANCH  13  16
HETATM   16  C   UNL     1      42.681 -10.817   6.500  1.00  0.00     0.041 A 
HETATM   17  C   UNL     1      43.656 -11.670   7.065  1.00  0.00    -0.035 A 
HETATM   18  C   UNL     1      44.106 -12.941   6.398  1.00  0.00     0.050 C 
HETATM   19  C   UNL     1      44.248 -11.322   8.294  1.00  0.00     0.009 A 
HETATM   20  C   UNL     1      43.885 -10.154   8.960  1.00  0.00     0.001 A 
HETATM   21  C   UNL     1      42.929  -9.315   8.403  1.00  0.00     0.002 A 
HETATM   22  C   UNL     1      42.335  -9.644   7.182  1.00  0.00     0.030 A 
ENDBRANCH  13  16
ENDBRANCH   1  12
BRANCH   2  23
HETATM   23  C   UNL     1      41.085 -14.287   3.731  1.00  0.00    -0.028 A 
HETATM   24  C   UNL     1      40.635 -15.122   4.765  1.00  0.00     0.010 A 
HETATM   25  C   UNL     1      41.488 -16.063   5.345  1.00  0.00     0.008 A 
HETATM   26  C   UNL     1      42.812 -16.197   4.907  1.00  0.00    -0.055 A 
HETATM   27  C   UNL     1      43.257 -15.374   3.863  1.00  0.00     0.008 A 
HETATM   28  C   UNL     1      42.405 -14.433   3.278  1.00  0.00     0.010 A 
BRANCH  26  29
HETATM   29  C   UNL     1      43.730 -17.201   5.581  1.00  0.00     0.010 C 
HETATM   30  C   UNL     1      44.350 -18.174   4.576  1.00  0.00     0.015 C 
HETATM   31  C   UNL     1      44.814 -16.497   6.401  1.00  0.00     0.015 C 
ENDBRANCH  26  29
ENDBRANCH   2  23
BRANCH   7  32
HETATM   32  C   UNL     1      39.517 -14.883  -1.411  1.00  0.00     0.085 C 
BRANCH  32  33
HETATM   33  C   UNL     1      39.235 -14.111  -2.698  1.00  0.00     0.034 C 
BRANCH  33  34
HETATM   34  C   UNL     1      37.752 -13.834  -2.916  1.00  0.00     0.164 C 
BRANCH  34  35
HETATM   35  O   UNL     1      37.565 -12.453  -3.214  1.00  0.00    -0.401 OA
HETATM   36  H   UNL     1      38.232 -11.952  -2.715  1.00  0.00     0.209 HD
ENDBRANCH  34  35
ENDBRANCH  33  34
ENDBRANCH  32  33
ENDBRANCH   7  32
TORSDOF 8
ENDMDL
