MODEL 1
REMARK VINA RESULT:      -8.7      0.000      0.000
REMARK  5 active torsions:
REMARK  status: ('A' for Active; 'I' for Inactive)
REMARK    1  A    between atoms: C_9  and  C_10 
REMARK       I    between atoms: C_10  and  N_11 
REMARK    2  A    between atoms: N_11  and  C_12 
REMARK    3  A    between atoms: C_12  and  C_13 
REMARK    4  A    between atoms: C_16  and  N_17 
REMARK       I    between atoms: N_17  and  C_18 
REMARK       I    between atoms: C_18  and  N_19 
REMARK    5  A    between atoms: N_19  and  C_20 
ROOT
HETATM    1  C   UNL     1      40.533 -14.227   4.443  1.00  0.00     0.161 C 
ENDROOT
BRANCH   1   2
HETATM    2  N   UNL     1      41.168 -15.394   4.992  1.00  0.00    -0.351 N 
HETATM    3  C   UNL     1      42.526 -15.495   5.176  1.00  0.00     0.273 C 
HETATM    4  O   UNL     1      43.312 -14.595   4.900  1.00  0.00    -0.266 OA
HETATM    5  H   UNL     1      40.623 -16.205   5.269  1.00  0.00     0.163 HD
BRANCH   3   6
HETATM    6  C   UNL     1      42.928 -16.798   5.731  1.00  0.00     0.157 A 
HETATM    7  C   UNL     1      43.278 -17.981   5.015  1.00  0.00     0.029 A 
HETATM    8  C   UNL     1      43.380 -18.356   3.661  1.00  0.00     0.023 A 
HETATM    9  C   UNL     1      43.566 -18.923   5.995  1.00  0.00     0.063 A 
HETATM   10  C   UNL     1      43.765 -19.667   3.334  1.00  0.00    -0.061 A 
HETATM   11  C   UNL     1      43.887 -20.090   1.899  1.00  0.00     0.048 C 
HETATM   12  C   UNL     1      44.048 -20.586   4.354  1.00  0.00     0.009 A 
HETATM   13  C   UNL     1      43.954 -20.234   5.704  1.00  0.00     0.032 A 
HETATM   14  N   UNL     1      43.383 -18.276   7.184  1.00  0.00    -0.277 N 
HETATM   15  H   UNL     1      43.504 -18.659   8.114  1.00  0.00     0.189 HD
HETATM   16  N   UNL     1      43.000 -16.994   7.068  1.00  0.00    -0.168 NA
ENDBRANCH   3   6
ENDBRANCH   1   2
BRANCH   1  17
HETATM   17  C   UNL     1      40.637 -14.242   2.942  1.00  0.00    -0.040 A 
HETATM   18  C   UNL     1      41.266 -13.198   2.254  1.00  0.00     0.011 A 
HETATM   19  C   UNL     1      41.276 -13.170   0.855  1.00  0.00     0.030 A 
HETATM   20  C   UNL     1      40.634 -14.169   0.120  1.00  0.00     0.036 A 
HETATM   21  C   UNL     1      40.050 -15.239   0.807  1.00  0.00     0.030 A 
HETATM   22  C   UNL     1      40.039 -15.271   2.204  1.00  0.00     0.011 A 
BRANCH  20  23
HETATM   23  N   UNL     1      40.552 -14.195  -1.283  1.00  0.00    -0.309 N 
HETATM   24  C   UNL     1      39.789 -13.507  -2.181  1.00  0.00     0.321 C 
HETATM   25  N   UNL     1      38.724 -12.815  -1.689  1.00  0.00    -0.339 N 
HETATM   26  O   UNL     1      40.055 -13.596  -3.376  1.00  0.00    -0.247 OA
HETATM   27  H   UNL     1      38.350 -13.217  -0.842  1.00  0.00     0.164 HD
HETATM   28  H   UNL     1      41.166 -14.843  -1.761  1.00  0.00     0.170 HD
BRANCH  25  29
HETATM   29  C   UNL     1      37.749 -12.117  -2.520  1.00  0.00     0.078 C 
HETATM   30  C   UNL     1      36.609 -13.015  -2.997  1.00  0.00     0.032 C 
HETATM   31  C   UNL     1      37.225 -10.856  -1.838  1.00  0.00     0.032 C 
ENDBRANCH  25  29
ENDBRANCH  20  23
ENDBRANCH   1  17
TORSDOF 5
ENDMDL
MODEL 2
REMARK VINA RESULT:      -8.4      4.640      7.742
REMARK  5 active torsions:
REMARK  status: ('A' for Active; 'I' for Inactive)
REMARK    1  A    between atoms: C_9  and  C_10 
REMARK       I    between atoms: C_10  and  N_11 
REMARK    2  A    between atoms: N_11  and  C_12 
REMARK    3  A    between atoms: C_12  and  C_13 
REMARK    4  A    between atoms: C_16  and  N_17 
REMARK       I    between atoms: N_17  and  C_18 
REMARK       I    between atoms: C_18  and  N_19 
REMARK    5  A    between atoms: N_19  and  C_20 
ROOT
HETATM    1  C   UNL     1      41.912 -13.353   4.559  1.00  0.00     0.161 C 
ENDROOT
BRANCH   1   2
HETATM    2  N   UNL     1      42.335 -14.644   5.026  1.00  0.00    -0.351 N 
HETATM    3  C   UNL     1      43.081 -15.512   4.266  1.00  0.00     0.273 C 
HETATM    4  O   UNL     1      43.461 -15.257   3.128  1.00  0.00    -0.266 OA
HETATM    5  H   UNL     1      42.092 -14.970   5.958  1.00  0.00     0.163 HD
BRANCH   3   6
HETATM    6  C   UNL     1      43.366 -16.778   4.963  1.00  0.00     0.157 A 
HETATM    7  C   UNL     1      43.532 -18.072   4.388  1.00  0.00     0.029 A 
HETATM    8  C   UNL     1      43.506 -18.618   3.090  1.00  0.00     0.023 A 
HETATM    9  C   UNL     1      43.771 -18.917   5.465  1.00  0.00     0.063 A 
HETATM   10  C   UNL     1      43.717 -19.997   2.914  1.00  0.00    -0.061 A 
HETATM   11  C   UNL     1      43.700 -20.601   1.540  1.00  0.00     0.048 C 
HETATM   12  C   UNL     1      43.956 -20.813   4.028  1.00  0.00     0.009 A 
HETATM   13  C   UNL     1      43.987 -20.291   5.326  1.00  0.00     0.032 A 
HETATM   14  N   UNL     1      43.738 -18.114   6.569  1.00  0.00    -0.277 N 
HETATM   15  H   UNL     1      43.872 -18.394   7.534  1.00  0.00     0.189 HD
HETATM   16  N   UNL     1      43.497 -16.818   6.309  1.00  0.00    -0.168 NA
ENDBRANCH   3   6
ENDBRANCH   1   2
BRANCH   1  17
HETATM   17  C   UNL     1      42.444 -12.277   5.466  1.00  0.00    -0.040 A 
HETATM   18  C   UNL     1      43.512 -12.532   6.335  1.00  0.00     0.011 A 
HETATM   19  C   UNL     1      43.940 -11.557   7.243  1.00  0.00     0.030 A 
HETATM   20  C   UNL     1      43.292 -10.323   7.319  1.00  0.00     0.036 A 
HETATM   21  C   UNL     1      42.259 -10.050   6.415  1.00  0.00     0.030 A 
HETATM   22  C   UNL     1      41.829 -11.020   5.506  1.00  0.00     0.011 A 
BRANCH  20  23
HETATM   23  N   UNL     1      43.622  -9.306   8.232  1.00  0.00    -0.309 N 
HETATM   24  C   UNL     1      43.251  -9.061   9.521  1.00  0.00     0.321 C 
HETATM   25  N   UNL     1      42.187  -9.760  10.005  1.00  0.00    -0.339 N 
HETATM   26  O   UNL     1      43.843  -8.189  10.152  1.00  0.00    -0.247 OA
HETATM   27  H   UNL     1      41.533 -10.030   9.285  1.00  0.00     0.164 HD
HETATM   28  H   UNL     1      44.261  -8.592   7.903  1.00  0.00     0.170 HD
BRANCH  25  29
HETATM   29  C   UNL     1      41.597  -9.543  11.321  1.00  0.00     0.078 C 
HETATM   30  C   UNL     1      40.115  -9.904  11.385  1.00  0.00     0.032 C 
HETATM   31  C   UNL     1      42.394 -10.241  12.420  1.00  0.00     0.032 C 
ENDBRANCH  25  29
ENDBRANCH  20  23
ENDBRANCH   1  17
TORSDOF 5
ENDMDL
MODEL 3
REMARK VINA RESULT:      -8.2      6.412      9.628
REMARK  5 active torsions:
REMARK  status: ('A' for Active; 'I' for Inactive)
REMARK    1  A    between atoms: C_9  and  C_10 
REMARK       I    between atoms: C_10  and  N_11 
REMARK    2  A    between atoms: N_11  and  C_12 
REMARK    3  A    between atoms: C_12  and  C_13 
REMARK    4  A    between atoms: C_16  and  N_17 
REMARK       I    between atoms: N_17  and  C_18 
REMARK       I    between atoms: C_18  and  N_19 
REMARK    5  A    between atoms: N_19  and  C_20 
ROOT
HETATM    1  C   UNL     1      44.137 -10.996   6.639  1.00  0.00     0.161 C 
ENDROOT
BRANCH   1   2
HETATM    2  N   UNL     1      44.073 -12.419   6.831  1.00  0.00    -0.351 N 
HETATM    3  C   UNL     1      42.959 -13.168   6.540  1.00  0.00     0.273 C 
HETATM    4  O   UNL     1      41.927 -12.691   6.081  1.00  0.00    -0.266 OA
HETATM    5  H   UNL     1      44.869 -12.934   7.198  1.00  0.00     0.163 HD
BRANCH   3   6
HETATM    6  C   UNL     1      43.139 -14.597   6.847  1.00  0.00     0.157 A 
HETATM    7  C   UNL     1      43.268 -15.677   5.925  1.00  0.00     0.029 A 
HETATM    8  C   UNL     1      43.282 -15.821   4.524  1.00  0.00     0.023 A 
HETATM    9  C   UNL     1      43.404 -16.812   6.716  1.00  0.00     0.063 A 
HETATM   10  C   UNL     1      43.430 -17.101   3.961  1.00  0.00    -0.061 A 
HETATM   11  C   UNL     1      43.454 -17.279   2.471  1.00  0.00     0.048 C 
HETATM   12  C   UNL     1      43.566 -18.218   4.796  1.00  0.00     0.009 A 
HETATM   13  C   UNL     1      43.555 -18.097   6.189  1.00  0.00     0.032 A 
HETATM   14  N   UNL     1      43.354 -16.362   8.004  1.00  0.00    -0.277 N 
HETATM   15  H   UNL     1      43.422 -16.918   8.850  1.00  0.00     0.189 HD
HETATM   16  N   UNL     1      43.196 -15.034   8.126  1.00  0.00    -0.168 NA
ENDBRANCH   3   6
ENDBRANCH   1   2
BRANCH   1  17
HETATM   17  C   UNL     1      44.115 -10.295   7.970  1.00  0.00    -0.040 A 
HETATM   18  C   UNL     1      45.017 -10.645   8.982  1.00  0.00     0.011 A 
HETATM   19  C   UNL     1      44.931 -10.056  10.249  1.00  0.00     0.030 A 
HETATM   20  C   UNL     1      43.925  -9.131  10.535  1.00  0.00     0.036 A 
HETATM   21  C   UNL     1      43.056  -8.743   9.509  1.00  0.00     0.030 A 
HETATM   22  C   UNL     1      43.140  -9.328   8.242  1.00  0.00     0.011 A 
BRANCH  20  23
HETATM   23  N   UNL     1      43.734  -8.528  11.791  1.00  0.00    -0.309 N 
HETATM   24  C   UNL     1      42.746  -8.627  12.726  1.00  0.00     0.321 C 
HETATM   25  N   UNL     1      41.584  -9.224  12.342  1.00  0.00    -0.339 N 
HETATM   26  O   UNL     1      42.924  -8.122  13.831  1.00  0.00    -0.247 OA
HETATM   27  H   UNL     1      41.400  -9.128  11.353  1.00  0.00     0.164 HD
HETATM   28  H   UNL     1      44.452  -7.884  12.098  1.00  0.00     0.170 HD
BRANCH  25  29
HETATM   29  C   UNL     1      40.395  -9.315  13.182  1.00  0.00     0.078 C 
HETATM   30  C   UNL     1      39.450  -8.125  13.022  1.00  0.00     0.032 C 
HETATM   31  C   UNL     1      39.666 -10.642  12.988  1.00  0.00     0.032 C 
ENDBRANCH  25  29
ENDBRANCH  20  23
ENDBRANCH   1  17
TORSDOF 5
ENDMDL
MODEL 4
REMARK VINA RESULT:      -8.2      6.667      9.645
REMARK  5 active torsions:
REMARK  status: ('A' for Active; 'I' for Inactive)
REMARK    1  A    between atoms: C_9  and  C_10 
REMARK       I    between atoms: C_10  and  N_11 
REMARK    2  A    between atoms: N_11  and  C_12 
REMARK    3  A    between atoms: C_12  and  C_13 
REMARK    4  A    between atoms: C_16  and  N_17 
REMARK       I    between atoms: N_17  and  C_18 
REMARK       I    between atoms: C_18  and  N_19 
REMARK    5  A    between atoms: N_19  and  C_20 
ROOT
HETATM    1  C   UNL     1      45.055 -10.937   7.163  1.00  0.00     0.161 C 
ENDROOT
BRANCH   1   2
HETATM    2  N   UNL     1      44.485 -10.914   8.482  1.00  0.00    -0.351 N 
HETATM    3  C   UNL     1      44.697  -9.893   9.376  1.00  0.00     0.273 C 
HETATM    4  O   UNL     1      45.381  -8.906   9.123  1.00  0.00    -0.266 OA
HETATM    5  H   UNL     1      43.890 -11.671   8.809  1.00  0.00     0.163 HD
BRANCH   3   6
HETATM    6  C   UNL     1      44.022 -10.117  10.666  1.00  0.00     0.157 A 
HETATM    7  C   UNL     1      43.373  -9.150  11.490  1.00  0.00     0.029 A 
HETATM    8  C   UNL     1      43.129  -7.764  11.431  1.00  0.00     0.023 A 
HETATM    9  C   UNL     1      42.912  -9.865  12.589  1.00  0.00     0.063 A 
HETATM   10  C   UNL     1      42.432  -7.139  12.479  1.00  0.00    -0.061 A 
HETATM   11  C   UNL     1      42.154  -5.664  12.436  1.00  0.00     0.048 C 
HETATM   12  C   UNL     1      41.983  -7.898  13.568  1.00  0.00     0.009 A 
HETATM   13  C   UNL     1      42.214  -9.275  13.646  1.00  0.00     0.032 A 
HETATM   14  N   UNL     1      43.292 -11.157  12.365  1.00  0.00    -0.277 N 
HETATM   15  H   UNL     1      43.123 -11.958  12.963  1.00  0.00     0.189 HD
HETATM   16  N   UNL     1      43.962 -11.351  11.217  1.00  0.00    -0.168 NA
ENDBRANCH   3   6
ENDBRANCH   1   2
BRANCH   1  17
HETATM   17  C   UNL     1      44.284 -11.884   6.285  1.00  0.00    -0.040 A 
HETATM   18  C   UNL     1      44.069 -11.597   4.932  1.00  0.00     0.011 A 
HETATM   19  C   UNL     1      43.272 -12.434   4.143  1.00  0.00     0.030 A 
HETATM   20  C   UNL     1      42.652 -13.555   4.699  1.00  0.00     0.036 A 
HETATM   21  C   UNL     1      42.907 -13.869   6.038  1.00  0.00     0.030 A 
HETATM   22  C   UNL     1      43.705 -13.037   6.829  1.00  0.00     0.011 A 
BRANCH  20  23
HETATM   23  N   UNL     1      41.796 -14.421   3.996  1.00  0.00    -0.309 N 
HETATM   24  C   UNL     1      41.834 -15.761   3.747  1.00  0.00     0.321 C 
HETATM   25  N   UNL     1      43.005 -16.408   3.999  1.00  0.00    -0.339 N 
HETATM   26  O   UNL     1      40.846 -16.300   3.254  1.00  0.00    -0.247 OA
HETATM   27  H   UNL     1      43.812 -15.808   3.911  1.00  0.00     0.164 HD
HETATM   28  H   UNL     1      40.976 -14.002   3.573  1.00  0.00     0.170 HD
BRANCH  25  29
HETATM   29  C   UNL     1      43.246 -17.812   3.690  1.00  0.00     0.078 C 
HETATM   30  C   UNL     1      43.468 -18.073   2.201  1.00  0.00     0.032 C 
HETATM   31  C   UNL     1      44.376 -18.392   4.537  1.00  0.00     0.032 C 
ENDBRANCH  25  29
ENDBRANCH  20  23
ENDBRANCH   1  17
TORSDOF 5
ENDMDL
MODEL 5
REMARK VINA RESULT:      -8.1      6.304      9.618
REMARK  5 active torsions:
REMARK  status: ('A' for Active; 'I' for Inactive)
REMARK    1  A    between atoms: C_9  and  C_10 
REMARK       I    between atoms: C_10  and  N_11 
REMARK    2  A    between atoms: N_11  and  C_12 
REMARK    3  A    between atoms: C_12  and  C_13 
REMARK    4  A    between atoms: C_16  and  N_17 
REMARK       I    between atoms: N_17  and  C_18 
REMARK       I    between atoms: C_18  and  N_19 
REMARK    5  A    between atoms: N_19  and  C_20 
ROOT
HETATM    1  C   UNL     1      45.025 -11.987   6.876  1.00  0.00     0.161 C 
ENDROOT
BRANCH   1   2
HETATM    2  N   UNL     1      43.880 -12.505   6.180  1.00  0.00    -0.351 N 
HETATM    3  C   UNL     1      43.165 -13.595   6.615  1.00  0.00     0.273 C 
HETATM    4  O   UNL     1      43.434 -14.212   7.640  1.00  0.00    -0.266 OA
HETATM    5  H   UNL     1      43.550 -12.075   5.320  1.00  0.00     0.163 HD
BRANCH   3   6
HETATM    6  C   UNL     1      42.051 -13.940   5.715  1.00  0.00     0.157 A 
HETATM    7  C   UNL     1      42.038 -14.922   4.680  1.00  0.00     0.029 A 
HETATM    8  C   UNL     1      42.952 -15.854   4.153  1.00  0.00     0.023 A 
HETATM    9  C   UNL     1      40.765 -14.846   4.128  1.00  0.00     0.063 A 
HETATM   10  C   UNL     1      42.560 -16.680   3.086  1.00  0.00    -0.061 A 
HETATM   11  C   UNL     1      43.514 -17.687   2.511  1.00  0.00     0.048 C 
HETATM   12  C   UNL     1      41.266 -16.572   2.560  1.00  0.00     0.009 A 
HETATM   13  C   UNL     1      40.342 -15.653   3.069  1.00  0.00     0.032 A 
HETATM   14  N   UNL     1      40.122 -13.871   4.836  1.00  0.00    -0.277 N 
HETATM   15  H   UNL     1      39.170 -13.547   4.705  1.00  0.00     0.189 HD
HETATM   16  N   UNL     1      40.862 -13.301   5.801  1.00  0.00    -0.168 NA
ENDBRANCH   3   6
ENDBRANCH   1   2
BRANCH   1  17
HETATM   17  C   UNL     1      44.633 -10.784   7.689  1.00  0.00    -0.040 A 
HETATM   18  C   UNL     1      45.416 -10.359   8.769  1.00  0.00     0.011 A 
HETATM   19  C   UNL     1      44.997  -9.298   9.580  1.00  0.00     0.030 A 
HETATM   20  C   UNL     1      43.775  -8.663   9.344  1.00  0.00     0.036 A 
HETATM   21  C   UNL     1      43.018  -9.054   8.235  1.00  0.00     0.030 A 
HETATM   22  C   UNL     1      43.434 -10.112   7.422  1.00  0.00     0.011 A 
BRANCH  20  23
HETATM   23  N   UNL     1      43.254  -7.625  10.135  1.00  0.00    -0.309 N 
HETATM   24  C   UNL     1      42.584  -7.611  11.323  1.00  0.00     0.321 C 
HETATM   25  N   UNL     1      42.091  -8.797  11.773  1.00  0.00    -0.339 N 
HETATM   26  O   UNL     1      42.404  -6.536  11.889  1.00  0.00    -0.247 OA
HETATM   27  H   UNL     1      41.876  -9.442  11.026  1.00  0.00     0.164 HD
HETATM   28  H   UNL     1      43.379  -6.682   9.786  1.00  0.00     0.170 HD
BRANCH  25  29
HETATM   29  C   UNL     1      41.263  -8.940  12.965  1.00  0.00     0.078 C 
HETATM   30  C   UNL     1      40.291 -10.115  12.888  1.00  0.00     0.032 C 
HETATM   31  C   UNL     1      42.107  -8.990  14.236  1.00  0.00     0.032 C 
ENDBRANCH  25  29
ENDBRANCH  20  23
ENDBRANCH   1  17
TORSDOF 5
ENDMDL
MODEL 6
REMARK VINA RESULT:      -8.0      2.112      2.764
REMARK  5 active torsions:
REMARK  status: ('A' for Active; 'I' for Inactive)
REMARK    1  A    between atoms: C_9  and  C_10 
REMARK       I    between atoms: C_10  and  N_11 
REMARK    2  A    between atoms: N_11  and  C_12 
REMARK    3  A    between atoms: C_12  and  C_13 
REMARK    4  A    between atoms: C_16  and  N_17 
REMARK       I    between atoms: N_17  and  C_18 
REMARK       I    between atoms: C_18  and  N_19 
REMARK    5  A    between atoms: N_19  and  C_20 
ROOT
HETATM    1  C   UNL     1      40.723 -12.471   6.037  1.00  0.00     0.161 C 
ENDROOT
BRANCH   1   2
HETATM    2  N   UNL     1      41.325 -13.761   6.235  1.00  0.00    -0.351 N 
HETATM    3  C   UNL     1      42.631 -13.930   6.624  1.00  0.00     0.273 C 
HETATM    4  O   UNL     1      43.394 -12.996   6.849  1.00  0.00    -0.266 OA
HETATM    5  H   UNL     1      40.793 -14.615   6.089  1.00  0.00     0.163 HD
BRANCH   3   6
HETATM    6  C   UNL     1      43.012 -15.348   6.735  1.00  0.00     0.157 A 
HETATM    7  C   UNL     1      43.214 -16.282   5.676  1.00  0.00     0.029 A 
HETATM    8  C   UNL     1      43.150 -16.253   4.269  1.00  0.00     0.023 A 
HETATM    9  C   UNL     1      43.547 -17.475   6.306  1.00  0.00     0.063 A 
HETATM   10  C   UNL     1      43.420 -17.423   3.540  1.00  0.00    -0.061 A 
HETATM   11  C   UNL     1      43.364 -17.416   2.039  1.00  0.00     0.048 C 
HETATM   12  C   UNL     1      43.754 -18.605   4.215  1.00  0.00     0.009 A 
HETATM   13  C   UNL     1      43.824 -18.656   5.611  1.00  0.00     0.032 A 
HETATM   14  N   UNL     1      43.529 -17.195   7.643  1.00  0.00    -0.277 N 
HETATM   15  H   UNL     1      43.725 -17.834   8.405  1.00  0.00     0.189 HD
HETATM   16  N   UNL     1      43.212 -15.925   7.942  1.00  0.00    -0.168 NA
ENDBRANCH   3   6
ENDBRANCH   1   2
BRANCH   1  17
HETATM   17  C   UNL     1      40.153 -12.377   4.647  1.00  0.00    -0.040 A 
HETATM   18  C   UNL     1      39.520 -11.208   4.208  1.00  0.00     0.011 A 
HETATM   19  C   UNL     1      38.908 -11.159   2.950  1.00  0.00     0.030 A 
HETATM   20  C   UNL     1      38.894 -12.284   2.122  1.00  0.00     0.036 A 
HETATM   21  C   UNL     1      39.571 -13.435   2.540  1.00  0.00     0.030 A 
HETATM   22  C   UNL     1      40.184 -13.487   3.795  1.00  0.00     0.011 A 
BRANCH  20  23
HETATM   23  N   UNL     1      38.262 -12.339   0.867  1.00  0.00    -0.309 N 
HETATM   24  C   UNL     1      38.704 -12.119  -0.404  1.00  0.00     0.321 C 
HETATM   25  N   UNL     1      39.911 -11.504  -0.545  1.00  0.00    -0.339 N 
HETATM   26  O   UNL     1      37.976 -12.421  -1.345  1.00  0.00    -0.247 OA
HETATM   27  H   UNL     1      40.136 -10.897   0.230  1.00  0.00     0.164 HD
HETATM   28  H   UNL     1      37.280 -12.588   0.865  1.00  0.00     0.170 HD
BRANCH  25  29
HETATM   29  C   UNL     1      40.479 -11.101  -1.826  1.00  0.00     0.078 C 
HETATM   30  C   UNL     1      41.431  -9.912  -1.717  1.00  0.00     0.032 C 
HETATM   31  C   UNL     1      41.128 -12.276  -2.552  1.00  0.00     0.032 C 
ENDBRANCH  25  29
ENDBRANCH  20  23
ENDBRANCH   1  17
TORSDOF 5
ENDMDL
MODEL 7
REMARK VINA RESULT:      -7.9      1.535      2.149
REMARK  5 active torsions:
REMARK  status: ('A' for Active; 'I' for Inactive)
REMARK    1  A    between atoms: C_9  and  C_10 
REMARK       I    between atoms: C_10  and  N_11 
REMARK    2  A    between atoms: N_11  and  C_12 
REMARK    3  A    between atoms: C_12  and  C_13 
REMARK    4  A    between atoms: C_16  and  N_17 
REMARK       I    between atoms: N_17  and  C_18 
REMARK       I    between atoms: C_18  and  N_19 
REMARK    5  A    between atoms: N_19  and  C_20 
ROOT
HETATM    1  C   UNL     1      39.728 -12.969   5.231  1.00  0.00     0.161 C 
ENDROOT
BRANCH   1   2
HETATM    2  N   UNL     1      40.523 -14.085   5.663  1.00  0.00    -0.351 N 
HETATM    3  C   UNL     1      41.809 -13.957   6.127  1.00  0.00     0.273 C 
HETATM    4  O   UNL     1      42.388 -12.879   6.224  1.00  0.00    -0.266 OA
HETATM    5  H   UNL     1      40.153 -15.031   5.641  1.00  0.00     0.163 HD
BRANCH   3   6
HETATM    6  C   UNL     1      42.415 -15.251   6.486  1.00  0.00     0.157 A 
HETATM    7  C   UNL     1      42.818 -16.299   5.607  1.00  0.00     0.029 A 
HETATM    8  C   UNL     1      42.816 -16.515   4.215  1.00  0.00     0.023 A 
HETATM    9  C   UNL     1      43.315 -17.295   6.438  1.00  0.00     0.063 A 
HETATM   10  C   UNL     1      43.310 -17.726   3.702  1.00  0.00    -0.061 A 
HETATM   11  C   UNL     1      43.324 -17.978   2.222  1.00  0.00     0.048 C 
HETATM   12  C   UNL     1      43.804 -18.704   4.577  1.00  0.00     0.009 A 
HETATM   13  C   UNL     1      43.816 -18.509   5.962  1.00  0.00     0.032 A 
HETATM   14  N   UNL     1      43.189 -16.804   7.707  1.00  0.00    -0.277 N 
HETATM   15  H   UNL     1      43.452 -17.265   8.570  1.00  0.00     0.189 HD
HETATM   16  N   UNL     1      42.651 -15.575   7.778  1.00  0.00    -0.168 NA
ENDBRANCH   3   6
ENDBRANCH   1   2
BRANCH   1  17
HETATM   17  C   UNL     1      39.928 -12.734   3.758  1.00  0.00    -0.040 A 
HETATM   18  C   UNL     1      40.030 -13.808   2.866  1.00  0.00     0.011 A 
HETATM   19  C   UNL     1      40.310 -13.587   1.513  1.00  0.00     0.030 A 
HETATM   20  C   UNL     1      40.522 -12.293   1.034  1.00  0.00     0.036 A 
HETATM   21  C   UNL     1      40.370 -11.217   1.914  1.00  0.00     0.030 A 
HETATM   22  C   UNL     1      40.088 -11.433   3.266  1.00  0.00     0.011 A 
BRANCH  20  23
HETATM   23  N   UNL     1      40.857 -11.983  -0.296  1.00  0.00    -0.309 N 
HETATM   24  C   UNL     1      40.238 -12.221  -1.488  1.00  0.00     0.321 C 
HETATM   25  N   UNL     1      39.217 -13.121  -1.489  1.00  0.00    -0.339 N 
HETATM   26  O   UNL     1      40.666 -11.670  -2.498  1.00  0.00    -0.247 OA
HETATM   27  H   UNL     1      39.307 -13.820  -0.766  1.00  0.00     0.164 HD
HETATM   28  H   UNL     1      41.726 -11.483  -0.440  1.00  0.00     0.170 HD
BRANCH  25  29
HETATM   29  C   UNL     1      38.522 -13.568  -2.691  1.00  0.00     0.078 C 
HETATM   30  C   UNL     1      38.659 -15.068  -2.945  1.00  0.00     0.032 C 
HETATM   31  C   UNL     1      37.060 -13.128  -2.695  1.00  0.00     0.032 C 
ENDBRANCH  25  29
ENDBRANCH  20  23
ENDBRANCH   1  17
TORSDOF 5
ENDMDL
MODEL 8
REMARK VINA RESULT:      -7.9      4.339      7.067
REMARK  5 active torsions:
REMARK  status: ('A' for Active; 'I' for Inactive)
REMARK    1  A    between atoms: C_9  and  C_10 
REMARK       I    between atoms: C_10  and  N_11 
REMARK    2  A    between atoms: N_11  and  C_12 
REMARK    3  A    between atoms: C_12  and  C_13 
REMARK    4  A    between atoms: C_16  and  N_17 
REMARK       I    between atoms: N_17  and  C_18 
REMARK       I    between atoms: C_18  and  N_19 
REMARK    5  A    between atoms: N_19  and  C_20 
ROOT
HETATM    1  C   UNL     1      42.609 -12.851   3.769  1.00  0.00     0.161 C 
ENDROOT
BRANCH   1   2
HETATM    2  N   UNL     1      42.964 -14.123   4.335  1.00  0.00    -0.351 N 
HETATM    3  C   UNL     1      43.104 -15.267   3.587  1.00  0.00     0.273 C 
HETATM    4  O   UNL     1      42.949 -15.300   2.371  1.00  0.00    -0.266 OA
HETATM    5  H   UNL     1      43.128 -14.225   5.333  1.00  0.00     0.163 HD
BRANCH   3   6
HETATM    6  C   UNL     1      43.450 -16.442   4.405  1.00  0.00     0.157 A 
HETATM    7  C   UNL     1      43.581 -17.795   3.975  1.00  0.00     0.029 A 
HETATM    8  C   UNL     1      43.459 -18.491   2.757  1.00  0.00     0.023 A 
HETATM    9  C   UNL     1      43.908 -18.508   5.123  1.00  0.00     0.063 A 
HETATM   10  C   UNL     1      43.665 -19.881   2.730  1.00  0.00    -0.061 A 
HETATM   11  C   UNL     1      43.547 -20.644   1.442  1.00  0.00     0.048 C 
HETATM   12  C   UNL     1      43.995 -20.560   3.910  1.00  0.00     0.009 A 
HETATM   13  C   UNL     1      44.123 -19.888   5.131  1.00  0.00     0.032 A 
HETATM   14  N   UNL     1      43.954 -17.579   6.124  1.00  0.00    -0.277 N 
HETATM   15  H   UNL     1      44.164 -17.743   7.102  1.00  0.00     0.189 HD
HETATM   16  N   UNL     1      43.685 -16.323   5.732  1.00  0.00    -0.168 NA
ENDBRANCH   3   6
ENDBRANCH   1   2
BRANCH   1  17
HETATM   17  C   UNL     1      41.651 -12.131   4.679  1.00  0.00    -0.040 A 
HETATM   18  C   UNL     1      41.642 -10.734   4.754  1.00  0.00     0.011 A 
HETATM   19  C   UNL     1      40.816 -10.074   5.671  1.00  0.00     0.030 A 
HETATM   20  C   UNL     1      40.007 -10.799   6.549  1.00  0.00     0.036 A 
HETATM   21  C   UNL     1      39.979 -12.194   6.440  1.00  0.00     0.030 A 
HETATM   22  C   UNL     1      40.801 -12.856   5.524  1.00  0.00     0.011 A 
BRANCH  20  23
HETATM   23  N   UNL     1      39.186 -10.222   7.533  1.00  0.00    -0.309 N 
HETATM   24  C   UNL     1      39.455  -9.515   8.668  1.00  0.00     0.321 C 
HETATM   25  N   UNL     1      40.740  -9.527   9.118  1.00  0.00    -0.339 N 
HETATM   26  O   UNL     1      38.528  -8.963   9.255  1.00  0.00    -0.247 OA
HETATM   27  H   UNL     1      41.239 -10.365   8.860  1.00  0.00     0.164 HD
HETATM   28  H   UNL     1      38.186 -10.334   7.411  1.00  0.00     0.170 HD
BRANCH  25  29
HETATM   29  C   UNL     1      41.174  -8.913  10.368  1.00  0.00     0.078 C 
HETATM   30  C   UNL     1      42.049  -9.831  11.219  1.00  0.00     0.032 C 
HETATM   31  C   UNL     1      41.841  -7.560  10.131  1.00  0.00     0.032 C 
ENDBRANCH  25  29
ENDBRANCH  20  23
ENDBRANCH   1  17
TORSDOF 5
ENDMDL
MODEL 9
REMARK VINA RESULT:      -7.7      4.292      6.205
REMARK  5 active torsions:
REMARK  status: ('A' for Active; 'I' for Inactive)
REMARK    1  A    between atoms: C_9  and  C_10 
REMARK       I    between atoms: C_10  and  N_11 
REMARK    2  A    between atoms: N_11  and  C_12 
REMARK    3  A    between atoms: C_12  and  C_13 
REMARK    4  A    between atoms: C_16  and  N_17 
REMARK       I    between atoms: N_17  and  C_18 
REMARK       I    between atoms: C_18  and  N_19 
REMARK    5  A    between atoms: N_19  and  C_20 
ROOT
HETATM    1  C   UNL     1      41.218 -13.609   5.474  1.00  0.00     0.161 C 
ENDROOT
BRANCH   1   2
HETATM    2  N   UNL     1      42.379 -12.798   5.718  1.00  0.00    -0.351 N 
HETATM    3  C   UNL     1      43.344 -13.126   6.639  1.00  0.00     0.273 C 
HETATM    4  O   UNL     1      43.306 -14.144   7.323  1.00  0.00    -0.266 OA
HETATM    5  H   UNL     1      42.530 -11.933   5.208  1.00  0.00     0.163 HD
BRANCH   3   6
HETATM    6  C   UNL     1      44.419 -12.122   6.717  1.00  0.00     0.157 A 
HETATM    7  C   UNL     1      44.651 -11.172   7.755  1.00  0.00     0.029 A 
HETATM    8  C   UNL     1      44.043 -10.836   8.980  1.00  0.00     0.023 A 
HETATM    9  C   UNL     1      45.772 -10.460   7.347  1.00  0.00     0.063 A 
HETATM   10  C   UNL     1      44.578  -9.794   9.756  1.00  0.00    -0.061 A 
HETATM   11  C   UNL     1      43.951  -9.423  11.069  1.00  0.00     0.048 C 
HETATM   12  C   UNL     1      45.712  -9.103   9.308  1.00  0.00     0.009 A 
HETATM   13  C   UNL     1      46.332  -9.420   8.095  1.00  0.00     0.032 A 
HETATM   14  N   UNL     1      46.130 -11.004   6.147  1.00  0.00    -0.277 N 
HETATM   15  H   UNL     1      46.907 -10.730   5.557  1.00  0.00     0.189 HD
HETATM   16  N   UNL     1      45.340 -12.008   5.732  1.00  0.00    -0.168 NA
ENDBRANCH   3   6
ENDBRANCH   1   2
BRANCH   1  17
HETATM   17  C   UNL     1      41.012 -13.781   3.993  1.00  0.00    -0.040 A 
HETATM   18  C   UNL     1      40.255 -14.845   3.490  1.00  0.00     0.011 A 
HETATM   19  C   UNL     1      40.146 -15.054   2.110  1.00  0.00     0.030 A 
HETATM   20  C   UNL     1      40.815 -14.221   1.211  1.00  0.00     0.036 A 
HETATM   21  C   UNL     1      41.530 -13.127   1.712  1.00  0.00     0.030 A 
HETATM   22  C   UNL     1      41.639 -12.914   3.089  1.00  0.00     0.011 A 
BRANCH  20  23
HETATM   23  N   UNL     1      40.803 -14.386  -0.185  1.00  0.00    -0.309 N 
HETATM   24  C   UNL     1      40.049 -13.831  -1.178  1.00  0.00     0.321 C 
HETATM   25  N   UNL     1      38.928 -13.155  -0.803  1.00  0.00    -0.339 N 
HETATM   26  O   UNL     1      40.378 -14.019  -2.346  1.00  0.00    -0.247 OA
HETATM   27  H   UNL     1      38.535 -13.495   0.063  1.00  0.00     0.164 HD
HETATM   28  H   UNL     1      41.472 -15.041  -0.570  1.00  0.00     0.170 HD
BRANCH  25  29
HETATM   29  C   UNL     1      37.960 -12.596  -1.740  1.00  0.00     0.078 C 
HETATM   30  C   UNL     1      38.477 -11.361  -2.476  1.00  0.00     0.032 C 
HETATM   31  C   UNL     1      37.436 -13.651  -2.710  1.00  0.00     0.032 C 
ENDBRANCH  25  29
ENDBRANCH  20  23
ENDBRANCH   1  17
TORSDOF 5
ENDMDL
MODEL 10
REMARK VINA RESULT:      -7.5      5.803      8.172
REMARK  5 active torsions:
REMARK  status: ('A' for Active; 'I' for Inactive)
REMARK    1  A    between atoms: C_9  and  C_10 
REMARK       I    between atoms: C_10  and  N_11 
REMARK    2  A    between atoms: N_11  and  C_12 
REMARK    3  A    between atoms: C_12  and  C_13 
REMARK    4  A    between atoms: C_16  and  N_17 
REMARK       I    between atoms: N_17  and  C_18 
REMARK       I    between atoms: C_18  and  N_19 
REMARK    5  A    between atoms: N_19  and  C_20 
ROOT
HETATM    1  C   UNL     1      39.810  -9.102   5.942  1.00  0.00     0.161 C 
ENDROOT
BRANCH   1   2
HETATM    2  N   UNL     1      40.473  -9.422   7.176  1.00  0.00    -0.351 N 
HETATM    3  C   UNL     1      40.315  -8.689   8.327  1.00  0.00     0.273 C 
HETATM    4  O   UNL     1      39.586  -7.706   8.406  1.00  0.00    -0.266 OA
HETATM    5  H   UNL     1      41.099 -10.220   7.243  1.00  0.00     0.163 HD
BRANCH   3   6
HETATM    6  C   UNL     1      41.119  -9.208   9.446  1.00  0.00     0.157 A 
HETATM    7  C   UNL     1      42.537  -9.353   9.508  1.00  0.00     0.029 A 
HETATM    8  C   UNL     1      43.623  -9.093   8.650  1.00  0.00     0.023 A 
HETATM    9  C   UNL     1      42.790  -9.891  10.764  1.00  0.00     0.063 A 
HETATM   10  C   UNL     1      44.929  -9.385   9.079  1.00  0.00    -0.061 A 
HETATM   11  C   UNL     1      46.104  -9.110   8.186  1.00  0.00     0.048 C 
HETATM   12  C   UNL     1      45.139  -9.926  10.355  1.00  0.00     0.009 A 
HETATM   13  C   UNL     1      44.075 -10.191  11.222  1.00  0.00     0.032 A 
HETATM   14  N   UNL     1      41.565 -10.028  11.352  1.00  0.00    -0.277 N 
HETATM   15  H   UNL     1      41.367 -10.392  12.277  1.00  0.00     0.189 HD
HETATM   16  N   UNL     1      40.533  -9.627  10.591  1.00  0.00    -0.168 NA
ENDBRANCH   3   6
ENDBRANCH   1   2
BRANCH   1  17
HETATM   17  C   UNL     1      39.563 -10.357   5.150  1.00  0.00    -0.040 A 
HETATM   18  C   UNL     1      39.608 -11.615   5.762  1.00  0.00     0.011 A 
HETATM   19  C   UNL     1      39.472 -12.783   5.003  1.00  0.00     0.030 A 
HETATM   20  C   UNL     1      39.317 -12.715   3.617  1.00  0.00     0.036 A 
HETATM   21  C   UNL     1      39.220 -11.457   3.012  1.00  0.00     0.030 A 
HETATM   22  C   UNL     1      39.354 -10.288   3.767  1.00  0.00     0.011 A 
BRANCH  20  23
HETATM   23  N   UNL     1      39.222 -13.835   2.772  1.00  0.00    -0.309 N 
HETATM   24  C   UNL     1      40.036 -14.908   2.560  1.00  0.00     0.321 C 
HETATM   25  N   UNL     1      41.302 -14.835   3.055  1.00  0.00    -0.339 N 
HETATM   26  O   UNL     1      39.615 -15.847   1.889  1.00  0.00    -0.247 OA
HETATM   27  H   UNL     1      41.645 -13.888   3.119  1.00  0.00     0.164 HD
HETATM   28  H   UNL     1      38.398 -13.891   2.186  1.00  0.00     0.170 HD
BRANCH  25  29
HETATM   29  C   UNL     1      42.329 -15.846   2.826  1.00  0.00     0.078 C 
HETATM   30  C   UNL     1      43.193 -15.562   1.599  1.00  0.00     0.032 C 
HETATM   31  C   UNL     1      43.179 -16.079   4.072  1.00  0.00     0.032 C 
ENDBRANCH  25  29
ENDBRANCH  20  23
ENDBRANCH   1  17
TORSDOF 5
ENDMDL
