MODEL 1
REMARK VINA RESULT:      -8.9      0.000      0.000
REMARK  3 active torsions:
REMARK  status: ('A' for Active; 'I' for Inactive)
REMARK    1  A    between atoms: C_12  and  C_13 
REMARK       I    between atoms: C_13  and  N_14 
REMARK    2  A    between atoms: N_14  and  C_15 
REMARK    3  A    between atoms: C_15  and  C_16 
ROOT
HETATM    1  C   UNL     1      43.847 -20.902   5.291  1.00  0.00     0.001 A 
HETATM    2  C   UNL     1      43.682 -19.751   6.066  1.00  0.00     0.016 A 
HETATM    3  C   UNL     1      43.594 -18.504   5.444  1.00  0.00     0.026 A 
HETATM    4  C   UNL     1      43.672 -18.409   4.040  1.00  0.00     0.081 A 
HETATM    5  O   UNL     1      43.596 -17.232   3.326  1.00  0.00    -0.346 OA
HETATM    6  C   UNL     1      43.417 -15.967   4.028  1.00  0.00     0.219 A 
HETATM    7  C   UNL     1      43.335 -16.062   5.501  1.00  0.00     0.031 A 
HETATM    8  C   UNL     1      43.421 -17.262   6.152  1.00  0.00     0.074 A 
HETATM    9  N   UNL     1      43.309 -16.988   7.477  1.00  0.00    -0.276 N 
HETATM   10  H   UNL     1      43.331 -17.634   8.259  1.00  0.00     0.189 HD
HETATM   11  N   UNL     1      43.148 -15.670   7.736  1.00  0.00    -0.168 NA
HETATM   12  C   UNL     1      43.163 -15.089   6.513  1.00  0.00     0.155 A 
HETATM   13  C   UNL     1      43.838 -19.564   3.276  1.00  0.00     0.038 A 
HETATM   14  C   UNL     1      43.925 -20.809   3.901  1.00  0.00     0.003 A 
ENDROOT
BRANCH  12  15
HETATM   15  C   UNL     1      43.013 -13.637   6.331  1.00  0.00     0.272 C 
HETATM   16  N   UNL     1      44.204 -12.957   6.379  1.00  0.00    -0.351 N 
HETATM   17  H   UNL     1      45.036 -13.526   6.507  1.00  0.00     0.163 HD
HETATM   18  O   UNL     1      41.923 -13.103   6.155  1.00  0.00    -0.266 OA
BRANCH  16  19
HETATM   19  C   UNL     1      44.309 -11.530   6.230  1.00  0.00     0.161 C 
BRANCH  19  20
HETATM   20  C   UNL     1      44.232 -10.830   7.564  1.00  0.00    -0.040 A 
HETATM   21  C   UNL     1      43.026 -10.256   7.994  1.00  0.00     0.010 A 
HETATM   22  C   UNL     1      42.944  -9.620   9.236  1.00  0.00     0.024 A 
HETATM   23  C   UNL     1      44.068  -9.562  10.056  1.00  0.00     0.034 A 
HETATM   24 CL   UNL     1      43.968  -8.785  11.588  1.00  0.00    -0.084 Cl
HETATM   25  C   UNL     1      45.272 -10.129   9.646  1.00  0.00     0.024 A 
HETATM   26  C   UNL     1      45.354 -10.762   8.402  1.00  0.00     0.010 A 
ENDBRANCH  19  20
ENDBRANCH  16  19
ENDBRANCH  12  15
TORSDOF 3
ENDMDL
MODEL 2
REMARK VINA RESULT:      -8.8      5.214      6.931
REMARK  3 active torsions:
REMARK  status: ('A' for Active; 'I' for Inactive)
REMARK    1  A    between atoms: C_12  and  C_13 
REMARK       I    between atoms: C_13  and  N_14 
REMARK    2  A    between atoms: N_14  and  C_15 
REMARK    3  A    between atoms: C_15  and  C_16 
ROOT
HETATM    1  C   UNL     1      44.160 -20.458   5.008  1.00  0.00     0.001 A 
HETATM    2  C   UNL     1      43.967 -19.096   5.252  1.00  0.00     0.016 A 
HETATM    3  C   UNL     1      43.624 -18.245   4.198  1.00  0.00     0.026 A 
HETATM    4  C   UNL     1      43.472 -18.762   2.896  1.00  0.00     0.081 A 
HETATM    5  O   UNL     1      43.136 -18.014   1.788  1.00  0.00    -0.346 OA
HETATM    6  C   UNL     1      42.903 -16.582   1.921  1.00  0.00     0.219 A 
HETATM    7  C   UNL     1      43.060 -16.036   3.286  1.00  0.00     0.031 A 
HETATM    8  C   UNL     1      43.401 -16.830   4.346  1.00  0.00     0.074 A 
HETATM    9  N   UNL     1      43.458 -16.018   5.432  1.00  0.00    -0.276 N 
HETATM   10  H   UNL     1      43.683 -16.261   6.390  1.00  0.00     0.189 HD
HETATM   11  N   UNL     1      43.169 -14.728   5.146  1.00  0.00    -0.168 NA
HETATM   12  C   UNL     1      42.920 -14.732   3.815  1.00  0.00     0.155 A 
HETATM   13  C   UNL     1      43.668 -20.124   2.664  1.00  0.00     0.038 A 
HETATM   14  C   UNL     1      44.011 -20.970   3.719  1.00  0.00     0.003 A 
ENDROOT
BRANCH  12  15
HETATM   15  C   UNL     1      42.556 -13.511   3.080  1.00  0.00     0.272 C 
HETATM   16  N   UNL     1      41.253 -13.504   2.648  1.00  0.00    -0.351 N 
HETATM   17  H   UNL     1      40.696 -14.315   2.902  1.00  0.00     0.163 HD
HETATM   18  O   UNL     1      43.351 -12.598   2.881  1.00  0.00    -0.266 OA
BRANCH  16  19
HETATM   19  C   UNL     1      40.669 -12.419   1.906  1.00  0.00     0.161 C 
BRANCH  19  20
HETATM   20  C   UNL     1      39.993 -12.911   0.651  1.00  0.00    -0.040 A 
HETATM   21  C   UNL     1      39.154 -12.058  -0.083  1.00  0.00     0.010 A 
HETATM   22  C   UNL     1      38.539 -12.503  -1.256  1.00  0.00     0.024 A 
HETATM   23  C   UNL     1      38.765 -13.801  -1.704  1.00  0.00     0.034 A 
HETATM   24 CL   UNL     1      38.014 -14.349  -3.152  1.00  0.00    -0.084 Cl
HETATM   25  C   UNL     1      39.598 -14.659  -0.990  1.00  0.00     0.024 A 
HETATM   26  C   UNL     1      40.211 -14.215   0.185  1.00  0.00     0.010 A 
ENDBRANCH  19  20
ENDBRANCH  16  19
ENDBRANCH  12  15
TORSDOF 3
ENDMDL
MODEL 3
REMARK VINA RESULT:      -8.6      2.240      3.049
REMARK  3 active torsions:
REMARK  status: ('A' for Active; 'I' for Inactive)
REMARK    1  A    between atoms: C_12  and  C_13 
REMARK       I    between atoms: C_13  and  N_14 
REMARK    2  A    between atoms: N_14  and  C_15 
REMARK    3  A    between atoms: C_15  and  C_16 
ROOT
HETATM    1  C   UNL     1      44.053 -20.852   3.443  1.00  0.00     0.001 A 
HETATM    2  C   UNL     1      43.769 -19.625   2.838  1.00  0.00     0.016 A 
HETATM    3  C   UNL     1      43.544 -18.497   3.631  1.00  0.00     0.026 A 
HETATM    4  C   UNL     1      43.603 -18.599   5.035  1.00  0.00     0.081 A 
HETATM    5  O   UNL     1      43.399 -17.553   5.909  1.00  0.00    -0.346 OA
HETATM    6  C   UNL     1      43.102 -16.223   5.393  1.00  0.00     0.219 A 
HETATM    7  C   UNL     1      43.039 -16.111   3.920  1.00  0.00     0.031 A 
HETATM    8  C   UNL     1      43.247 -17.190   3.105  1.00  0.00     0.074 A 
HETATM    9  N   UNL     1      43.118 -16.739   1.831  1.00  0.00    -0.276 N 
HETATM   10  H   UNL     1      43.204 -17.261   0.966  1.00  0.00     0.189 HD
HETATM   11  N   UNL     1      42.838 -15.418   1.760  1.00  0.00    -0.168 NA
HETATM   12  C   UNL     1      42.788 -15.021   3.054  1.00  0.00     0.155 A 
HETATM   13  C   UNL     1      43.887 -19.829   5.629  1.00  0.00     0.038 A 
HETATM   14  C   UNL     1      44.112 -20.954   4.834  1.00  0.00     0.003 A 
ENDROOT
BRANCH  12  15
HETATM   15  C   UNL     1      42.509 -13.629   3.439  1.00  0.00     0.272 C 
HETATM   16  N   UNL     1      43.616 -12.819   3.389  1.00  0.00    -0.351 N 
HETATM   17  H   UNL     1      44.476 -13.259   3.076  1.00  0.00     0.163 HD
HETATM   18  O   UNL     1      41.391 -13.247   3.769  1.00  0.00    -0.266 OA
BRANCH  16  19
HETATM   19  C   UNL     1      43.590 -11.419   3.724  1.00  0.00     0.161 C 
BRANCH  19  20
HETATM   20  C   UNL     1      43.928 -11.194   5.176  1.00  0.00    -0.040 A 
HETATM   21  C   UNL     1      45.229 -11.429   5.646  1.00  0.00     0.010 A 
HETATM   22  C   UNL     1      45.552 -11.206   6.987  1.00  0.00     0.024 A 
HETATM   23  C   UNL     1      44.575 -10.741   7.864  1.00  0.00     0.034 A 
HETATM   24 CL   UNL     1      44.972 -10.460   9.514  1.00  0.00    -0.084 Cl
HETATM   25  C   UNL     1      43.280 -10.499   7.413  1.00  0.00     0.024 A 
HETATM   26  C   UNL     1      42.957 -10.726   6.072  1.00  0.00     0.010 A 
ENDBRANCH  19  20
ENDBRANCH  16  19
ENDBRANCH  12  15
TORSDOF 3
ENDMDL
MODEL 4
REMARK VINA RESULT:      -8.6      3.516      8.443
REMARK  3 active torsions:
REMARK  status: ('A' for Active; 'I' for Inactive)
REMARK    1  A    between atoms: C_12  and  C_13 
REMARK       I    between atoms: C_13  and  N_14 
REMARK    2  A    between atoms: N_14  and  C_15 
REMARK    3  A    between atoms: C_15  and  C_16 
ROOT
HETATM    1  C   UNL     1      43.328  -9.098  10.611  1.00  0.00     0.001 A 
HETATM    2  C   UNL     1      42.718  -9.577   9.448  1.00  0.00     0.016 A 
HETATM    3  C   UNL     1      43.481 -10.259   8.497  1.00  0.00     0.026 A 
HETATM    4  C   UNL     1      44.859 -10.462   8.711  1.00  0.00     0.081 A 
HETATM    5  O   UNL     1      45.701 -11.120   7.841  1.00  0.00    -0.346 OA
HETATM    6  C   UNL     1      45.177 -11.669   6.598  1.00  0.00     0.219 A 
HETATM    7  C   UNL     1      43.731 -11.460   6.369  1.00  0.00     0.031 A 
HETATM    8  C   UNL     1      42.947 -10.793   7.270  1.00  0.00     0.074 A 
HETATM    9  N   UNL     1      41.693 -10.783   6.754  1.00  0.00    -0.276 N 
HETATM   10  H   UNL     1      40.852 -10.374   7.147  1.00  0.00     0.189 HD
HETATM   11  N   UNL     1      41.604 -11.411   5.559  1.00  0.00    -0.168 NA
HETATM   12  C   UNL     1      42.867 -11.834   5.314  1.00  0.00     0.155 A 
HETATM   13  C   UNL     1      45.457  -9.978   9.875  1.00  0.00     0.038 A 
HETATM   14  C   UNL     1      44.692  -9.298  10.823  1.00  0.00     0.003 A 
ENDROOT
BRANCH  12  15
HETATM   15  C   UNL     1      43.223 -12.580   4.098  1.00  0.00     0.272 C 
HETATM   16  N   UNL     1      42.639 -13.821   4.030  1.00  0.00    -0.351 N 
HETATM   17  H   UNL     1      42.022 -14.064   4.800  1.00  0.00     0.163 HD
HETATM   18  O   UNL     1      43.971 -12.125   3.239  1.00  0.00    -0.266 OA
BRANCH  16  19
HETATM   19  C   UNL     1      42.841 -14.734   2.937  1.00  0.00     0.161 C 
BRANCH  19  20
HETATM   20  C   UNL     1      43.266 -16.095   3.427  1.00  0.00    -0.040 A 
HETATM   21  C   UNL     1      43.644 -16.280   4.766  1.00  0.00     0.010 A 
HETATM   22  C   UNL     1      44.023 -17.542   5.230  1.00  0.00     0.024 A 
HETATM   23  C   UNL     1      44.019 -18.628   4.359  1.00  0.00     0.034 A 
HETATM   24 CL   UNL     1      44.480 -20.184   4.930  1.00  0.00    -0.084 Cl
HETATM   25  C   UNL     1      43.642 -18.463   3.028  1.00  0.00     0.024 A 
HETATM   26  C   UNL     1      43.266 -17.199   2.563  1.00  0.00     0.010 A 
ENDBRANCH  19  20
ENDBRANCH  16  19
ENDBRANCH  12  15
TORSDOF 3
ENDMDL
MODEL 5
REMARK VINA RESULT:      -8.4      3.854      8.769
REMARK  3 active torsions:
REMARK  status: ('A' for Active; 'I' for Inactive)
REMARK    1  A    between atoms: C_12  and  C_13 
REMARK       I    between atoms: C_13  and  N_14 
REMARK    2  A    between atoms: N_14  and  C_15 
REMARK    3  A    between atoms: C_15  and  C_16 
ROOT
HETATM    1  C   UNL     1      43.975  -8.998  11.465  1.00  0.00     0.001 A 
HETATM    2  C   UNL     1      44.528  -9.682  10.379  1.00  0.00     0.016 A 
HETATM    3  C   UNL     1      43.782  -9.844   9.210  1.00  0.00     0.026 A 
HETATM    4  C   UNL     1      42.476  -9.319   9.128  1.00  0.00     0.081 A 
HETATM    5  O   UNL     1      41.656  -9.421   8.025  1.00  0.00    -0.346 OA
HETATM    6  C   UNL     1      42.128 -10.107   6.830  1.00  0.00     0.219 A 
HETATM    7  C   UNL     1      43.497 -10.659   6.911  1.00  0.00     0.031 A 
HETATM    8  C   UNL     1      44.261 -10.529   8.037  1.00  0.00     0.074 A 
HETATM    9  N   UNL     1      45.443 -11.141   7.772  1.00  0.00    -0.276 N 
HETATM   10  H   UNL     1      46.251 -11.243   8.377  1.00  0.00     0.189 HD
HETATM   11  N   UNL     1      45.502 -11.667   6.527  1.00  0.00    -0.168 NA
HETATM   12  C   UNL     1      44.296 -11.371   5.986  1.00  0.00     0.155 A 
HETATM   13  C   UNL     1      41.934  -8.639  10.219  1.00  0.00     0.038 A 
HETATM   14  C   UNL     1      42.682  -8.479  11.385  1.00  0.00     0.003 A 
ENDROOT
BRANCH  12  15
HETATM   15  C   UNL     1      43.933 -11.763   4.616  1.00  0.00     0.272 C 
HETATM   16  N   UNL     1      43.043 -12.807   4.568  1.00  0.00    -0.351 N 
HETATM   17  H   UNL     1      42.727 -13.164   5.464  1.00  0.00     0.163 HD
HETATM   18  O   UNL     1      44.389 -11.201   3.626  1.00  0.00    -0.266 OA
BRANCH  16  19
HETATM   19  C   UNL     1      42.543 -13.367   3.340  1.00  0.00     0.161 C 
BRANCH  19  20
HETATM   20  C   UNL     1      42.868 -14.835   3.231  1.00  0.00    -0.040 A 
HETATM   21  C   UNL     1      43.054 -15.607   4.388  1.00  0.00     0.010 A 
HETATM   22  C   UNL     1      43.339 -16.972   4.294  1.00  0.00     0.024 A 
HETATM   23  C   UNL     1      43.434 -17.572   3.042  1.00  0.00     0.034 A 
HETATM   24 CL   UNL     1      43.779 -19.254   2.924  1.00  0.00    -0.084 Cl
HETATM   25  C   UNL     1      43.249 -16.822   1.884  1.00  0.00     0.024 A 
HETATM   26  C   UNL     1      42.967 -15.456   1.978  1.00  0.00     0.010 A 
ENDBRANCH  19  20
ENDBRANCH  16  19
ENDBRANCH  12  15
TORSDOF 3
ENDMDL
MODEL 6
REMARK VINA RESULT:      -7.8      4.379      9.855
REMARK  3 active torsions:
REMARK  status: ('A' for Active; 'I' for Inactive)
REMARK    1  A    between atoms: C_12  and  C_13 
REMARK       I    between atoms: C_13  and  N_14 
REMARK    2  A    between atoms: N_14  and  C_15 
REMARK    3  A    between atoms: C_15  and  C_16 
ROOT
HETATM    1  C   UNL     1      41.511  -7.981  15.083  1.00  0.00     0.001 A 
HETATM    2  C   UNL     1      42.064  -8.973  14.269  1.00  0.00     0.016 A 
HETATM    3  C   UNL     1      42.493  -8.651  12.979  1.00  0.00     0.026 A 
HETATM    4  C   UNL     1      42.366  -7.331  12.503  1.00  0.00     0.081 A 
HETATM    5  O   UNL     1      42.756  -6.905  11.251  1.00  0.00    -0.346 OA
HETATM    6  C   UNL     1      43.354  -7.850  10.317  1.00  0.00     0.219 A 
HETATM    7  C   UNL     1      43.489  -9.237  10.812  1.00  0.00     0.031 A 
HETATM    8  C   UNL     1      43.078  -9.598  12.066  1.00  0.00     0.074 A 
HETATM    9  N   UNL     1      43.346 -10.922  12.191  1.00  0.00    -0.276 N 
HETATM   10  H   UNL     1      43.174 -11.529  12.985  1.00  0.00     0.189 HD
HETATM   11  N   UNL     1      43.917 -11.456  11.086  1.00  0.00    -0.168 NA
HETATM   12  C   UNL     1      44.009 -10.414  10.226  1.00  0.00     0.155 A 
HETATM   13  C   UNL     1      41.811  -6.349  13.324  1.00  0.00     0.038 A 
HETATM   14  C   UNL     1      41.384  -6.674  14.612  1.00  0.00     0.003 A 
ENDROOT
BRANCH  12  15
HETATM   15  C   UNL     1      44.585 -10.555   8.880  1.00  0.00     0.272 C 
HETATM   16  N   UNL     1      43.960 -11.512   8.119  1.00  0.00    -0.351 N 
HETATM   17  H   UNL     1      43.173 -11.984   8.556  1.00  0.00     0.163 HD
HETATM   18  O   UNL     1      45.531  -9.878   8.492  1.00  0.00    -0.266 OA
BRANCH  16  19
HETATM   19  C   UNL     1      44.349 -11.832   6.771  1.00  0.00     0.161 C 
BRANCH  19  20
HETATM   20  C   UNL     1      43.531 -12.971   6.217  1.00  0.00    -0.040 A 
HETATM   21  C   UNL     1      43.097 -12.948   4.883  1.00  0.00     0.010 A 
HETATM   22  C   UNL     1      42.353 -14.009   4.359  1.00  0.00     0.024 A 
HETATM   23  C   UNL     1      42.045 -15.101   5.167  1.00  0.00     0.034 A 
HETATM   24 CL   UNL     1      41.134 -16.411   4.522  1.00  0.00    -0.084 Cl
HETATM   25  C   UNL     1      42.472 -15.141   6.492  1.00  0.00     0.024 A 
HETATM   26  C   UNL     1      43.213 -14.078   7.016  1.00  0.00     0.010 A 
ENDBRANCH  19  20
ENDBRANCH  16  19
ENDBRANCH  12  15
TORSDOF 3
ENDMDL
MODEL 7
REMARK VINA RESULT:      -7.7      3.446      8.974
REMARK  3 active torsions:
REMARK  status: ('A' for Active; 'I' for Inactive)
REMARK    1  A    between atoms: C_12  and  C_13 
REMARK       I    between atoms: C_13  and  N_14 
REMARK    2  A    between atoms: N_14  and  C_15 
REMARK    3  A    between atoms: C_15  and  C_16 
ROOT
HETATM    1  C   UNL     1      43.358  -8.206  12.384  1.00  0.00     0.001 A 
HETATM    2  C   UNL     1      43.960  -8.991  11.397  1.00  0.00     0.016 A 
HETATM    3  C   UNL     1      43.276  -9.254  10.208  1.00  0.00     0.026 A 
HETATM    4  C   UNL     1      41.985  -8.727  10.006  1.00  0.00     0.081 A 
HETATM    5  O   UNL     1      41.224  -8.923   8.873  1.00  0.00    -0.346 OA
HETATM    6  C   UNL     1      41.751  -9.720   7.773  1.00  0.00     0.219 A 
HETATM    7  C   UNL     1      43.106 -10.274   7.980  1.00  0.00     0.031 A 
HETATM    8  C   UNL     1      43.810 -10.047   9.131  1.00  0.00     0.074 A 
HETATM    9  N   UNL     1      44.996 -10.692   8.989  1.00  0.00    -0.276 N 
HETATM   10  H   UNL     1      45.767 -10.745   9.645  1.00  0.00     0.189 HD
HETATM   11  N   UNL     1      45.115 -11.330   7.802  1.00  0.00    -0.168 NA
HETATM   12  C   UNL     1      43.945 -11.074   7.170  1.00  0.00     0.155 A 
HETATM   13  C   UNL     1      41.393  -7.945  10.998  1.00  0.00     0.038 A 
HETATM   14  C   UNL     1      42.079  -7.685  12.185  1.00  0.00     0.003 A 
ENDROOT
BRANCH  12  15
HETATM   15  C   UNL     1      43.651 -11.587   5.824  1.00  0.00     0.272 C 
HETATM   16  N   UNL     1      43.299 -12.914   5.812  1.00  0.00    -0.351 N 
HETATM   17  H   UNL     1      43.260 -13.372   6.718  1.00  0.00     0.163 HD
HETATM   18  O   UNL     1      43.719 -10.885   4.820  1.00  0.00    -0.266 OA
BRANCH  16  19
HETATM   19  C   UNL     1      42.971 -13.637   4.612  1.00  0.00     0.161 C 
BRANCH  19  20
HETATM   20  C   UNL     1      43.260 -15.110   4.759  1.00  0.00    -0.040 A 
HETATM   21  C   UNL     1      43.684 -15.629   5.992  1.00  0.00     0.010 A 
HETATM   22  C   UNL     1      43.937 -16.995   6.139  1.00  0.00     0.024 A 
HETATM   23  C   UNL     1      43.762 -17.850   5.054  1.00  0.00     0.034 A 
HETATM   24 CL   UNL     1      44.068 -19.534   5.234  1.00  0.00    -0.084 Cl
HETATM   25  C   UNL     1      43.338 -17.352   3.825  1.00  0.00     0.024 A 
HETATM   26  C   UNL     1      43.088 -15.984   3.677  1.00  0.00     0.010 A 
ENDBRANCH  19  20
ENDBRANCH  16  19
ENDBRANCH  12  15
TORSDOF 3
ENDMDL
MODEL 8
REMARK VINA RESULT:      -7.7      4.071      8.644
REMARK  3 active torsions:
REMARK  status: ('A' for Active; 'I' for Inactive)
REMARK    1  A    between atoms: C_12  and  C_13 
REMARK       I    between atoms: C_13  and  N_14 
REMARK    2  A    between atoms: N_14  and  C_15 
REMARK    3  A    between atoms: C_15  and  C_16 
ROOT
HETATM    1  C   UNL     1      40.888  -8.978   7.726  1.00  0.00     0.001 A 
HETATM    2  C   UNL     1      41.672  -9.539   6.714  1.00  0.00     0.016 A 
HETATM    3  C   UNL     1      41.201 -10.648   6.007  1.00  0.00     0.026 A 
HETATM    4  C   UNL     1      39.940 -11.197   6.316  1.00  0.00     0.081 A 
HETATM    5  O   UNL     1      39.381 -12.286   5.683  1.00  0.00    -0.346 OA
HETATM    6  C   UNL     1      40.103 -12.950   4.606  1.00  0.00     0.219 A 
HETATM    7  C   UNL     1      41.426 -12.377   4.278  1.00  0.00     0.031 A 
HETATM    8  C   UNL     1      41.929 -11.295   4.947  1.00  0.00     0.074 A 
HETATM    9  N   UNL     1      43.144 -11.037   4.401  1.00  0.00    -0.276 N 
HETATM   10  H   UNL     1      43.805 -10.308   4.647  1.00  0.00     0.189 HD
HETATM   11  N   UNL     1      43.470 -11.889   3.402  1.00  0.00    -0.168 NA
HETATM   12  C   UNL     1      42.407 -12.724   3.320  1.00  0.00     0.155 A 
HETATM   13  C   UNL     1      39.167 -10.629   7.329  1.00  0.00     0.038 A 
HETATM   14  C   UNL     1      39.640  -9.521   8.032  1.00  0.00     0.003 A 
ENDROOT
BRANCH  12  15
HETATM   15  C   UNL     1      42.343 -13.821   2.342  1.00  0.00     0.272 C 
HETATM   16  N   UNL     1      43.135 -14.892   2.674  1.00  0.00    -0.351 N 
HETATM   17  H   UNL     1      43.644 -14.814   3.550  1.00  0.00     0.163 HD
HETATM   18  O   UNL     1      41.645 -13.767   1.335  1.00  0.00    -0.266 OA
BRANCH  16  19
HETATM   19  C   UNL     1      43.239 -16.081   1.870  1.00  0.00     0.161 C 
BRANCH  19  20
HETATM   20  C   UNL     1      43.486 -17.301   2.721  1.00  0.00    -0.040 A 
HETATM   21  C   UNL     1      43.428 -18.584   2.153  1.00  0.00     0.010 A 
HETATM   22  C   UNL     1      43.672 -19.718   2.933  1.00  0.00     0.024 A 
HETATM   23  C   UNL     1      43.981 -19.574   4.283  1.00  0.00     0.034 A 
HETATM   24 CL   UNL     1      44.287 -20.968   5.243  1.00  0.00    -0.084 Cl
HETATM   25  C   UNL     1      44.046 -18.308   4.861  1.00  0.00     0.024 A 
HETATM   26  C   UNL     1      43.798 -17.174   4.081  1.00  0.00     0.010 A 
ENDBRANCH  19  20
ENDBRANCH  16  19
ENDBRANCH  12  15
TORSDOF 3
ENDMDL
MODEL 9
REMARK VINA RESULT:      -7.7     16.282     18.250
REMARK  3 active torsions:
REMARK  status: ('A' for Active; 'I' for Inactive)
REMARK    1  A    between atoms: C_12  and  C_13 
REMARK       I    between atoms: C_13  and  N_14 
REMARK    2  A    between atoms: N_14  and  C_15 
REMARK    3  A    between atoms: C_15  and  C_16 
ROOT
HETATM    1  C   UNL     1      50.812 -31.557   5.013  1.00  0.00     0.001 A 
HETATM    2  C   UNL     1      50.050 -30.515   4.479  1.00  0.00     0.016 A 
HETATM    3  C   UNL     1      49.625 -30.579   3.150  1.00  0.00     0.026 A 
HETATM    4  C   UNL     1      49.964 -31.691   2.354  1.00  0.00     0.081 A 
HETATM    5  O   UNL     1      49.597 -31.856   1.035  1.00  0.00    -0.346 OA
HETATM    6  C   UNL     1      48.794 -30.836   0.372  1.00  0.00     0.219 A 
HETATM    7  C   UNL     1      48.435 -29.668   1.204  1.00  0.00     0.031 A 
HETATM    8  C   UNL     1      48.835 -29.560   2.508  1.00  0.00     0.074 A 
HETATM    9  N   UNL     1      48.339 -28.383   2.965  1.00  0.00    -0.276 N 
HETATM   10  H   UNL     1      48.437 -27.972   3.888  1.00  0.00     0.189 HD
HETATM   11  N   UNL     1      47.629 -27.706   2.034  1.00  0.00    -0.168 NA
HETATM   12  C   UNL     1      47.684 -28.499   0.937  1.00  0.00     0.155 A 
HETATM   13  C   UNL     1      50.726 -32.726   2.898  1.00  0.00     0.038 A 
HETATM   14  C   UNL     1      51.149 -32.658   4.226  1.00  0.00     0.003 A 
ENDROOT
BRANCH  12  15
HETATM   15  C   UNL     1      47.028 -28.137  -0.328  1.00  0.00     0.272 C 
HETATM   16  N   UNL     1      45.657 -28.180  -0.262  1.00  0.00    -0.351 N 
HETATM   17  H   UNL     1      45.264 -28.429   0.641  1.00  0.00     0.163 HD
HETATM   18  O   UNL     1      47.658 -27.828  -1.335  1.00  0.00    -0.266 OA
BRANCH  16  19
HETATM   19  C   UNL     1      44.799 -27.870  -1.374  1.00  0.00     0.161 C 
BRANCH  19  20
HETATM   20  C   UNL     1      44.591 -29.070  -2.262  1.00  0.00    -0.040 A 
HETATM   21  C   UNL     1      44.617 -28.932  -3.658  1.00  0.00     0.010 A 
HETATM   22  C   UNL     1      44.442 -30.045  -4.486  1.00  0.00     0.024 A 
HETATM   23  C   UNL     1      44.246 -31.302  -3.920  1.00  0.00     0.034 A 
HETATM   24 CL   UNL     1      44.036 -32.673  -4.938  1.00  0.00    -0.084 Cl
HETATM   25  C   UNL     1      44.221 -31.457  -2.537  1.00  0.00     0.024 A 
HETATM   26  C   UNL     1      44.393 -30.344  -1.709  1.00  0.00     0.010 A 
ENDBRANCH  19  20
ENDBRANCH  16  19
ENDBRANCH  12  15
TORSDOF 3
ENDMDL
MODEL 10
REMARK VINA RESULT:      -7.7      6.130      8.829
REMARK  3 active torsions:
REMARK  status: ('A' for Active; 'I' for Inactive)
REMARK    1  A    between atoms: C_12  and  C_13 
REMARK       I    between atoms: C_13  and  N_14 
REMARK    2  A    between atoms: N_14  and  C_15 
REMARK    3  A    between atoms: C_15  and  C_16 
ROOT
HETATM    1  C   UNL     1      40.779 -10.671  -3.391  1.00  0.00     0.001 A 
HETATM    2  C   UNL     1      40.730 -11.809  -2.581  1.00  0.00     0.016 A 
HETATM    3  C   UNL     1      40.998 -11.699  -1.215  1.00  0.00     0.026 A 
HETATM    4  C   UNL     1      41.317 -10.445  -0.657  1.00  0.00     0.081 A 
HETATM    5  O   UNL     1      41.597 -10.224   0.674  1.00  0.00    -0.346 OA
HETATM    6  C   UNL     1      41.569 -11.336   1.616  1.00  0.00     0.219 A 
HETATM    7  C   UNL     1      41.234 -12.654   1.036  1.00  0.00     0.031 A 
HETATM    8  C   UNL     1      40.969 -12.809  -0.298  1.00  0.00     0.074 A 
HETATM    9  N   UNL     1      40.705 -14.126  -0.485  1.00  0.00    -0.276 N 
HETATM   10  H   UNL     1      40.469 -14.606  -1.347  1.00  0.00     0.189 HD
HETATM   11  N   UNL     1      40.776 -14.851   0.654  1.00  0.00    -0.168 NA
HETATM   12  C   UNL     1      41.104 -13.942   1.603  1.00  0.00     0.155 A 
HETATM   13  C   UNL     1      41.364  -9.315  -1.475  1.00  0.00     0.038 A 
HETATM   14  C   UNL     1      41.096  -9.429  -2.840  1.00  0.00     0.003 A 
ENDROOT
BRANCH  12  15
HETATM   15  C   UNL     1      41.283 -14.312   3.016  1.00  0.00     0.272 C 
HETATM   16  N   UNL     1      42.598 -14.335   3.409  1.00  0.00    -0.351 N 
HETATM   17  H   UNL     1      43.279 -14.077   2.701  1.00  0.00     0.163 HD
HETATM   18  O   UNL     1      40.339 -14.570   3.755  1.00  0.00    -0.266 OA
BRANCH  16  19
HETATM   19  C   UNL     1      43.021 -14.671   4.743  1.00  0.00     0.161 C 
BRANCH  19  20
HETATM   20  C   UNL     1      43.305 -16.146   4.876  1.00  0.00    -0.040 A 
HETATM   21  C   UNL     1      43.268 -16.764   6.135  1.00  0.00     0.010 A 
HETATM   22  C   UNL     1      43.514 -18.134   6.263  1.00  0.00     0.024 A 
HETATM   23  C   UNL     1      43.792 -18.893   5.129  1.00  0.00     0.034 A 
HETATM   24 CL   UNL     1      44.089 -20.581   5.283  1.00  0.00    -0.084 Cl
HETATM   25  C   UNL     1      43.828 -18.296   3.871  1.00  0.00     0.024 A 
HETATM   26  C   UNL     1      43.585 -16.925   3.745  1.00  0.00     0.010 A 
ENDBRANCH  19  20
ENDBRANCH  16  19
ENDBRANCH  12  15
TORSDOF 3
ENDMDL
