MODEL 1
REMARK VINA RESULT:      -9.3      0.000      0.000
REMARK  5 active torsions:
REMARK  status: ('A' for Active; 'I' for Inactive)
REMARK    1  A    between atoms: C_6  and  C_7 
REMARK       I    between atoms: C_7  and  N_8 
REMARK    2  A    between atoms: N_8  and  C_9 
REMARK    3  A    between atoms: C_16  and  C_17 
REMARK    4  A    between atoms: C_23  and  C_24 
REMARK       I    between atoms: C_24  and  N_25 
REMARK    5  A    between atoms: N_25  and  C_26 
ROOT
HETATM    1  C   UNL     1      41.603 -10.365   3.311  1.00  0.00     0.069 C 
HETATM    2  C   UNL     1      41.989 -11.824   3.286  1.00  0.00     0.018 C 
HETATM    3  N   UNL     1      41.249 -12.630   2.431  1.00  0.00    -0.362 N 
HETATM    4  C   UNL     1      41.567 -13.948   2.136  1.00  0.00     0.018 C 
HETATM    5  C   UNL     1      40.792 -14.580   1.008  1.00  0.00     0.069 C 
HETATM    6  C   UNL     1      42.546 -14.564   2.833  1.00  0.00     0.045 C 
HETATM    7  C   UNL     1      43.319 -13.853   3.937  1.00  0.00     0.101 C 
HETATM    8  C   UNL     1      42.996 -12.361   4.011  1.00  0.00     0.045 C 
HETATM    9  H   UNL     1      40.573 -12.169   1.826  1.00  0.00     0.165 HD
ENDROOT
BRANCH   6  10
HETATM   10  C   UNL     1      43.049 -15.889   2.388  1.00  0.00     0.255 C 
HETATM   11  N   UNL     1      42.816 -16.888   3.303  1.00  0.00    -0.323 N 
HETATM   12  H   UNL     1      42.398 -16.622   4.188  1.00  0.00     0.169 HD
HETATM   13  O   UNL     1      43.624 -15.975   1.310  1.00  0.00    -0.268 OA
BRANCH  11  14
HETATM   14  C   UNL     1      43.183 -18.245   3.190  1.00  0.00     0.035 A 
HETATM   15  C   UNL     1      42.969 -19.014   2.044  1.00  0.00     0.029 A 
HETATM   16  C   UNL     1      43.354 -20.357   2.013  1.00  0.00     0.002 A 
HETATM   17  C   UNL     1      43.965 -20.939   3.123  1.00  0.00     0.000 A 
HETATM   18  C   UNL     1      44.184 -20.178   4.268  1.00  0.00     0.002 A 
HETATM   19  C   UNL     1      43.788 -18.839   4.305  1.00  0.00     0.029 A 
ENDBRANCH  11  14
ENDBRANCH   6  10
BRANCH   7  20
HETATM   20  C   UNL     1      43.111 -14.538   5.281  1.00  0.00    -0.027 A 
HETATM   21  C   UNL     1      41.841 -14.622   5.848  1.00  0.00     0.124 A 
HETATM   22  N   UNL     1      41.585 -15.163   7.060  1.00  0.00    -0.273 NA
HETATM   23  C   UNL     1      42.636 -15.673   7.736  1.00  0.00     0.116 A 
HETATM   24  C   UNL     1      43.938 -15.644   7.266  1.00  0.00     0.020 A 
HETATM   25  C   UNL     1      44.177 -15.061   6.026  1.00  0.00     0.011 A 
ENDBRANCH   7  20
BRANCH   8  26
HETATM   26  C   UNL     1      43.747 -11.526   4.992  1.00  0.00     0.255 C 
HETATM   27  N   UNL     1      43.030 -11.261   6.140  1.00  0.00    -0.323 N 
HETATM   28  H   UNL     1      42.104 -11.661   6.218  1.00  0.00     0.169 HD
HETATM   29  O   UNL     1      44.882 -11.150   4.723  1.00  0.00    -0.268 OA
BRANCH  27  30
HETATM   30  C   UNL     1      43.450 -10.497   7.249  1.00  0.00     0.035 A 
HETATM   31  C   UNL     1      42.880  -9.277   7.618  1.00  0.00     0.029 A 
HETATM   32  C   UNL     1      43.363  -8.576   8.729  1.00  0.00     0.002 A 
HETATM   33  C   UNL     1      44.412  -9.092   9.484  1.00  0.00     0.000 A 
HETATM   34  C   UNL     1      44.986 -10.309   9.127  1.00  0.00     0.002 A 
HETATM   35  C   UNL     1      44.510 -11.005   8.011  1.00  0.00     0.029 A 
ENDBRANCH  27  30
ENDBRANCH   8  26
TORSDOF 5
ENDMDL
MODEL 2
REMARK VINA RESULT:      -8.9      2.304      7.885
REMARK  5 active torsions:
REMARK  status: ('A' for Active; 'I' for Inactive)
REMARK    1  A    between atoms: C_6  and  C_7 
REMARK       I    between atoms: C_7  and  N_8 
REMARK    2  A    between atoms: N_8  and  C_9 
REMARK    3  A    between atoms: C_16  and  C_17 
REMARK    4  A    between atoms: C_23  and  C_24 
REMARK       I    between atoms: C_24  and  N_25 
REMARK    5  A    between atoms: N_25  and  C_26 
ROOT
HETATM    1  C   UNL     1      41.002 -13.277   0.761  1.00  0.00     0.069 C 
HETATM    2  C   UNL     1      40.974 -12.787   2.188  1.00  0.00     0.018 C 
HETATM    3  N   UNL     1      40.184 -11.670   2.428  1.00  0.00    -0.362 N 
HETATM    4  C   UNL     1      39.889 -11.184   3.694  1.00  0.00     0.018 C 
HETATM    5  C   UNL     1      38.827 -10.118   3.762  1.00  0.00     0.069 C 
HETATM    6  C   UNL     1      40.527 -11.701   4.766  1.00  0.00     0.045 C 
HETATM    7  C   UNL     1      41.565 -12.809   4.630  1.00  0.00     0.101 C 
HETATM    8  C   UNL     1      41.637 -13.372   3.211  1.00  0.00     0.045 C 
HETATM    9  H   UNL     1      39.620 -11.325   1.654  1.00  0.00     0.165 HD
ENDROOT
BRANCH   6  10
HETATM   10  C   UNL     1      40.069 -11.355   6.136  1.00  0.00     0.255 C 
HETATM   11  N   UNL     1      40.694 -10.241   6.646  1.00  0.00    -0.323 N 
HETATM   12  H   UNL     1      41.425  -9.818   6.085  1.00  0.00     0.169 HD
HETATM   13  O   UNL     1      39.237 -12.067   6.682  1.00  0.00    -0.268 OA
BRANCH  11  14
HETATM   14  C   UNL     1      40.497  -9.666   7.918  1.00  0.00     0.035 A 
HETATM   15  C   UNL     1      39.240  -9.412   8.469  1.00  0.00     0.029 A 
HETATM   16  C   UNL     1      39.128  -8.830   9.736  1.00  0.00     0.002 A 
HETATM   17  C   UNL     1      40.271  -8.509  10.465  1.00  0.00     0.000 A 
HETATM   18  C   UNL     1      41.529  -8.762   9.924  1.00  0.00     0.002 A 
HETATM   19  C   UNL     1      41.641  -9.331   8.653  1.00  0.00     0.029 A 
ENDBRANCH  11  14
ENDBRANCH   6  10
BRANCH   7  20
HETATM   20  C   UNL     1      42.930 -12.344   5.117  1.00  0.00    -0.027 A 
HETATM   21  C   UNL     1      43.734 -11.533   4.318  1.00  0.00     0.124 A 
HETATM   22  N   UNL     1      44.977 -11.127   4.658  1.00  0.00    -0.273 NA
HETATM   23  C   UNL     1      45.442 -11.521   5.862  1.00  0.00     0.116 A 
HETATM   24  C   UNL     1      44.729 -12.325   6.734  1.00  0.00     0.020 A 
HETATM   25  C   UNL     1      43.460 -12.747   6.351  1.00  0.00     0.011 A 
ENDBRANCH   7  20
BRANCH   8  26
HETATM   26  C   UNL     1      42.551 -14.522   2.956  1.00  0.00     0.255 C 
HETATM   27  N   UNL     1      42.133 -15.691   3.557  1.00  0.00    -0.323 N 
HETATM   28  H   UNL     1      41.266 -15.668   4.077  1.00  0.00     0.169 HD
HETATM   29  O   UNL     1      43.556 -14.357   2.274  1.00  0.00    -0.268 OA
BRANCH  27  30
HETATM   30  C   UNL     1      42.777 -16.947   3.517  1.00  0.00     0.035 A 
HETATM   31  C   UNL     1      43.605 -17.433   4.530  1.00  0.00     0.029 A 
HETATM   32  C   UNL     1      44.214 -18.686   4.408  1.00  0.00     0.002 A 
HETATM   33  C   UNL     1      43.993 -19.468   3.277  1.00  0.00     0.000 A 
HETATM   34  C   UNL     1      43.166 -18.995   2.262  1.00  0.00     0.002 A 
HETATM   35  C   UNL     1      42.566 -17.738   2.379  1.00  0.00     0.029 A 
ENDBRANCH  27  30
ENDBRANCH   8  26
TORSDOF 5
ENDMDL
MODEL 3
REMARK VINA RESULT:      -8.8      2.530      8.280
REMARK  5 active torsions:
REMARK  status: ('A' for Active; 'I' for Inactive)
REMARK    1  A    between atoms: C_6  and  C_7 
REMARK       I    between atoms: C_7  and  N_8 
REMARK    2  A    between atoms: N_8  and  C_9 
REMARK    3  A    between atoms: C_16  and  C_17 
REMARK    4  A    between atoms: C_23  and  C_24 
REMARK       I    between atoms: C_24  and  N_25 
REMARK    5  A    between atoms: N_25  and  C_26 
ROOT
HETATM    1  C   UNL     1      40.835 -16.315   3.180  1.00  0.00     0.069 C 
HETATM    2  C   UNL     1      41.348 -15.040   3.804  1.00  0.00     0.018 C 
HETATM    3  N   UNL     1      42.246 -15.198   4.851  1.00  0.00    -0.362 N 
HETATM    4  C   UNL     1      42.960 -14.158   5.428  1.00  0.00     0.018 C 
HETATM    5  C   UNL     1      44.057 -14.555   6.380  1.00  0.00     0.069 C 
HETATM    6  C   UNL     1      42.661 -12.885   5.090  1.00  0.00     0.045 C 
HETATM    7  C   UNL     1      41.562 -12.553   4.088  1.00  0.00     0.101 C 
HETATM    8  C   UNL     1      41.006 -13.797   3.395  1.00  0.00     0.045 C 
HETATM    9  H   UNL     1      42.557 -16.146   5.057  1.00  0.00     0.165 HD
ENDROOT
BRANCH   6  10
HETATM   10  C   UNL     1      43.552 -11.778   5.521  1.00  0.00     0.255 C 
HETATM   11  N   UNL     1      43.307 -11.360   6.809  1.00  0.00    -0.323 N 
HETATM   12  H   UNL     1      42.528 -11.789   7.297  1.00  0.00     0.169 HD
HETATM   13  O   UNL     1      44.373 -11.331   4.730  1.00  0.00    -0.268 OA
BRANCH  11  14
HETATM   14  C   UNL     1      43.963 -10.325   7.505  1.00  0.00     0.035 A 
HETATM   15  C   UNL     1      45.296 -10.389   7.915  1.00  0.00     0.029 A 
HETATM   16  C   UNL     1      45.874  -9.321   8.610  1.00  0.00     0.002 A 
HETATM   17  C   UNL     1      45.126  -8.179   8.889  1.00  0.00     0.000 A 
HETATM   18  C   UNL     1      43.797  -8.106   8.481  1.00  0.00     0.002 A 
HETATM   19  C   UNL     1      43.216  -9.177   7.799  1.00  0.00     0.029 A 
ENDBRANCH  11  14
ENDBRANCH   6  10
BRANCH   7  20
HETATM   20  C   UNL     1      40.457 -11.732   4.737  1.00  0.00    -0.027 A 
HETATM   21  C   UNL     1      39.759 -12.224   5.839  1.00  0.00     0.124 A 
HETATM   22  N   UNL     1      38.730 -11.581   6.433  1.00  0.00    -0.273 NA
HETATM   23  C   UNL     1      38.390 -10.375   5.931  1.00  0.00     0.116 A 
HETATM   24  C   UNL     1      39.016  -9.793   4.842  1.00  0.00     0.020 A 
HETATM   25  C   UNL     1      40.057 -10.487   4.234  1.00  0.00     0.011 A 
ENDBRANCH   7  20
BRANCH   8  26
HETATM   26  C   UNL     1      39.983 -13.610   2.327  1.00  0.00     0.255 C 
HETATM   27  N   UNL     1      40.518 -13.627   1.056  1.00  0.00    -0.323 N 
HETATM   28  H   UNL     1      41.513 -13.781   0.966  1.00  0.00     0.169 HD
HETATM   29  O   UNL     1      38.807 -13.458   2.635  1.00  0.00    -0.268 OA
BRANCH  27  30
HETATM   30  C   UNL     1      39.823 -13.468  -0.163  1.00  0.00     0.035 A 
HETATM   31  C   UNL     1      39.329 -12.248  -0.627  1.00  0.00     0.029 A 
HETATM   32  C   UNL     1      38.641 -12.178  -1.843  1.00  0.00     0.002 A 
HETATM   33  C   UNL     1      38.449 -13.325  -2.609  1.00  0.00     0.000 A 
HETATM   34  C   UNL     1      38.941 -14.546  -2.158  1.00  0.00     0.002 A 
HETATM   35  C   UNL     1      39.619 -14.618  -0.937  1.00  0.00     0.029 A 
ENDBRANCH  27  30
ENDBRANCH   8  26
TORSDOF 5
ENDMDL
MODEL 4
REMARK VINA RESULT:      -8.8      3.500      6.119
REMARK  5 active torsions:
REMARK  status: ('A' for Active; 'I' for Inactive)
REMARK    1  A    between atoms: C_6  and  C_7 
REMARK       I    between atoms: C_7  and  N_8 
REMARK    2  A    between atoms: N_8  and  C_9 
REMARK    3  A    between atoms: C_16  and  C_17 
REMARK    4  A    between atoms: C_23  and  C_24 
REMARK       I    between atoms: C_24  and  N_25 
REMARK    5  A    between atoms: N_25  and  C_26 
ROOT
HETATM    1  C   UNL     1      38.481 -11.862  -0.962  1.00  0.00     0.069 C 
HETATM    2  C   UNL     1      39.523 -12.497  -0.074  1.00  0.00     0.018 C 
HETATM    3  N   UNL     1      39.279 -13.811   0.302  1.00  0.00    -0.362 N 
HETATM    4  C   UNL     1      40.198 -14.616   0.959  1.00  0.00     0.018 C 
HETATM    5  C   UNL     1      39.842 -16.076   1.066  1.00  0.00     0.069 C 
HETATM    6  C   UNL     1      41.341 -14.068   1.425  1.00  0.00     0.045 C 
HETATM    7  C   UNL     1      41.657 -12.588   1.248  1.00  0.00     0.101 C 
HETATM    8  C   UNL     1      40.653 -11.879   0.340  1.00  0.00     0.045 C 
HETATM    9  H   UNL     1      38.473 -14.271  -0.117  1.00  0.00     0.165 HD
ENDROOT
BRANCH   6  10
HETATM   10  C   UNL     1      42.428 -14.946   1.929  1.00  0.00     0.255 C 
HETATM   11  N   UNL     1      41.985 -15.891   2.826  1.00  0.00    -0.323 N 
HETATM   12  H   UNL     1      41.008 -15.856   3.094  1.00  0.00     0.169 HD
HETATM   13  O   UNL     1      43.575 -14.751   1.548  1.00  0.00    -0.268 OA
BRANCH  11  14
HETATM   14  C   UNL     1      42.764 -16.857   3.494  1.00  0.00     0.035 A 
HETATM   15  C   UNL     1      43.156 -16.749   4.830  1.00  0.00     0.029 A 
HETATM   16  C   UNL     1      43.937 -17.748   5.419  1.00  0.00     0.002 A 
HETATM   17  C   UNL     1      44.322 -18.865   4.682  1.00  0.00     0.000 A 
HETATM   18  C   UNL     1      43.934 -18.982   3.350  1.00  0.00     0.002 A 
HETATM   19  C   UNL     1      43.164 -17.978   2.756  1.00  0.00     0.029 A 
ENDBRANCH  11  14
ENDBRANCH   6  10
BRANCH   7  20
HETATM   20  C   UNL     1      41.784 -11.889   2.595  1.00  0.00    -0.027 A 
HETATM   21  C   UNL     1      43.011 -11.385   3.023  1.00  0.00     0.124 A 
HETATM   22  N   UNL     1      43.214 -10.804   4.226  1.00  0.00    -0.273 NA
HETATM   23  C   UNL     1      42.143 -10.689   5.039  1.00  0.00     0.116 A 
HETATM   24  C   UNL     1      40.880 -11.154   4.714  1.00  0.00     0.020 A 
HETATM   25  C   UNL     1      40.703 -11.769   3.479  1.00  0.00     0.011 A 
ENDBRANCH   7  20
BRANCH   8  26
HETATM   26  C   UNL     1      40.892 -10.444   0.011  1.00  0.00     0.255 C 
HETATM   27  N   UNL     1      41.613 -10.267  -1.151  1.00  0.00    -0.323 N 
HETATM   28  H   UNL     1      41.885 -11.093  -1.666  1.00  0.00     0.169 HD
HETATM   29  O   UNL     1      40.460  -9.573   0.757  1.00  0.00    -0.268 OA
BRANCH  27  30
HETATM   30  C   UNL     1      42.011  -9.042  -1.727  1.00  0.00     0.035 A 
HETATM   31  C   UNL     1      42.991  -8.206  -1.188  1.00  0.00     0.029 A 
HETATM   32  C   UNL     1      43.320  -7.001  -1.818  1.00  0.00     0.002 A 
HETATM   33  C   UNL     1      42.679  -6.625  -2.996  1.00  0.00     0.000 A 
HETATM   34  C   UNL     1      41.704  -7.453  -3.545  1.00  0.00     0.002 A 
HETATM   35  C   UNL     1      41.367  -8.652  -2.909  1.00  0.00     0.029 A 
ENDBRANCH  27  30
ENDBRANCH   8  26
TORSDOF 5
ENDMDL
MODEL 5
REMARK VINA RESULT:      -8.7      3.109      8.437
REMARK  5 active torsions:
REMARK  status: ('A' for Active; 'I' for Inactive)
REMARK    1  A    between atoms: C_6  and  C_7 
REMARK       I    between atoms: C_7  and  N_8 
REMARK    2  A    between atoms: N_8  and  C_9 
REMARK    3  A    between atoms: C_16  and  C_17 
REMARK    4  A    between atoms: C_23  and  C_24 
REMARK       I    between atoms: C_24  and  N_25 
REMARK    5  A    between atoms: N_25  and  C_26 
ROOT
HETATM    1  C   UNL     1      39.108 -13.214   2.964  1.00  0.00     0.069 C 
HETATM    2  C   UNL     1      39.688 -12.349   4.056  1.00  0.00     0.018 C 
HETATM    3  N   UNL     1      39.320 -11.010   4.027  1.00  0.00    -0.362 N 
HETATM    4  C   UNL     1      39.601 -10.104   5.039  1.00  0.00     0.018 C 
HETATM    5  C   UNL     1      38.915  -8.766   4.940  1.00  0.00     0.069 C 
HETATM    6  C   UNL     1      40.425 -10.471   6.045  1.00  0.00     0.045 C 
HETATM    7  C   UNL     1      41.056 -11.857   6.105  1.00  0.00     0.101 C 
HETATM    8  C   UNL     1      40.500 -12.800   5.039  1.00  0.00     0.045 C 
HETATM    9  H   UNL     1      38.625 -10.735   3.336  1.00  0.00     0.165 HD
ENDROOT
BRANCH   6  10
HETATM   10  C   UNL     1      40.561  -9.603   7.242  1.00  0.00     0.255 C 
HETATM   11  N   UNL     1      39.657  -9.908   8.234  1.00  0.00    -0.323 N 
HETATM   12  H   UNL     1      38.969 -10.626   8.033  1.00  0.00     0.169 HD
HETATM   13  O   UNL     1      41.404  -8.716   7.241  1.00  0.00    -0.268 OA
BRANCH  11  14
HETATM   14  C   UNL     1      39.516  -9.264   9.479  1.00  0.00     0.035 A 
HETATM   15  C   UNL     1      40.012  -9.777  10.679  1.00  0.00     0.029 A 
HETATM   16  C   UNL     1      39.823  -9.080  11.877  1.00  0.00     0.002 A 
HETATM   17  C   UNL     1      39.146  -7.862  11.882  1.00  0.00     0.000 A 
HETATM   18  C   UNL     1      38.651  -7.342  10.689  1.00  0.00     0.002 A 
HETATM   19  C   UNL     1      38.828  -8.044   9.494  1.00  0.00     0.029 A 
ENDBRANCH  11  14
ENDBRANCH   6  10
BRANCH   7  20
HETATM   20  C   UNL     1      42.575 -11.772   6.041  1.00  0.00    -0.027 A 
HETATM   21  C   UNL     1      43.211 -11.235   4.923  1.00  0.00     0.124 A 
HETATM   22  N   UNL     1      44.552 -11.177   4.769  1.00  0.00    -0.273 NA
HETATM   23  C   UNL     1      45.306 -11.649   5.784  1.00  0.00     0.116 A 
HETATM   24  C   UNL     1      44.779 -12.201   6.938  1.00  0.00     0.020 A 
HETATM   25  C   UNL     1      43.395 -12.270   7.062  1.00  0.00     0.011 A 
ENDBRANCH   7  20
BRANCH   8  26
HETATM   26  C   UNL     1      40.969 -14.216   5.038  1.00  0.00     0.255 C 
HETATM   27  N   UNL     1      41.931 -14.469   4.083  1.00  0.00    -0.323 N 
HETATM   28  H   UNL     1      42.235 -13.696   3.507  1.00  0.00     0.169 HD
HETATM   29  O   UNL     1      40.490 -15.012   5.837  1.00  0.00    -0.268 OA
BRANCH  27  30
HETATM   30  C   UNL     1      42.567 -15.701   3.820  1.00  0.00     0.035 A 
HETATM   31  C   UNL     1      43.448 -16.329   4.702  1.00  0.00     0.029 A 
HETATM   32  C   UNL     1      44.045 -17.548   4.359  1.00  0.00     0.002 A 
HETATM   33  C   UNL     1      43.759 -18.152   3.138  1.00  0.00     0.000 A 
HETATM   34  C   UNL     1      42.878 -17.537   2.253  1.00  0.00     0.002 A 
HETATM   35  C   UNL     1      42.290 -16.314   2.590  1.00  0.00     0.029 A 
ENDBRANCH  27  30
ENDBRANCH   8  26
TORSDOF 5
ENDMDL
MODEL 6
REMARK VINA RESULT:      -8.6      2.675      5.458
REMARK  5 active torsions:
REMARK  status: ('A' for Active; 'I' for Inactive)
REMARK    1  A    between atoms: C_6  and  C_7 
REMARK       I    between atoms: C_7  and  N_8 
REMARK    2  A    between atoms: N_8  and  C_9 
REMARK    3  A    between atoms: C_16  and  C_17 
REMARK    4  A    between atoms: C_23  and  C_24 
REMARK       I    between atoms: C_24  and  N_25 
REMARK    5  A    between atoms: N_25  and  C_26 
ROOT
HETATM    1  C   UNL     1      41.808 -10.683   6.094  1.00  0.00     0.069 C 
HETATM    2  C   UNL     1      41.884 -12.135   5.690  1.00  0.00     0.018 C 
HETATM    3  N   UNL     1      43.058 -12.795   6.024  1.00  0.00    -0.362 N 
HETATM    4  C   UNL     1      43.243 -14.165   5.900  1.00  0.00     0.018 C 
HETATM    5  C   UNL     1      44.488 -14.726   6.536  1.00  0.00     0.069 C 
HETATM    6  C   UNL     1      42.308 -14.902   5.263  1.00  0.00     0.045 C 
HETATM    7  C   UNL     1      41.049 -14.276   4.675  1.00  0.00     0.101 C 
HETATM    8  C   UNL     1      40.892 -12.805   5.061  1.00  0.00     0.045 C 
HETATM    9  H   UNL     1      43.733 -12.285   6.589  1.00  0.00     0.165 HD
ENDROOT
BRANCH   6  10
HETATM   10  C   UNL     1      42.376 -16.385   5.313  1.00  0.00     0.255 C 
HETATM   11  N   UNL     1      43.235 -16.916   4.379  1.00  0.00    -0.323 N 
HETATM   12  H   UNL     1      43.673 -16.273   3.729  1.00  0.00     0.169 HD
HETATM   13  O   UNL     1      41.679 -16.986   6.121  1.00  0.00    -0.268 OA
BRANCH  11  14
HETATM   14  C   UNL     1      43.510 -18.281   4.159  1.00  0.00     0.035 A 
HETATM   15  C   UNL     1      43.954 -19.154   5.154  1.00  0.00     0.029 A 
HETATM   16  C   UNL     1      44.212 -20.495   4.853  1.00  0.00     0.002 A 
HETATM   17  C   UNL     1      44.020 -20.974   3.559  1.00  0.00     0.000 A 
HETATM   18  C   UNL     1      43.575 -20.111   2.561  1.00  0.00     0.002 A 
HETATM   19  C   UNL     1      43.329 -18.768   2.858  1.00  0.00     0.029 A 
ENDBRANCH  11  14
ENDBRANCH   6  10
BRANCH   7  20
HETATM   20  C   UNL     1      40.994 -14.467   3.165  1.00  0.00    -0.027 A 
HETATM   21  C   UNL     1      41.920 -13.839   2.334  1.00  0.00     0.124 A 
HETATM   22  N   UNL     1      41.901 -13.915   0.985  1.00  0.00    -0.273 NA
HETATM   23  C   UNL     1      40.934 -14.675   0.428  1.00  0.00     0.116 A 
HETATM   24  C   UNL     1      39.966 -15.341   1.159  1.00  0.00     0.020 A 
HETATM   25  C   UNL     1      39.994 -15.229   2.545  1.00  0.00     0.011 A 
ENDBRANCH   7  20
BRANCH   8  26
HETATM   26  C   UNL     1      39.658 -12.091   4.624  1.00  0.00     0.255 C 
HETATM   27  N   UNL     1      39.751 -11.579   3.347  1.00  0.00    -0.323 N 
HETATM   28  H   UNL     1      40.606 -11.747   2.834  1.00  0.00     0.169 HD
HETATM   29  O   UNL     1      38.704 -12.009   5.388  1.00  0.00    -0.268 OA
BRANCH  27  30
HETATM   30  C   UNL     1      38.767 -10.847   2.649  1.00  0.00     0.035 A 
HETATM   31  C   UNL     1      38.528  -9.484   2.836  1.00  0.00     0.029 A 
HETATM   32  C   UNL     1      37.524  -8.834   2.109  1.00  0.00     0.002 A 
HETATM   33  C   UNL     1      36.757  -9.539   1.184  1.00  0.00     0.000 A 
HETATM   34  C   UNL     1      36.990 -10.897   0.987  1.00  0.00     0.002 A 
HETATM   35  C   UNL     1      37.985 -11.549   1.721  1.00  0.00     0.029 A 
ENDBRANCH  27  30
ENDBRANCH   8  26
TORSDOF 5
ENDMDL
MODEL 7
REMARK VINA RESULT:      -8.2      3.154      5.551
REMARK  5 active torsions:
REMARK  status: ('A' for Active; 'I' for Inactive)
REMARK    1  A    between atoms: C_6  and  C_7 
REMARK       I    between atoms: C_7  and  N_8 
REMARK    2  A    between atoms: N_8  and  C_9 
REMARK    3  A    between atoms: C_16  and  C_17 
REMARK    4  A    between atoms: C_23  and  C_24 
REMARK       I    between atoms: C_24  and  N_25 
REMARK    5  A    between atoms: N_25  and  C_26 
ROOT
HETATM    1  C   UNL     1      41.225  -9.552   7.202  1.00  0.00     0.069 C 
HETATM    2  C   UNL     1      41.321 -10.888   6.506  1.00  0.00     0.018 C 
HETATM    3  N   UNL     1      42.492 -11.602   6.727  1.00  0.00    -0.362 N 
HETATM    4  C   UNL     1      42.689 -12.915   6.326  1.00  0.00     0.018 C 
HETATM    5  C   UNL     1      43.922 -13.594   6.864  1.00  0.00     0.069 C 
HETATM    6  C   UNL     1      41.776 -13.506   5.524  1.00  0.00     0.045 C 
HETATM    7  C   UNL     1      40.529 -12.773   5.046  1.00  0.00     0.101 C 
HETATM    8  C   UNL     1      40.351 -11.415   5.726  1.00  0.00     0.045 C 
HETATM    9  H   UNL     1      43.149 -11.219   7.404  1.00  0.00     0.165 HD
ENDROOT
BRANCH   6  10
HETATM   10  C   UNL     1      41.854 -14.966   5.267  1.00  0.00     0.255 C 
HETATM   11  N   UNL     1      42.813 -15.299   4.338  1.00  0.00    -0.323 N 
HETATM   12  H   UNL     1      43.310 -14.538   3.889  1.00  0.00     0.169 HD
HETATM   13  O   UNL     1      41.081 -15.715   5.851  1.00  0.00    -0.268 OA
BRANCH  11  14
HETATM   14  C   UNL     1      43.123 -16.590   3.865  1.00  0.00     0.035 A 
HETATM   15  C   UNL     1      42.634 -17.116   2.668  1.00  0.00     0.029 A 
HETATM   16  C   UNL     1      42.982 -18.411   2.271  1.00  0.00     0.002 A 
HETATM   17  C   UNL     1      43.830 -19.184   3.062  1.00  0.00     0.000 A 
HETATM   18  C   UNL     1      44.324 -18.666   4.256  1.00  0.00     0.002 A 
HETATM   19  C   UNL     1      43.966 -17.377   4.660  1.00  0.00     0.029 A 
ENDBRANCH  11  14
ENDBRANCH   6  10
BRANCH   7  20
HETATM   20  C   UNL     1      40.514 -12.646   3.529  1.00  0.00    -0.027 A 
HETATM   21  C   UNL     1      41.572 -12.038   2.855  1.00  0.00     0.124 A 
HETATM   22  N   UNL     1      41.605 -11.839   1.519  1.00  0.00    -0.273 NA
HETATM   23  C   UNL     1      40.550 -12.288   0.807  1.00  0.00     0.116 A 
HETATM   24  C   UNL     1      39.449 -12.906   1.374  1.00  0.00     0.020 A 
HETATM   25  C   UNL     1      39.429 -13.079   2.754  1.00  0.00     0.011 A 
ENDBRANCH   7  20
BRANCH   8  26
HETATM   26  C   UNL     1      39.123 -10.627   5.414  1.00  0.00     0.255 C 
HETATM   27  N   UNL     1      39.296  -9.747   4.367  1.00  0.00    -0.323 N 
HETATM   28  H   UNL     1      40.197  -9.731   3.909  1.00  0.00     0.169 HD
HETATM   29  O   UNL     1      38.107 -10.804   6.076  1.00  0.00    -0.268 OA
BRANCH  27  30
HETATM   30  C   UNL     1      38.337  -8.857   3.837  1.00  0.00     0.035 A 
HETATM   31  C   UNL     1      37.747  -7.820   4.563  1.00  0.00     0.029 A 
HETATM   32  C   UNL     1      36.795  -6.987   3.964  1.00  0.00     0.002 A 
HETATM   33  C   UNL     1      36.433  -7.177   2.633  1.00  0.00     0.000 A 
HETATM   34  C   UNL     1      37.018  -8.205   1.899  1.00  0.00     0.002 A 
HETATM   35  C   UNL     1      37.960  -9.045   2.500  1.00  0.00     0.029 A 
ENDBRANCH  27  30
ENDBRANCH   8  26
TORSDOF 5
ENDMDL
MODEL 8
REMARK VINA RESULT:      -8.1      2.366      8.164
REMARK  5 active torsions:
REMARK  status: ('A' for Active; 'I' for Inactive)
REMARK    1  A    between atoms: C_6  and  C_7 
REMARK       I    between atoms: C_7  and  N_8 
REMARK    2  A    between atoms: N_8  and  C_9 
REMARK    3  A    between atoms: C_16  and  C_17 
REMARK    4  A    between atoms: C_23  and  C_24 
REMARK       I    between atoms: C_24  and  N_25 
REMARK    5  A    between atoms: N_25  and  C_26 
ROOT
HETATM    1  C   UNL     1      41.113 -13.455   0.814  1.00  0.00     0.069 C 
HETATM    2  C   UNL     1      41.150 -12.484   1.968  1.00  0.00     0.018 C 
HETATM    3  N   UNL     1      41.035 -11.141   1.633  1.00  0.00    -0.362 N 
HETATM    4  C   UNL     1      40.867 -10.120   2.557  1.00  0.00     0.018 C 
HETATM    5  C   UNL     1      40.520  -8.767   1.993  1.00  0.00     0.069 C 
HETATM    6  C   UNL     1      40.989 -10.395   3.874  1.00  0.00     0.045 C 
HETATM    7  C   UNL     1      41.303 -11.797   4.380  1.00  0.00     0.101 C 
HETATM    8  C   UNL     1      41.263 -12.844   3.267  1.00  0.00     0.045 C 
HETATM    9  H   UNL     1      40.845 -10.921   0.657  1.00  0.00     0.165 HD
ENDROOT
BRANCH   6  10
HETATM   10  C   UNL     1      40.597  -9.375   4.880  1.00  0.00     0.255 C 
HETATM   11  N   UNL     1      41.638  -8.554   5.247  1.00  0.00    -0.323 N 
HETATM   12  H   UNL     1      42.552  -8.757   4.858  1.00  0.00     0.169 HD
HETATM   13  O   UNL     1      39.447  -9.364   5.300  1.00  0.00    -0.268 OA
BRANCH  11  14
HETATM   14  C   UNL     1      41.599  -7.504   6.187  1.00  0.00     0.035 A 
HETATM   15  C   UNL     1      41.176  -6.208   5.886  1.00  0.00     0.029 A 
HETATM   16  C   UNL     1      41.175  -5.218   6.874  1.00  0.00     0.002 A 
HETATM   17  C   UNL     1      41.586  -5.519   8.170  1.00  0.00     0.000 A 
HETATM   18  C   UNL     1      42.007  -6.810   8.480  1.00  0.00     0.002 A 
HETATM   19  C   UNL     1      42.021  -7.796   7.491  1.00  0.00     0.029 A 
ENDBRANCH  11  14
ENDBRANCH   6  10
BRANCH   7  20
HETATM   20  C   UNL     1      42.629 -11.827   5.128  1.00  0.00    -0.027 A 
HETATM   21  C   UNL     1      43.788 -11.322   4.542  1.00  0.00     0.124 A 
HETATM   22  N   UNL     1      45.010 -11.364   5.119  1.00  0.00    -0.273 NA
HETATM   23  C   UNL     1      45.086 -11.908   6.353  1.00  0.00     0.116 A 
HETATM   24  C   UNL     1      43.998 -12.436   7.026  1.00  0.00     0.020 A 
HETATM   25  C   UNL     1      42.756 -12.401   6.400  1.00  0.00     0.011 A 
ENDBRANCH   7  20
BRANCH   8  26
HETATM   26  C   UNL     1      41.468 -14.274   3.637  1.00  0.00     0.255 C 
HETATM   27  N   UNL     1      42.732 -14.736   3.338  1.00  0.00    -0.323 N 
HETATM   28  H   UNL     1      43.387 -14.082   2.931  1.00  0.00     0.169 HD
HETATM   29  O   UNL     1      40.549 -14.904   4.147  1.00  0.00    -0.268 OA
BRANCH  27  30
HETATM   30  C   UNL     1      43.237 -16.036   3.553  1.00  0.00     0.035 A 
HETATM   31  C   UNL     1      43.275 -17.031   2.574  1.00  0.00     0.029 A 
HETATM   32  C   UNL     1      43.783 -18.300   2.873  1.00  0.00     0.002 A 
HETATM   33  C   UNL     1      44.265 -18.582   4.149  1.00  0.00     0.000 A 
HETATM   34  C   UNL     1      44.235 -17.597   5.131  1.00  0.00     0.002 A 
HETATM   35  C   UNL     1      43.717 -16.332   4.836  1.00  0.00     0.029 A 
ENDBRANCH  27  30
ENDBRANCH   8  26
TORSDOF 5
ENDMDL
MODEL 9
REMARK VINA RESULT:      -8.0      4.351      9.022
REMARK  5 active torsions:
REMARK  status: ('A' for Active; 'I' for Inactive)
REMARK    1  A    between atoms: C_6  and  C_7 
REMARK       I    between atoms: C_7  and  N_8 
REMARK    2  A    between atoms: N_8  and  C_9 
REMARK    3  A    between atoms: C_16  and  C_17 
REMARK    4  A    between atoms: C_23  and  C_24 
REMARK       I    between atoms: C_24  and  N_25 
REMARK    5  A    between atoms: N_25  and  C_26 
ROOT
HETATM    1  C   UNL     1      39.540 -12.369   4.320  1.00  0.00     0.069 C 
HETATM    2  C   UNL     1      39.884 -11.818   2.958  1.00  0.00     0.018 C 
HETATM    3  N   UNL     1      39.585 -10.478   2.754  1.00  0.00    -0.362 N 
HETATM    4  C   UNL     1      39.987  -9.751   1.643  1.00  0.00     0.018 C 
HETATM    5  C   UNL     1      39.777  -8.261   1.714  1.00  0.00     0.069 C 
HETATM    6  C   UNL     1      40.557 -10.397   0.602  1.00  0.00     0.045 C 
HETATM    7  C   UNL     1      40.777 -11.905   0.611  1.00  0.00     0.101 C 
HETATM    8  C   UNL     1      40.469 -12.533   1.970  1.00  0.00     0.045 C 
HETATM    9  H   UNL     1      39.245  -9.951   3.556  1.00  0.00     0.165 HD
ENDROOT
BRANCH   6  10
HETATM   10  C   UNL     1      41.191  -9.618  -0.492  1.00  0.00     0.255 C 
HETATM   11  N   UNL     1      40.316  -9.303  -1.505  1.00  0.00    -0.323 N 
HETATM   12  H   UNL     1      39.375  -9.674  -1.440  1.00  0.00     0.169 HD
HETATM   13  O   UNL     1      42.385  -9.356  -0.421  1.00  0.00    -0.268 OA
BRANCH  11  14
HETATM   14  C   UNL     1      40.607  -8.591  -2.687  1.00  0.00     0.035 A 
HETATM   15  C   UNL     1      41.127  -7.296  -2.705  1.00  0.00     0.029 A 
HETATM   16  C   UNL     1      41.381  -6.653  -3.921  1.00  0.00     0.002 A 
HETATM   17  C   UNL     1      41.127  -7.305  -5.126  1.00  0.00     0.000 A 
HETATM   18  C   UNL     1      40.611  -8.598  -5.117  1.00  0.00     0.002 A 
HETATM   19  C   UNL     1      40.345  -9.236  -3.903  1.00  0.00     0.029 A 
ENDBRANCH  11  14
ENDBRANCH   6  10
BRANCH   7  20
HETATM   20  C   UNL     1      39.996 -12.580  -0.508  1.00  0.00    -0.027 A 
HETATM   21  C   UNL     1      38.624 -12.376  -0.641  1.00  0.00     0.124 A 
HETATM   22  N   UNL     1      37.854 -12.983  -1.572  1.00  0.00    -0.273 NA
HETATM   23  C   UNL     1      38.477 -13.813  -2.435  1.00  0.00     0.116 A 
HETATM   24  C   UNL     1      39.834 -14.086  -2.393  1.00  0.00     0.020 A 
HETATM   25  C   UNL     1      40.599 -13.466  -1.411  1.00  0.00     0.011 A 
ENDBRANCH   7  20
BRANCH   8  26
HETATM   26  C   UNL     1      40.723 -13.992   2.145  1.00  0.00     0.255 C 
HETATM   27  N   UNL     1      42.003 -14.271   2.575  1.00  0.00    -0.323 N 
HETATM   28  H   UNL     1      42.622 -13.490   2.748  1.00  0.00     0.169 HD
HETATM   29  O   UNL     1      39.830 -14.795   1.902  1.00  0.00    -0.268 OA
BRANCH  27  30
HETATM   30  C   UNL     1      42.559 -15.544   2.825  1.00  0.00     0.035 A 
HETATM   31  C   UNL     1      42.764 -16.514   1.841  1.00  0.00     0.029 A 
HETATM   32  C   UNL     1      43.312 -17.758   2.175  1.00  0.00     0.002 A 
HETATM   33  C   UNL     1      43.668 -18.038   3.491  1.00  0.00     0.000 A 
HETATM   34  C   UNL     1      43.472 -17.077   4.479  1.00  0.00     0.002 A 
HETATM   35  C   UNL     1      42.914 -15.839   4.148  1.00  0.00     0.029 A 
ENDBRANCH  27  30
ENDBRANCH   8  26
TORSDOF 5
ENDMDL
MODEL 10
REMARK VINA RESULT:      -8.0      2.989      5.482
REMARK  5 active torsions:
REMARK  status: ('A' for Active; 'I' for Inactive)
REMARK    1  A    between atoms: C_6  and  C_7 
REMARK       I    between atoms: C_7  and  N_8 
REMARK    2  A    between atoms: N_8  and  C_9 
REMARK    3  A    between atoms: C_16  and  C_17 
REMARK    4  A    between atoms: C_23  and  C_24 
REMARK       I    between atoms: C_24  and  N_25 
REMARK    5  A    between atoms: N_25  and  C_26 
ROOT
HETATM    1  C   UNL     1      45.484  -8.565   8.751  1.00  0.00     0.069 C 
HETATM    2  C   UNL     1      44.786  -9.603   7.907  1.00  0.00     0.018 C 
HETATM    3  N   UNL     1      45.536 -10.145   6.872  1.00  0.00    -0.362 N 
HETATM    4  C   UNL     1      45.136 -11.231   6.107  1.00  0.00     0.018 C 
HETATM    5  C   UNL     1      46.182 -11.823   5.199  1.00  0.00     0.069 C 
HETATM    6  C   UNL     1      43.878 -11.705   6.239  1.00  0.00     0.045 C 
HETATM    7  C   UNL     1      42.879 -11.082   7.207  1.00  0.00     0.101 C 
HETATM    8  C   UNL     1      43.520 -10.032   8.115  1.00  0.00     0.045 C 
HETATM    9  H   UNL     1      46.516  -9.873   6.817  1.00  0.00     0.165 HD
ENDROOT
BRANCH   6  10
HETATM   10  C   UNL     1      43.502 -12.992   5.600  1.00  0.00     0.255 C 
HETATM   11  N   UNL     1      42.994 -12.835   4.332  1.00  0.00    -0.323 N 
HETATM   12  H   UNL     1      42.869 -11.887   3.993  1.00  0.00     0.169 HD
HETATM   13  O   UNL     1      43.643 -14.032   6.230  1.00  0.00    -0.268 OA
BRANCH  11  14
HETATM   14  C   UNL     1      42.532 -13.851   3.471  1.00  0.00     0.035 A 
HETATM   15  C   UNL     1      43.282 -14.376   2.417  1.00  0.00     0.029 A 
HETATM   16  C   UNL     1      42.749 -15.379   1.602  1.00  0.00     0.002 A 
HETATM   17  C   UNL     1      41.468 -15.872   1.841  1.00  0.00     0.000 A 
HETATM   18  C   UNL     1      40.714 -15.356   2.892  1.00  0.00     0.002 A 
HETATM   19  C   UNL     1      41.241 -14.345   3.699  1.00  0.00     0.029 A 
ENDBRANCH  11  14
ENDBRANCH   6  10
BRANCH   7  20
HETATM   20  C   UNL     1      41.673 -10.521   6.467  1.00  0.00    -0.027 A 
HETATM   21  C   UNL     1      40.400 -11.045   6.681  1.00  0.00     0.124 A 
HETATM   22  N   UNL     1      39.292 -10.638   6.022  1.00  0.00    -0.273 NA
HETATM   23  C   UNL     1      39.445  -9.642   5.123  1.00  0.00     0.116 A 
HETATM   24  C   UNL     1      40.663  -9.051   4.834  1.00  0.00     0.020 A 
HETATM   25  C   UNL     1      41.791  -9.503   5.511  1.00  0.00     0.011 A 
ENDBRANCH   7  20
BRANCH   8  26
HETATM   26  C   UNL     1      42.675  -9.404   9.170  1.00  0.00     0.255 C 
HETATM   27  N   UNL     1      42.683 -10.103  10.359  1.00  0.00    -0.323 N 
HETATM   28  H   UNL     1      43.256 -10.934  10.411  1.00  0.00     0.169 HD
HETATM   29  O   UNL     1      42.063  -8.372   8.921  1.00  0.00    -0.268 OA
BRANCH  27  30
HETATM   30  C   UNL     1      41.984  -9.780  11.541  1.00  0.00     0.035 A 
HETATM   31  C   UNL     1      40.595  -9.850  11.672  1.00  0.00     0.029 A 
HETATM   32  C   UNL     1      39.978  -9.501  12.878  1.00  0.00     0.002 A 
HETATM   33  C   UNL     1      40.744  -9.091  13.967  1.00  0.00     0.000 A 
HETATM   34  C   UNL     1      42.129  -9.022  13.849  1.00  0.00     0.002 A 
HETATM   35  C   UNL     1      42.745  -9.359  12.640  1.00  0.00     0.029 A 
ENDBRANCH  27  30
ENDBRANCH   8  26
TORSDOF 5
ENDMDL
