MODEL 1
REMARK VINA RESULT:      -8.4      0.000      0.000
REMARK  3 active torsions:
REMARK  status: ('A' for Active; 'I' for Inactive)
REMARK    1  A    between atoms: C_4  and  N_5 
REMARK       I    between atoms: N_5  and  C_6 
REMARK    2  A    between atoms: C_6  and  C_7 
REMARK    3  A    between atoms: C_7  and  C_8 
ROOT
HETATM    1  C   UNL     1      40.321 -15.371   5.412  1.00  0.00     0.286 C 
HETATM    2  N   UNL     1      40.252 -16.009   4.017  1.00  0.00    -0.056 N 
HETATM    3  H   UNL     1      40.961 -16.765   3.963  1.00  0.00     0.278 HD
HETATM    4  H   UNL     1      39.336 -16.461   3.901  1.00  0.00     0.278 HD
HETATM    5  C   UNL     1      40.515 -15.066   2.872  1.00  0.00     0.209 C 
HETATM    6  C   UNL     1      39.639 -13.810   3.033  1.00  0.00     0.115 C 
HETATM    7  N   UNL     1      39.878 -13.169   4.315  1.00  0.00    -0.353 N 
HETATM    8  C   UNL     1      39.995 -13.869   5.486  1.00  0.00     0.249 C 
HETATM    9  O   UNL     1      39.859 -13.293   6.561  1.00  0.00    -0.271 OA
HETATM   10  C   UNL     1      40.234 -15.778   1.552  1.00  0.00     0.035 C 
HETATM   11  C   UNL     1      40.455 -14.826   0.378  1.00  0.00     0.002 C 
HETATM   12  C   UNL     1      39.649 -13.535   0.523  1.00  0.00     0.002 C 
HETATM   13  C   UNL     1      39.889 -12.849   1.869  1.00  0.00     0.027 C 
HETATM   14  H   UNL     1      39.586 -12.203   4.450  1.00  0.00     0.163 HD
ENDROOT
BRANCH   1  15
HETATM   15  C   UNL     1      41.620 -15.710   6.147  1.00  0.00     0.146 C 
BRANCH  15  16
HETATM   16  C   UNL     1      42.819 -15.242   5.382  1.00  0.00     0.224 C 
HETATM   17  N   UNL     1      43.611 -15.998   4.593  1.00  0.00    -0.327 N 
HETATM   18  H   UNL     1      44.365 -15.428   4.215  1.00  0.00     0.169 HD
HETATM   19  O   UNL     1      43.183 -14.074   5.607  1.00  0.00    -0.273 OA
BRANCH  17  20
HETATM   20  C   UNL     1      43.654 -17.340   4.169  1.00  0.00     0.035 A 
HETATM   21  C   UNL     1      43.994 -18.448   4.942  1.00  0.00     0.036 A 
HETATM   22  C   UNL     1      44.025 -19.742   4.389  1.00  0.00    -0.060 A 
HETATM   23  C   UNL     1      44.364 -20.932   5.243  1.00  0.00     0.048 C 
HETATM   24  C   UNL     1      43.685 -19.930   3.047  1.00  0.00     0.007 A 
HETATM   25  C   UNL     1      43.332 -18.837   2.264  1.00  0.00     0.003 A 
HETATM   26  C   UNL     1      43.317 -17.557   2.822  1.00  0.00     0.029 A 
ENDBRANCH  17  20
ENDBRANCH  15  16
ENDBRANCH   1  15
TORSDOF 3
ENDMDL
MODEL 2
REMARK VINA RESULT:      -8.0      1.392      6.004
REMARK  3 active torsions:
REMARK  status: ('A' for Active; 'I' for Inactive)
REMARK    1  A    between atoms: C_4  and  N_5 
REMARK       I    between atoms: N_5  and  C_6 
REMARK    2  A    between atoms: C_6  and  C_7 
REMARK    3  A    between atoms: C_7  and  C_8 
ROOT
HETATM    1  C   UNL     1      43.413 -15.816   4.856  1.00  0.00     0.286 C 
HETATM    2  N   UNL     1      43.359 -16.503   3.484  1.00  0.00    -0.056 N 
HETATM    3  H   UNL     1      42.590 -16.080   2.931  1.00  0.00     0.278 HD
HETATM    4  H   UNL     1      44.228 -16.303   2.975  1.00  0.00     0.278 HD
HETATM    5  C   UNL     1      43.112 -17.990   3.527  1.00  0.00     0.209 C 
HETATM    6  C   UNL     1      44.093 -18.641   4.519  1.00  0.00     0.115 C 
HETATM    7  N   UNL     1      43.972 -18.045   5.839  1.00  0.00    -0.353 N 
HETATM    8  C   UNL     1      43.861 -16.695   6.037  1.00  0.00     0.249 C 
HETATM    9  O   UNL     1      44.099 -16.215   7.141  1.00  0.00    -0.271 OA
HETATM   10  C   UNL     1      43.267 -18.571   2.125  1.00  0.00     0.035 C 
HETATM   11  C   UNL     1      43.062 -20.084   2.152  1.00  0.00     0.002 C 
HETATM   12  C   UNL     1      43.975 -20.771   3.168  1.00  0.00     0.002 C 
HETATM   13  C   UNL     1      43.861 -20.153   4.563  1.00  0.00     0.027 C 
HETATM   14  H   UNL     1      44.347 -18.542   6.645  1.00  0.00     0.163 HD
ENDROOT
BRANCH   1  15
HETATM   15  C   UNL     1      42.131 -15.042   5.175  1.00  0.00     0.146 C 
BRANCH  15  16
HETATM   16  C   UNL     1      40.913 -15.873   4.915  1.00  0.00     0.224 C 
HETATM   17  N   UNL     1      40.082 -15.768   3.856  1.00  0.00    -0.327 N 
HETATM   18  H   UNL     1      39.323 -16.440   3.946  1.00  0.00     0.169 HD
HETATM   19  O   UNL     1      40.575 -16.641   5.833  1.00  0.00    -0.273 OA
BRANCH  17  20
HETATM   20  C   UNL     1      40.003 -14.983   2.689  1.00  0.00     0.035 A 
HETATM   21  C   UNL     1      39.756 -13.615   2.619  1.00  0.00     0.036 A 
HETATM   22  C   UNL     1      39.675 -12.950   1.381  1.00  0.00    -0.060 A 
HETATM   23  C   UNL     1      39.438 -11.467   1.323  1.00  0.00     0.048 C 
HETATM   24  C   UNL     1      39.871 -13.665   0.197  1.00  0.00     0.007 A 
HETATM   25  C   UNL     1      40.131 -15.029   0.249  1.00  0.00     0.003 A 
HETATM   26  C   UNL     1      40.197 -15.679   1.483  1.00  0.00     0.029 A 
ENDBRANCH  17  20
ENDBRANCH  15  16
ENDBRANCH   1  15
TORSDOF 3
ENDMDL
MODEL 3
REMARK VINA RESULT:      -8.0      2.438      4.091
REMARK  3 active torsions:
REMARK  status: ('A' for Active; 'I' for Inactive)
REMARK    1  A    between atoms: C_4  and  N_5 
REMARK       I    between atoms: N_5  and  C_6 
REMARK    2  A    between atoms: C_6  and  C_7 
REMARK    3  A    between atoms: C_7  and  C_8 
ROOT
HETATM    1  C   UNL     1      40.497 -13.509   4.543  1.00  0.00     0.286 C 
HETATM    2  N   UNL     1      41.549 -12.468   4.138  1.00  0.00    -0.056 N 
HETATM    3  H   UNL     1      41.717 -12.545   3.117  1.00  0.00     0.278 HD
HETATM    4  H   UNL     1      41.169 -11.527   4.300  1.00  0.00     0.278 HD
HETATM    5  C   UNL     1      42.884 -12.613   4.822  1.00  0.00     0.209 C 
HETATM    6  C   UNL     1      42.669 -12.731   6.342  1.00  0.00     0.115 C 
HETATM    7  N   UNL     1      41.787 -13.842   6.659  1.00  0.00    -0.353 N 
HETATM    8  C   UNL     1      40.642 -14.106   5.955  1.00  0.00     0.249 C 
HETATM    9  O   UNL     1      39.771 -14.818   6.444  1.00  0.00    -0.271 OA
HETATM   10  C   UNL     1      43.766 -11.418   4.474  1.00  0.00     0.035 C 
HETATM   11  C   UNL     1      45.111 -11.524   5.190  1.00  0.00     0.002 C 
HETATM   12  C   UNL     1      44.947 -11.703   6.700  1.00  0.00     0.002 C 
HETATM   13  C   UNL     1      44.019 -12.868   7.049  1.00  0.00     0.027 C 
HETATM   14  H   UNL     1      41.770 -14.208   7.609  1.00  0.00     0.163 HD
ENDROOT
BRANCH   1  15
HETATM   15  C   UNL     1      40.307 -14.595   3.482  1.00  0.00     0.146 C 
BRANCH  15  16
HETATM   16  C   UNL     1      41.312 -14.461   2.379  1.00  0.00     0.224 C 
HETATM   17  N   UNL     1      42.381 -15.257   2.168  1.00  0.00    -0.327 N 
HETATM   18  H   UNL     1      42.906 -14.923   1.363  1.00  0.00     0.169 HD
HETATM   19  O   UNL     1      41.212 -13.440   1.676  1.00  0.00    -0.273 OA
BRANCH  17  20
HETATM   20  C   UNL     1      42.939 -16.405   2.765  1.00  0.00     0.035 A 
HETATM   21  C   UNL     1      43.027 -17.677   2.204  1.00  0.00     0.036 A 
HETATM   22  C   UNL     1      43.587 -18.753   2.920  1.00  0.00    -0.060 A 
HETATM   23  C   UNL     1      43.704 -20.112   2.291  1.00  0.00     0.048 C 
HETATM   24  C   UNL     1      44.087 -18.542   4.207  1.00  0.00     0.007 A 
HETATM   25  C   UNL     1      44.018 -17.276   4.777  1.00  0.00     0.003 A 
HETATM   26  C   UNL     1      43.450 -16.221   4.062  1.00  0.00     0.029 A 
ENDBRANCH  17  20
ENDBRANCH  15  16
ENDBRANCH   1  15
TORSDOF 3
ENDMDL
MODEL 4
REMARK VINA RESULT:      -7.9      3.436      6.495
REMARK  3 active torsions:
REMARK  status: ('A' for Active; 'I' for Inactive)
REMARK    1  A    between atoms: C_4  and  N_5 
REMARK       I    between atoms: N_5  and  C_6 
REMARK    2  A    between atoms: C_6  and  C_7 
REMARK    3  A    between atoms: C_7  and  C_8 
ROOT
HETATM    1  C   UNL     1      43.539 -15.372   6.295  1.00  0.00     0.286 C 
HETATM    2  N   UNL     1      43.390 -15.384   4.768  1.00  0.00    -0.056 N 
HETATM    3  H   UNL     1      42.629 -14.731   4.503  1.00  0.00     0.278 HD
HETATM    4  H   UNL     1      44.251 -15.015   4.344  1.00  0.00     0.278 HD
HETATM    5  C   UNL     1      43.053 -16.727   4.171  1.00  0.00     0.209 C 
HETATM    6  C   UNL     1      44.027 -17.787   4.717  1.00  0.00     0.115 C 
HETATM    7  N   UNL     1      43.994 -17.827   6.169  1.00  0.00    -0.353 N 
HETATM    8  C   UNL     1      43.975 -16.698   6.944  1.00  0.00     0.249 C 
HETATM    9  O   UNL     1      44.284 -16.762   8.130  1.00  0.00    -0.271 OA
HETATM   10  C   UNL     1      43.118 -16.638   2.650  1.00  0.00     0.035 C 
HETATM   11  C   UNL     1      42.819 -18.000   2.025  1.00  0.00     0.002 C 
HETATM   12  C   UNL     1      43.724 -19.100   2.581  1.00  0.00     0.002 C 
HETATM   13  C   UNL     1      43.702 -19.153   4.110  1.00  0.00     0.027 C 
HETATM   14  H   UNL     1      44.367 -18.642   6.652  1.00  0.00     0.163 HD
ENDROOT
BRANCH   1  15
HETATM   15  C   UNL     1      42.322 -14.767   6.998  1.00  0.00     0.146 C 
BRANCH  15  16
HETATM   16  C   UNL     1      41.841 -13.536   6.294  1.00  0.00     0.224 C 
HETATM   17  N   UNL     1      42.436 -12.325   6.302  1.00  0.00    -0.327 N 
HETATM   18  H   UNL     1      41.881 -11.665   5.759  1.00  0.00     0.169 HD
HETATM   19  O   UNL     1      40.720 -13.619   5.762  1.00  0.00    -0.273 OA
BRANCH  17  20
HETATM   20  C   UNL     1      43.601 -11.758   6.855  1.00  0.00     0.035 A 
HETATM   21  C   UNL     1      43.727 -11.173   8.113  1.00  0.00     0.036 A 
HETATM   22  C   UNL     1      44.948 -10.615   8.539  1.00  0.00    -0.060 A 
HETATM   23  C   UNL     1      45.077 -10.016   9.911  1.00  0.00     0.048 C 
HETATM   24  C   UNL     1      46.063 -10.669   7.700  1.00  0.00     0.007 A 
HETATM   25  C   UNL     1      45.958 -11.259   6.447  1.00  0.00     0.003 A 
HETATM   26  C   UNL     1      44.739 -11.798   6.031  1.00  0.00     0.029 A 
ENDBRANCH  17  20
ENDBRANCH  15  16
ENDBRANCH   1  15
TORSDOF 3
ENDMDL
MODEL 5
REMARK VINA RESULT:      -7.9      2.232      3.288
REMARK  3 active torsions:
REMARK  status: ('A' for Active; 'I' for Inactive)
REMARK    1  A    between atoms: C_4  and  N_5 
REMARK       I    between atoms: N_5  and  C_6 
REMARK    2  A    between atoms: C_6  and  C_7 
REMARK    3  A    between atoms: C_7  and  C_8 
ROOT
HETATM    1  C   UNL     1      41.480 -14.927   1.857  1.00  0.00     0.286 C 
HETATM    2  N   UNL     1      42.071 -13.510   1.841  1.00  0.00    -0.056 N 
HETATM    3  H   UNL     1      42.578 -13.352   2.732  1.00  0.00     0.278 HD
HETATM    4  H   UNL     1      42.772 -13.449   1.092  1.00  0.00     0.278 HD
HETATM    5  C   UNL     1      41.061 -12.401   1.698  1.00  0.00     0.209 C 
HETATM    6  C   UNL     1      40.129 -12.707   0.511  1.00  0.00     0.115 C 
HETATM    7  N   UNL     1      39.481 -13.997   0.678  1.00  0.00    -0.353 N 
HETATM    8  C   UNL     1      40.146 -15.113   1.112  1.00  0.00     0.249 C 
HETATM    9  O   UNL     1      39.668 -16.227   0.920  1.00  0.00    -0.271 OA
HETATM   10  C   UNL     1      41.788 -11.073   1.509  1.00  0.00     0.035 C 
HETATM   11  C   UNL     1      40.782  -9.939   1.322  1.00  0.00     0.002 C 
HETATM   12  C   UNL     1      39.795 -10.225   0.190  1.00  0.00     0.002 C 
HETATM   13  C   UNL     1      39.106 -11.582   0.349  1.00  0.00     0.027 C 
HETATM   14  H   UNL     1      38.651 -14.211   0.129  1.00  0.00     0.163 HD
ENDROOT
BRANCH   1  15
HETATM   15  C   UNL     1      41.435 -15.527   3.264  1.00  0.00     0.146 C 
BRANCH  15  16
HETATM   16  C   UNL     1      42.743 -15.353   3.974  1.00  0.00     0.224 C 
HETATM   17  N   UNL     1      43.621 -16.329   4.286  1.00  0.00    -0.327 N 
HETATM   18  H   UNL     1      44.413 -15.933   4.787  1.00  0.00     0.169 HD
HETATM   19  O   UNL     1      42.967 -14.216   4.425  1.00  0.00    -0.273 OA
BRANCH  17  20
HETATM   20  C   UNL     1      43.715 -17.722   4.097  1.00  0.00     0.035 A 
HETATM   21  C   UNL     1      43.593 -18.410   2.893  1.00  0.00     0.036 A 
HETATM   22  C   UNL     1      43.683 -19.815   2.842  1.00  0.00    -0.060 A 
HETATM   23  C   UNL     1      43.580 -20.541   1.531  1.00  0.00     0.048 C 
HETATM   24  C   UNL     1      43.923 -20.535   4.014  1.00  0.00     0.007 A 
HETATM   25  C   UNL     1      44.060 -19.864   5.223  1.00  0.00     0.003 A 
HETATM   26  C   UNL     1      43.957 -18.471   5.261  1.00  0.00     0.029 A 
ENDBRANCH  17  20
ENDBRANCH  15  16
ENDBRANCH   1  15
TORSDOF 3
ENDMDL
MODEL 6
REMARK VINA RESULT:      -7.8      1.293      5.569
REMARK  3 active torsions:
REMARK  status: ('A' for Active; 'I' for Inactive)
REMARK    1  A    between atoms: C_4  and  N_5 
REMARK       I    between atoms: N_5  and  C_6 
REMARK    2  A    between atoms: C_6  and  C_7 
REMARK    3  A    between atoms: C_7  and  C_8 
ROOT
HETATM    1  C   UNL     1      43.000 -13.630   4.804  1.00  0.00     0.286 C 
HETATM    2  N   UNL     1      43.161 -14.394   3.482  1.00  0.00    -0.056 N 
HETATM    3  H   UNL     1      42.473 -14.024   2.799  1.00  0.00     0.278 HD
HETATM    4  H   UNL     1      44.092 -14.198   3.093  1.00  0.00     0.278 HD
HETATM    5  C   UNL     1      42.941 -15.882   3.577  1.00  0.00     0.209 C 
HETATM    6  C   UNL     1      43.778 -16.449   4.738  1.00  0.00     0.115 C 
HETATM    7  N   UNL     1      43.454 -15.784   5.988  1.00  0.00    -0.353 N 
HETATM    8  C   UNL     1      43.288 -14.428   6.088  1.00  0.00     0.249 C 
HETATM    9  O   UNL     1      43.352 -13.881   7.184  1.00  0.00    -0.271 OA
HETATM   10  C   UNL     1      43.311 -16.536   2.249  1.00  0.00     0.035 C 
HETATM   11  C   UNL     1      43.134 -18.051   2.336  1.00  0.00     0.002 C 
HETATM   12  C   UNL     1      43.901 -18.654   3.513  1.00  0.00     0.002 C 
HETATM   13  C   UNL     1      43.572 -17.962   4.837  1.00  0.00     0.027 C 
HETATM   14  H   UNL     1      43.717 -16.224   6.868  1.00  0.00     0.163 HD
ENDROOT
BRANCH   1  15
HETATM   15  C   UNL     1      41.671 -12.876   4.887  1.00  0.00     0.146 C 
BRANCH  15  16
HETATM   16  C   UNL     1      40.512 -13.821   4.980  1.00  0.00     0.224 C 
HETATM   17  N   UNL     1      39.794 -14.311   3.948  1.00  0.00    -0.327 N 
HETATM   18  H   UNL     1      39.051 -14.911   4.300  1.00  0.00     0.169 HD
HETATM   19  O   UNL     1      40.104 -14.066   6.128  1.00  0.00    -0.273 OA
BRANCH  17  20
HETATM   20  C   UNL     1      39.813 -14.205   2.543  1.00  0.00     0.035 A 
HETATM   21  C   UNL     1      39.777 -13.031   1.795  1.00  0.00     0.036 A 
HETATM   22  C   UNL     1      39.775 -13.063   0.387  1.00  0.00    -0.060 A 
HETATM   23  C   UNL     1      39.767 -11.787  -0.407  1.00  0.00     0.048 C 
HETATM   24  C   UNL     1      39.836 -14.290  -0.277  1.00  0.00     0.007 A 
HETATM   25  C   UNL     1      39.884 -15.471   0.454  1.00  0.00     0.003 A 
HETATM   26  C   UNL     1      39.874 -15.426   1.850  1.00  0.00     0.029 A 
ENDBRANCH  17  20
ENDBRANCH  15  16
ENDBRANCH   1  15
TORSDOF 3
ENDMDL
MODEL 7
REMARK VINA RESULT:      -7.7      2.048      2.963
REMARK  3 active torsions:
REMARK  status: ('A' for Active; 'I' for Inactive)
REMARK    1  A    between atoms: C_4  and  N_5 
REMARK       I    between atoms: N_5  and  C_6 
REMARK    2  A    between atoms: C_6  and  C_7 
REMARK    3  A    between atoms: C_7  and  C_8 
ROOT
HETATM    1  C   UNL     1      39.590 -14.211   2.449  1.00  0.00     0.286 C 
HETATM    2  N   UNL     1      39.635 -14.843   1.051  1.00  0.00    -0.056 N 
HETATM    3  H   UNL     1      40.323 -15.620   1.061  1.00  0.00     0.278 HD
HETATM    4  H   UNL     1      38.721 -15.266   0.846  1.00  0.00     0.278 HD
HETATM    5  C   UNL     1      40.036 -13.906  -0.059  1.00  0.00     0.209 C 
HETATM    6  C   UNL     1      39.187 -12.624   0.025  1.00  0.00     0.115 C 
HETATM    7  N   UNL     1      39.322 -11.993   1.327  1.00  0.00    -0.353 N 
HETATM    8  C   UNL     1      39.304 -12.699   2.500  1.00  0.00     0.249 C 
HETATM    9  O   UNL     1      39.083 -12.122   3.560  1.00  0.00    -0.271 OA
HETATM   10  C   UNL     1      39.861 -14.605  -1.403  1.00  0.00     0.035 C 
HETATM   11  C   UNL     1      40.222 -13.658  -2.546  1.00  0.00     0.002 C 
HETATM   12  C   UNL     1      39.446 -12.343  -2.471  1.00  0.00     0.002 C 
HETATM   13  C   UNL     1      39.577 -11.668  -1.105  1.00  0.00     0.027 C 
HETATM   14  H   UNL     1      39.048 -11.019   1.438  1.00  0.00     0.163 HD
ENDROOT
BRANCH   1  15
HETATM   15  C   UNL     1      40.801 -14.591   3.304  1.00  0.00     0.146 C 
BRANCH  15  16
HETATM   16  C   UNL     1      42.082 -14.401   2.552  1.00  0.00     0.224 C 
HETATM   17  N   UNL     1      43.094 -15.289   2.455  1.00  0.00    -0.327 N 
HETATM   18  H   UNL     1      43.850 -14.890   1.903  1.00  0.00     0.169 HD
HETATM   19  O   UNL     1      42.272 -13.264   2.085  1.00  0.00    -0.273 OA
BRANCH  17  20
HETATM   20  C   UNL     1      43.359 -16.595   2.912  1.00  0.00     0.035 A 
HETATM   21  C   UNL     1      43.261 -17.772   2.174  1.00  0.00     0.036 A 
HETATM   22  C   UNL     1      43.531 -19.024   2.759  1.00  0.00    -0.060 A 
HETATM   23  C   UNL     1      43.451 -20.283   1.943  1.00  0.00     0.048 C 
HETATM   24  C   UNL     1      43.928 -19.092   4.097  1.00  0.00     0.007 A 
HETATM   25  C   UNL     1      44.043 -17.926   4.844  1.00  0.00     0.003 A 
HETATM   26  C   UNL     1      43.761 -16.692   4.255  1.00  0.00     0.029 A 
ENDBRANCH  17  20
ENDBRANCH  15  16
ENDBRANCH   1  15
TORSDOF 3
ENDMDL
MODEL 8
REMARK VINA RESULT:      -7.6      2.310      6.520
REMARK  3 active torsions:
REMARK  status: ('A' for Active; 'I' for Inactive)
REMARK    1  A    between atoms: C_4  and  N_5 
REMARK       I    between atoms: N_5  and  C_6 
REMARK    2  A    between atoms: C_6  and  C_7 
REMARK    3  A    between atoms: C_7  and  C_8 
ROOT
HETATM    1  C   UNL     1      42.106 -14.184   2.881  1.00  0.00     0.286 C 
HETATM    2  N   UNL     1      42.619 -15.437   2.157  1.00  0.00    -0.056 N 
HETATM    3  H   UNL     1      41.949 -15.682   1.404  1.00  0.00     0.278 HD
HETATM    4  H   UNL     1      43.510 -15.215   1.695  1.00  0.00     0.278 HD
HETATM    5  C   UNL     1      42.776 -16.656   3.029  1.00  0.00     0.209 C 
HETATM    6  C   UNL     1      43.581 -16.283   4.288  1.00  0.00     0.115 C 
HETATM    7  N   UNL     1      42.945 -15.193   5.009  1.00  0.00    -0.353 N 
HETATM    8  C   UNL     1      42.427 -14.090   4.383  1.00  0.00     0.249 C 
HETATM    9  O   UNL     1      42.213 -13.065   5.023  1.00  0.00    -0.271 OA
HETATM   10  C   UNL     1      43.462 -17.764   2.236  1.00  0.00     0.035 C 
HETATM   11  C   UNL     1      43.669 -18.996   3.114  1.00  0.00     0.002 C 
HETATM   12  C   UNL     1      44.413 -18.664   4.407  1.00  0.00     0.002 C 
HETATM   13  C   UNL     1      43.757 -17.516   5.177  1.00  0.00     0.027 C 
HETATM   14  H   UNL     1      43.201 -15.023   5.980  1.00  0.00     0.163 HD
ENDROOT
BRANCH   1  15
HETATM   15  C   UNL     1      40.629 -13.906   2.595  1.00  0.00     0.146 C 
BRANCH  15  16
HETATM   16  C   UNL     1      39.988 -15.049   1.869  1.00  0.00     0.224 C 
HETATM   17  N   UNL     1      39.685 -15.094   0.555  1.00  0.00    -0.327 N 
HETATM   18  H   UNL     1      39.235 -15.980   0.336  1.00  0.00     0.169 HD
HETATM   19  O   UNL     1      39.587 -15.986   2.582  1.00  0.00    -0.273 OA
BRANCH  17  20
HETATM   20  C   UNL     1      39.831 -14.246  -0.561  1.00  0.00     0.035 A 
HETATM   21  C   UNL     1      40.533 -13.045  -0.608  1.00  0.00     0.036 A 
HETATM   22  C   UNL     1      40.581 -12.274  -1.786  1.00  0.00    -0.060 A 
HETATM   23  C   UNL     1      41.368 -10.994  -1.832  1.00  0.00     0.048 C 
HETATM   24  C   UNL     1      39.935 -12.729  -2.938  1.00  0.00     0.007 A 
HETATM   25  C   UNL     1      39.240 -13.932  -2.911  1.00  0.00     0.003 A 
HETATM   26  C   UNL     1      39.190 -14.681  -1.733  1.00  0.00     0.029 A 
ENDBRANCH  17  20
ENDBRANCH  15  16
ENDBRANCH   1  15
TORSDOF 3
ENDMDL
MODEL 9
REMARK VINA RESULT:      -7.5      1.896      2.760
REMARK  3 active torsions:
REMARK  status: ('A' for Active; 'I' for Inactive)
REMARK    1  A    between atoms: C_4  and  N_5 
REMARK       I    between atoms: N_5  and  C_6 
REMARK    2  A    between atoms: C_6  and  C_7 
REMARK    3  A    between atoms: C_7  and  C_8 
ROOT
HETATM    1  C   UNL     1      41.852 -14.347   2.772  1.00  0.00     0.286 C 
HETATM    2  N   UNL     1      40.798 -14.957   1.839  1.00  0.00    -0.056 N 
HETATM    3  H   UNL     1      40.962 -15.979   1.775  1.00  0.00     0.278 HD
HETATM    4  H   UNL     1      39.868 -14.838   2.260  1.00  0.00     0.278 HD
HETATM    5  C   UNL     1      40.803 -14.416   0.432  1.00  0.00     0.209 C 
HETATM    6  C   UNL     1      40.789 -12.877   0.477  1.00  0.00     0.115 C 
HETATM    7  N   UNL     1      41.911 -12.367   1.246  1.00  0.00    -0.353 N 
HETATM    8  C   UNL     1      42.303 -12.914   2.439  1.00  0.00     0.249 C 
HETATM    9  O   UNL     1      43.013 -12.270   3.205  1.00  0.00    -0.271 OA
HETATM   10  C   UNL     1      39.599 -14.964  -0.329  1.00  0.00     0.035 C 
HETATM   11  C   UNL     1      39.563 -14.395  -1.746  1.00  0.00     0.002 C 
HETATM   12  C   UNL     1      39.607 -12.867  -1.754  1.00  0.00     0.002 C 
HETATM   13  C   UNL     1      40.783 -12.315  -0.946  1.00  0.00     0.027 C 
HETATM   14  H   UNL     1      42.186 -11.393   1.139  1.00  0.00     0.163 HD
ENDROOT
BRANCH   1  15
HETATM   15  C   UNL     1      43.043 -15.281   3.001  1.00  0.00     0.146 C 
BRANCH  15  16
HETATM   16  C   UNL     1      43.237 -15.571   4.458  1.00  0.00     0.224 C 
HETATM   17  N   UNL     1      43.462 -16.781   5.011  1.00  0.00    -0.327 N 
HETATM   18  H   UNL     1      43.532 -16.690   6.022  1.00  0.00     0.169 HD
HETATM   19  O   UNL     1      43.042 -14.616   5.230  1.00  0.00    -0.273 OA
BRANCH  17  20
HETATM   20  C   UNL     1      43.621 -18.104   4.553  1.00  0.00     0.035 A 
HETATM   21  C   UNL     1      43.543 -18.545   3.235  1.00  0.00     0.036 A 
HETATM   22  C   UNL     1      43.696 -19.907   2.910  1.00  0.00    -0.060 A 
HETATM   23  C   UNL     1      43.640 -20.364   1.480  1.00  0.00     0.048 C 
HETATM   24  C   UNL     1      43.956 -20.834   3.922  1.00  0.00     0.007 A 
HETATM   25  C   UNL     1      44.050 -20.409   5.242  1.00  0.00     0.003 A 
HETATM   26  C   UNL     1      43.884 -19.057   5.552  1.00  0.00     0.029 A 
ENDBRANCH  17  20
ENDBRANCH  15  16
ENDBRANCH   1  15
TORSDOF 3
ENDMDL
MODEL 10
REMARK VINA RESULT:      -7.5      3.802      5.837
REMARK  3 active torsions:
REMARK  status: ('A' for Active; 'I' for Inactive)
REMARK    1  A    between atoms: C_4  and  N_5 
REMARK       I    between atoms: N_5  and  C_6 
REMARK    2  A    between atoms: C_6  and  C_7 
REMARK    3  A    between atoms: C_7  and  C_8 
ROOT
HETATM    1  C   UNL     1      42.243 -12.462   6.308  1.00  0.00     0.286 C 
HETATM    2  N   UNL     1      42.085 -11.153   7.095  1.00  0.00    -0.056 N 
HETATM    3  H   UNL     1      41.415 -10.542   6.592  1.00  0.00     0.278 HD
HETATM    4  H   UNL     1      41.662 -11.362   8.008  1.00  0.00     0.278 HD
HETATM    5  C   UNL     1      43.356 -10.365   7.280  1.00  0.00     0.209 C 
HETATM    6  C   UNL     1      44.460 -11.294   7.818  1.00  0.00     0.115 C 
HETATM    7  N   UNL     1      44.663 -12.429   6.933  1.00  0.00    -0.353 N 
HETATM    8  C   UNL     1      43.629 -13.129   6.373  1.00  0.00     0.249 C 
HETATM    9  O   UNL     1      43.822 -14.254   5.922  1.00  0.00    -0.271 OA
HETATM   10  C   UNL     1      43.097  -9.198   8.228  1.00  0.00     0.035 C 
HETATM   11  C   UNL     1      44.384  -8.408   8.462  1.00  0.00     0.002 C 
HETATM   12  C   UNL     1      45.528  -9.301   8.942  1.00  0.00     0.002 C 
HETATM   13  C   UNL     1      45.753 -10.502   8.021  1.00  0.00     0.027 C 
HETATM   14  H   UNL     1      45.523 -12.969   7.008  1.00  0.00     0.163 HD
ENDROOT
BRANCH   1  15
HETATM   15  C   UNL     1      41.734 -12.345   4.869  1.00  0.00     0.146 C 
BRANCH  15  16
HETATM   16  C   UNL     1      40.526 -13.202   4.646  1.00  0.00     0.224 C 
HETATM   17  N   UNL     1      40.502 -14.411   4.046  1.00  0.00    -0.327 N 
HETATM   18  H   UNL     1      39.546 -14.757   4.008  1.00  0.00     0.169 HD
HETATM   19  O   UNL     1      39.433 -12.682   4.929  1.00  0.00    -0.273 OA
BRANCH  17  20
HETATM   20  C   UNL     1      41.442 -15.292   3.475  1.00  0.00     0.035 A 
HETATM   21  C   UNL     1      42.127 -16.315   4.126  1.00  0.00     0.036 A 
HETATM   22  C   UNL     1      43.066 -17.113   3.444  1.00  0.00    -0.060 A 
HETATM   23  C   UNL     1      43.776 -18.233   4.152  1.00  0.00     0.048 C 
HETATM   24  C   UNL     1      43.301 -16.896   2.084  1.00  0.00     0.007 A 
HETATM   25  C   UNL     1      42.617 -15.887   1.417  1.00  0.00     0.003 A 
HETATM   26  C   UNL     1      41.697 -15.095   2.107  1.00  0.00     0.029 A 
ENDBRANCH  17  20
ENDBRANCH  15  16
ENDBRANCH   1  15
TORSDOF 3
ENDMDL
