MODEL 1
REMARK VINA RESULT:      -9.9      0.000      0.000
REMARK  7 active torsions:
REMARK  status: ('A' for Active; 'I' for Inactive)
REMARK    1  A    between atoms: C_4  and  N_5 
REMARK    2  A    between atoms: C_6  and  S_7 
REMARK    3  A    between atoms: S_7  and  C_8 
REMARK    4  A    between atoms: C_8  and  C_9 
REMARK       I    between atoms: C_9  and  N_10 
REMARK    5  A    between atoms: C_12  and  C_13 
REMARK    6  A    between atoms: C_13  and  N_14 
REMARK       I    between atoms: N_14  and  C_15 
REMARK       I    between atoms: C_15  and  N_16 
REMARK    7  A    between atoms: N_16  and  C_17 
ROOT
HETATM    1  C   UNL     1      42.581 -11.250   3.143  1.00  0.00     0.229 C 
HETATM    2  N   UNL     1      42.010 -10.625   4.263  1.00  0.00    -0.351 N 
HETATM    3  C   UNL     1      41.754 -11.321   5.519  1.00  0.00     0.132 C 
HETATM    4  C   UNL     1      41.586 -10.404   6.737  1.00  0.00     0.021 C 
HETATM    5  C   UNL     1      40.637  -9.240   6.427  1.00  0.00     0.009 C 
HETATM    6  C   UNL     1      41.022  -8.521   5.142  1.00  0.00     0.020 C 
HETATM    7  C   UNL     1      41.122  -9.496   3.976  1.00  0.00     0.126 C 
HETATM    8  O   UNL     1      42.489 -10.732   2.022  1.00  0.00    -0.273 OA
ENDROOT
BRANCH   1   9
HETATM    9  C   UNL     1      43.501 -12.453   3.312  1.00  0.00     0.185 C 
BRANCH   9  10
HETATM   10  S   UNL     1      43.359 -13.842   2.169  1.00  0.00    -0.082 SA
BRANCH  10  11
HETATM   11  C   UNL     1      41.779 -14.489   2.455  1.00  0.00     0.173 A 
HETATM   12  N   UNL     1      41.531 -15.803   2.843  1.00  0.00    -0.299 N 
HETATM   13  C   UNL     1      40.153 -15.923   2.834  1.00  0.00     0.118 A 
HETATM   14  C   UNL     1      39.658 -14.703   2.445  1.00  0.00     0.137 A 
HETATM   15  N   UNL     1      40.674 -13.826   2.203  1.00  0.00    -0.235 NA
BRANCH  12  16
HETATM   16  C   UNL     1      42.437 -16.822   3.269  1.00  0.00     0.047 A 
HETATM   17  C   UNL     1      42.639 -17.936   2.431  1.00  0.00     0.037 A 
HETATM   18  C   UNL     1      43.558 -18.940   2.758  1.00  0.00    -0.060 A 
HETATM   19  C   UNL     1      43.735 -20.136   1.868  1.00  0.00     0.048 C 
HETATM   20  C   UNL     1      44.279 -18.833   3.947  1.00  0.00     0.007 A 
HETATM   21  C   UNL     1      44.088 -17.734   4.787  1.00  0.00     0.009 A 
HETATM   22  C   UNL     1      43.160 -16.723   4.476  1.00  0.00    -0.035 A 
HETATM   23  C   UNL     1      42.976 -15.626   5.490  1.00  0.00     0.050 C 
ENDBRANCH  12  16
ENDBRANCH  10  11
ENDBRANCH   9  10
ENDBRANCH   1   9
BRANCH   4  24
HETATM   24  C   UNL     1      42.971  -9.952   7.237  1.00  0.00     0.130 C 
BRANCH  24  25
HETATM   25  N   UNL     1      43.084  -9.888   8.684  1.00  0.00    -0.342 N 
HETATM   26  C   UNL     1      44.062 -10.566   9.349  1.00  0.00     0.320 C 
HETATM   27  N   UNL     1      44.161 -10.365  10.692  1.00  0.00    -0.309 N 
HETATM   28  O   UNL     1      44.879 -11.293   8.789  1.00  0.00    -0.247 OA
HETATM   29  H   UNL     1      45.026 -10.756  11.048  1.00  0.00     0.170 HD
HETATM   30  H   UNL     1      42.900  -8.980   9.085  1.00  0.00     0.164 HD
BRANCH  27  31
HETATM   31  C   UNL     1      43.311  -9.757  11.635  1.00  0.00     0.039 A 
HETATM   32  C   UNL     1      42.181 -10.361  12.187  1.00  0.00     0.071 A 
HETATM   33  C   UNL     1      41.396  -9.659  13.099  1.00  0.00     0.118 A 
HETATM   34  F   UNL     1      40.307 -10.245  13.612  1.00  0.00    -0.206 F 
HETATM   35  C   UNL     1      41.724  -8.368  13.493  1.00  0.00     0.042 A 
HETATM   36  C   UNL     1      42.870  -7.771  12.978  1.00  0.00     0.005 A 
HETATM   37  C   UNL     1      43.663  -8.468  12.061  1.00  0.00     0.030 A 
ENDBRANCH  27  31
ENDBRANCH  24  25
ENDBRANCH   4  24
TORSDOF 7
ENDMDL
MODEL 2
REMARK VINA RESULT:      -9.3      3.234      9.951
REMARK  7 active torsions:
REMARK  status: ('A' for Active; 'I' for Inactive)
REMARK    1  A    between atoms: C_4  and  N_5 
REMARK    2  A    between atoms: C_6  and  S_7 
REMARK    3  A    between atoms: S_7  and  C_8 
REMARK    4  A    between atoms: C_8  and  C_9 
REMARK       I    between atoms: C_9  and  N_10 
REMARK    5  A    between atoms: C_12  and  C_13 
REMARK    6  A    between atoms: C_13  and  N_14 
REMARK       I    between atoms: N_14  and  C_15 
REMARK       I    between atoms: C_15  and  N_16 
REMARK    7  A    between atoms: N_16  and  C_17 
ROOT
HETATM    1  C   UNL     1      43.232 -12.268   6.743  1.00  0.00     0.229 C 
HETATM    2  N   UNL     1      42.576 -13.490   6.526  1.00  0.00    -0.351 N 
HETATM    3  C   UNL     1      41.158 -13.584   6.196  1.00  0.00     0.132 C 
HETATM    4  C   UNL     1      40.739 -14.906   5.540  1.00  0.00     0.021 C 
HETATM    5  C   UNL     1      41.318 -16.108   6.299  1.00  0.00     0.009 C 
HETATM    6  C   UNL     1      42.814 -15.963   6.532  1.00  0.00     0.020 C 
HETATM    7  C   UNL     1      43.138 -14.646   7.226  1.00  0.00     0.126 C 
HETATM    8  O   UNL     1      44.326 -12.239   7.322  1.00  0.00    -0.273 OA
ENDROOT
BRANCH   1   9
HETATM    9  C   UNL     1      42.725 -10.988   6.090  1.00  0.00     0.185 C 
BRANCH   9  10
HETATM   10  S   UNL     1      41.289 -10.148   6.790  1.00  0.00    -0.082 SA
BRANCH  10  11
HETATM   11  C   UNL     1      41.813  -8.518   7.047  1.00  0.00     0.173 A 
HETATM   12  N   UNL     1      42.420  -8.066   8.216  1.00  0.00    -0.299 N 
HETATM   13  C   UNL     1      42.554  -6.701   8.044  1.00  0.00     0.118 A 
HETATM   14  C   UNL     1      42.029  -6.411   6.809  1.00  0.00     0.137 A 
HETATM   15  N   UNL     1      41.564  -7.541   6.206  1.00  0.00    -0.235 NA
BRANCH  12  16
HETATM   16  C   UNL     1      42.913  -8.801   9.338  1.00  0.00     0.047 A 
HETATM   17  C   UNL     1      42.036  -9.067  10.407  1.00  0.00     0.037 A 
HETATM   18  C   UNL     1      42.436  -9.833  11.508  1.00  0.00    -0.060 A 
HETATM   19  C   UNL     1      41.495 -10.077  12.653  1.00  0.00     0.048 C 
HETATM   20  C   UNL     1      43.737 -10.332  11.545  1.00  0.00     0.007 A 
HETATM   21  C   UNL     1      44.618 -10.076  10.492  1.00  0.00     0.009 A 
HETATM   22  C   UNL     1      44.232  -9.298   9.384  1.00  0.00    -0.035 A 
HETATM   23  C   UNL     1      45.284  -9.018   8.345  1.00  0.00     0.050 C 
ENDBRANCH  12  16
ENDBRANCH  10  11
ENDBRANCH   9  10
ENDBRANCH   1   9
BRANCH   4  24
HETATM   24  C   UNL     1      41.113 -14.883   4.047  1.00  0.00     0.130 C 
BRANCH  24  25
HETATM   25  N   UNL     1      41.964 -15.986   3.635  1.00  0.00    -0.342 N 
HETATM   26  C   UNL     1      42.833 -15.859   2.592  1.00  0.00     0.320 C 
HETATM   27  N   UNL     1      43.668 -16.905   2.341  1.00  0.00    -0.309 N 
HETATM   28  O   UNL     1      42.932 -14.837   1.916  1.00  0.00    -0.247 OA
HETATM   29  H   UNL     1      44.391 -16.634   1.685  1.00  0.00     0.170 HD
HETATM   30  H   UNL     1      42.344 -16.535   4.391  1.00  0.00     0.164 HD
BRANCH  27  31
HETATM   31  C   UNL     1      43.698 -18.237   2.795  1.00  0.00     0.039 A 
HETATM   32  C   UNL     1      44.151 -18.633   4.054  1.00  0.00     0.071 A 
HETATM   33  C   UNL     1      44.156 -19.984   4.395  1.00  0.00     0.118 A 
HETATM   34  F   UNL     1      44.606 -20.353   5.601  1.00  0.00    -0.206 F 
HETATM   35  C   UNL     1      43.697 -20.955   3.513  1.00  0.00     0.042 A 
HETATM   36  C   UNL     1      43.207 -20.567   2.271  1.00  0.00     0.005 A 
HETATM   37  C   UNL     1      43.200 -19.213   1.919  1.00  0.00     0.030 A 
ENDBRANCH  27  31
ENDBRANCH  24  25
ENDBRANCH   4  24
TORSDOF 7
ENDMDL
MODEL 3
REMARK VINA RESULT:      -9.3      2.540      3.232
REMARK  7 active torsions:
REMARK  status: ('A' for Active; 'I' for Inactive)
REMARK    1  A    between atoms: C_4  and  N_5 
REMARK    2  A    between atoms: C_6  and  S_7 
REMARK    3  A    between atoms: S_7  and  C_8 
REMARK    4  A    between atoms: C_8  and  C_9 
REMARK       I    between atoms: C_9  and  N_10 
REMARK    5  A    between atoms: C_12  and  C_13 
REMARK    6  A    between atoms: C_13  and  N_14 
REMARK       I    between atoms: N_14  and  C_15 
REMARK       I    between atoms: C_15  and  N_16 
REMARK    7  A    between atoms: N_16  and  C_17 
ROOT
HETATM    1  C   UNL     1      41.913 -13.338   5.952  1.00  0.00     0.229 C 
HETATM    2  N   UNL     1      41.319 -12.066   5.918  1.00  0.00    -0.351 N 
HETATM    3  C   UNL     1      39.930 -11.846   5.530  1.00  0.00     0.132 C 
HETATM    4  C   UNL     1      39.337 -10.512   6.000  1.00  0.00     0.021 C 
HETATM    5  C   UNL     1      40.292  -9.348   5.707  1.00  0.00     0.009 C 
HETATM    6  C   UNL     1      41.699  -9.628   6.213  1.00  0.00     0.020 C 
HETATM    7  C   UNL     1      42.229 -10.947   5.664  1.00  0.00     0.126 C 
HETATM    8  O   UNL     1      43.146 -13.453   5.971  1.00  0.00    -0.273 OA
ENDROOT
BRANCH   1   9
HETATM    9  C   UNL     1      41.066 -14.583   6.182  1.00  0.00     0.185 C 
BRANCH   9  10
HETATM   10  S   UNL     1      40.677 -15.657   4.785  1.00  0.00    -0.082 SA
BRANCH  10  11
HETATM   11  C   UNL     1      41.709 -15.112   3.507  1.00  0.00     0.173 A 
HETATM   12  N   UNL     1      42.831 -15.804   3.059  1.00  0.00    -0.299 N 
HETATM   13  C   UNL     1      43.422 -14.964   2.133  1.00  0.00     0.118 A 
HETATM   14  C   UNL     1      42.643 -13.835   2.078  1.00  0.00     0.137 A 
HETATM   15  N   UNL     1      41.592 -13.933   2.941  1.00  0.00    -0.235 NA
BRANCH  12  16
HETATM   16  C   UNL     1      43.278 -17.127   3.364  1.00  0.00     0.047 A 
HETATM   17  C   UNL     1      43.082 -18.141   2.407  1.00  0.00     0.037 A 
HETATM   18  C   UNL     1      43.549 -19.444   2.616  1.00  0.00    -0.060 A 
HETATM   19  C   UNL     1      43.301 -20.519   1.597  1.00  0.00     0.048 C 
HETATM   20  C   UNL     1      44.213 -19.739   3.805  1.00  0.00     0.007 A 
HETATM   21  C   UNL     1      44.414 -18.743   4.763  1.00  0.00     0.009 A 
HETATM   22  C   UNL     1      43.940 -17.432   4.571  1.00  0.00    -0.035 A 
HETATM   23  C   UNL     1      44.140 -16.459   5.701  1.00  0.00     0.050 C 
ENDBRANCH  12  16
ENDBRANCH  10  11
ENDBRANCH   9  10
ENDBRANCH   1   9
BRANCH   4  24
HETATM   24  C   UNL     1      38.935 -10.619   7.483  1.00  0.00     0.130 C 
BRANCH  24  25
HETATM   25  N   UNL     1      39.929 -10.097   8.404  1.00  0.00    -0.342 N 
HETATM   26  C   UNL     1      39.591  -9.214   9.385  1.00  0.00     0.320 C 
HETATM   27  N   UNL     1      40.564  -8.857  10.270  1.00  0.00    -0.309 N 
HETATM   28  O   UNL     1      38.452  -8.777   9.537  1.00  0.00    -0.247 OA
HETATM   29  H   UNL     1      40.163  -8.361  11.058  1.00  0.00     0.170 HD
HETATM   30  H   UNL     1      40.622 -10.765   8.706  1.00  0.00     0.164 HD
BRANCH  27  31
HETATM   31  C   UNL     1      41.960  -9.030  10.279  1.00  0.00     0.039 A 
HETATM   32  C   UNL     1      42.849  -8.329   9.463  1.00  0.00     0.071 A 
HETATM   33  C   UNL     1      44.214  -8.594   9.540  1.00  0.00     0.118 A 
HETATM   34  F   UNL     1      45.057  -7.923   8.743  1.00  0.00    -0.206 F 
HETATM   35  C   UNL     1      44.721  -9.533  10.430  1.00  0.00     0.042 A 
HETATM   36  C   UNL     1      43.848 -10.210  11.273  1.00  0.00     0.005 A 
HETATM   37  C   UNL     1      42.475  -9.951  11.203  1.00  0.00     0.030 A 
ENDBRANCH  27  31
ENDBRANCH  24  25
ENDBRANCH   4  24
TORSDOF 7
ENDMDL
MODEL 4
REMARK VINA RESULT:      -9.2      3.846      9.462
REMARK  7 active torsions:
REMARK  status: ('A' for Active; 'I' for Inactive)
REMARK    1  A    between atoms: C_4  and  N_5 
REMARK    2  A    between atoms: C_6  and  S_7 
REMARK    3  A    between atoms: S_7  and  C_8 
REMARK    4  A    between atoms: C_8  and  C_9 
REMARK       I    between atoms: C_9  and  N_10 
REMARK    5  A    between atoms: C_12  and  C_13 
REMARK    6  A    between atoms: C_13  and  N_14 
REMARK       I    between atoms: N_14  and  C_15 
REMARK       I    between atoms: C_15  and  N_16 
REMARK    7  A    between atoms: N_16  and  C_17 
ROOT
HETATM    1  C   UNL     1      40.365 -10.705   6.023  1.00  0.00     0.229 C 
HETATM    2  N   UNL     1      41.036 -11.787   5.430  1.00  0.00    -0.351 N 
HETATM    3  C   UNL     1      42.467 -11.776   5.144  1.00  0.00     0.132 C 
HETATM    4  C   UNL     1      43.092 -13.163   4.954  1.00  0.00     0.021 C 
HETATM    5  C   UNL     1      42.242 -14.031   4.017  1.00  0.00     0.009 C 
HETATM    6  C   UNL     1      40.779 -14.048   4.434  1.00  0.00     0.020 C 
HETATM    7  C   UNL     1      40.225 -12.634   4.554  1.00  0.00     0.126 C 
HETATM    8  O   UNL     1      39.131 -10.621   5.958  1.00  0.00    -0.273 OA
ENDROOT
BRANCH   1   9
HETATM    9  C   UNL     1      41.110  -9.736   6.933  1.00  0.00     0.185 C 
BRANCH   9  10
HETATM   10  S   UNL     1      40.282  -9.088   8.400  1.00  0.00    -0.082 SA
BRANCH  10  11
HETATM   11  C   UNL     1      40.910  -7.486   8.590  1.00  0.00     0.173 A 
HETATM   12  N   UNL     1      42.142  -7.193   9.169  1.00  0.00    -0.299 N 
HETATM   13  C   UNL     1      42.187  -5.812   9.233  1.00  0.00     0.118 A 
HETATM   14  C   UNL     1      41.004  -5.359   8.704  1.00  0.00     0.137 A 
HETATM   15  N   UNL     1      40.217  -6.404   8.319  1.00  0.00    -0.235 NA
BRANCH  12  16
HETATM   16  C   UNL     1      43.211  -8.063   9.544  1.00  0.00     0.047 A 
HETATM   17  C   UNL     1      44.251  -8.289   8.621  1.00  0.00     0.037 A 
HETATM   18  C   UNL     1      45.358  -9.081   8.946  1.00  0.00    -0.060 A 
HETATM   19  C   UNL     1      46.440  -9.336   7.936  1.00  0.00     0.048 C 
HETATM   20  C   UNL     1      45.422  -9.664  10.210  1.00  0.00     0.007 A 
HETATM   21  C   UNL     1      44.398  -9.450  11.136  1.00  0.00     0.009 A 
HETATM   22  C   UNL     1      43.273  -8.664  10.819  1.00  0.00    -0.035 A 
HETATM   23  C   UNL     1      42.192  -8.564  11.860  1.00  0.00     0.050 C 
ENDBRANCH  12  16
ENDBRANCH  10  11
ENDBRANCH   9  10
ENDBRANCH   1   9
BRANCH   4  24
HETATM   24  C   UNL     1      43.345 -13.808   6.330  1.00  0.00     0.130 C 
BRANCH  24  25
HETATM   25  N   UNL     1      43.405 -15.259   6.299  1.00  0.00    -0.342 N 
HETATM   26  C   UNL     1      43.284 -15.997   7.439  1.00  0.00     0.320 C 
HETATM   27  N   UNL     1      43.246 -17.353   7.306  1.00  0.00    -0.309 N 
HETATM   28  O   UNL     1      43.155 -15.500   8.555  1.00  0.00    -0.247 OA
HETATM   29  H   UNL     1      42.961 -17.787   8.176  1.00  0.00     0.170 HD
HETATM   30  H   UNL     1      42.945 -15.687   5.509  1.00  0.00     0.164 HD
BRANCH  27  31
HETATM   31  C   UNL     1      43.530 -18.218   6.234  1.00  0.00     0.039 A 
HETATM   32  C   UNL     1      43.822 -17.799   4.935  1.00  0.00     0.071 A 
HETATM   33  C   UNL     1      44.070 -18.744   3.942  1.00  0.00     0.118 A 
HETATM   34  F   UNL     1      44.336 -18.330   2.696  1.00  0.00    -0.206 F 
HETATM   35  C   UNL     1      44.054 -20.106   4.218  1.00  0.00     0.042 A 
HETATM   36  C   UNL     1      43.803 -20.532   5.517  1.00  0.00     0.005 A 
HETATM   37  C   UNL     1      43.552 -19.591   6.521  1.00  0.00     0.030 A 
ENDBRANCH  27  31
ENDBRANCH  24  25
ENDBRANCH   4  24
TORSDOF 7
ENDMDL
MODEL 5
REMARK VINA RESULT:      -9.2      4.711      8.212
REMARK  7 active torsions:
REMARK  status: ('A' for Active; 'I' for Inactive)
REMARK    1  A    between atoms: C_4  and  N_5 
REMARK    2  A    between atoms: C_6  and  S_7 
REMARK    3  A    between atoms: S_7  and  C_8 
REMARK    4  A    between atoms: C_8  and  C_9 
REMARK       I    between atoms: C_9  and  N_10 
REMARK    5  A    between atoms: C_12  and  C_13 
REMARK    6  A    between atoms: C_13  and  N_14 
REMARK       I    between atoms: N_14  and  C_15 
REMARK       I    between atoms: C_15  and  N_16 
REMARK    7  A    between atoms: N_16  and  C_17 
ROOT
HETATM    1  C   UNL     1      42.479 -11.772   4.248  1.00  0.00     0.229 C 
HETATM    2  N   UNL     1      41.227 -11.148   4.364  1.00  0.00    -0.351 N 
HETATM    3  C   UNL     1      40.641 -10.334   3.304  1.00  0.00     0.132 C 
HETATM    4  C   UNL     1      39.123 -10.142   3.409  1.00  0.00     0.021 C 
HETATM    5  C   UNL     1      38.711  -9.756   4.835  1.00  0.00     0.009 C 
HETATM    6  C   UNL     1      39.302 -10.701   5.871  1.00  0.00     0.020 C 
HETATM    7  C   UNL     1      40.816 -10.799   5.725  1.00  0.00     0.126 C 
HETATM    8  O   UNL     1      43.074 -12.175   5.256  1.00  0.00    -0.273 OA
ENDROOT
BRANCH   1   9
HETATM    9  C   UNL     1      43.028 -12.159   2.879  1.00  0.00     0.185 C 
BRANCH   9  10
HETATM   10  S   UNL     1      43.318 -13.899   2.503  1.00  0.00    -0.082 SA
BRANCH  10  11
HETATM   11  C   UNL     1      41.748 -14.628   2.549  1.00  0.00     0.173 A 
HETATM   12  N   UNL     1      41.520 -15.978   2.805  1.00  0.00    -0.299 N 
HETATM   13  C   UNL     1      40.160 -16.151   2.623  1.00  0.00     0.118 A 
HETATM   14  C   UNL     1      39.656 -14.924   2.272  1.00  0.00     0.137 A 
HETATM   15  N   UNL     1      40.649 -13.991   2.219  1.00  0.00    -0.235 NA
BRANCH  12  16
HETATM   16  C   UNL     1      42.420 -16.993   3.256  1.00  0.00     0.047 A 
HETATM   17  C   UNL     1      42.695 -18.078   2.401  1.00  0.00     0.037 A 
HETATM   18  C   UNL     1      43.613 -19.073   2.756  1.00  0.00    -0.060 A 
HETATM   19  C   UNL     1      43.868 -20.239   1.844  1.00  0.00     0.048 C 
HETATM   20  C   UNL     1      44.257 -18.988   3.988  1.00  0.00     0.007 A 
HETATM   21  C   UNL     1      43.993 -17.918   4.847  1.00  0.00     0.009 A 
HETATM   22  C   UNL     1      43.065 -16.916   4.508  1.00  0.00    -0.035 A 
HETATM   23  C   UNL     1      42.798 -15.853   5.539  1.00  0.00     0.050 C 
ENDBRANCH  12  16
ENDBRANCH  10  11
ENDBRANCH   9  10
ENDBRANCH   1   9
BRANCH   4  24
HETATM   24  C   UNL     1      38.406 -11.398   2.880  1.00  0.00     0.130 C 
BRANCH  24  25
HETATM   25  N   UNL     1      38.525 -11.585   1.445  1.00  0.00    -0.342 N 
HETATM   26  C   UNL     1      37.673 -10.969   0.577  1.00  0.00     0.320 C 
HETATM   27  N   UNL     1      37.921 -11.114  -0.754  1.00  0.00    -0.309 N 
HETATM   28  O   UNL     1      36.740 -10.255   0.939  1.00  0.00    -0.247 OA
HETATM   29  H   UNL     1      37.357 -10.467  -1.294  1.00  0.00     0.170 HD
HETATM   30  H   UNL     1      39.472 -11.621   1.098  1.00  0.00     0.164 HD
BRANCH  27  31
HETATM   31  C   UNL     1      38.769 -11.969  -1.483  1.00  0.00     0.039 A 
HETATM   32  C   UNL     1      38.457 -13.285  -1.827  1.00  0.00     0.071 A 
HETATM   33  C   UNL     1      39.380 -14.052  -2.535  1.00  0.00     0.118 A 
HETATM   34  F   UNL     1      39.075 -15.318  -2.848  1.00  0.00    -0.206 F 
HETATM   35  C   UNL     1      40.606 -13.530  -2.929  1.00  0.00     0.042 A 
HETATM   36  C   UNL     1      40.910 -12.208  -2.624  1.00  0.00     0.005 A 
HETATM   37  C   UNL     1      39.990 -11.430  -1.913  1.00  0.00     0.030 A 
ENDBRANCH  27  31
ENDBRANCH  24  25
ENDBRANCH   4  24
TORSDOF 7
ENDMDL
MODEL 6
REMARK VINA RESULT:      -9.2      3.807     10.586
REMARK  7 active torsions:
REMARK  status: ('A' for Active; 'I' for Inactive)
REMARK    1  A    between atoms: C_4  and  N_5 
REMARK    2  A    between atoms: C_6  and  S_7 
REMARK    3  A    between atoms: S_7  and  C_8 
REMARK    4  A    between atoms: C_8  and  C_9 
REMARK       I    between atoms: C_9  and  N_10 
REMARK    5  A    between atoms: C_12  and  C_13 
REMARK    6  A    between atoms: C_13  and  N_14 
REMARK       I    between atoms: N_14  and  C_15 
REMARK       I    between atoms: C_15  and  N_16 
REMARK    7  A    between atoms: N_16  and  C_17 
ROOT
HETATM    1  C   UNL     1      43.335  -7.706   8.672  1.00  0.00     0.229 C 
HETATM    2  N   UNL     1      44.082  -8.843   8.323  1.00  0.00    -0.351 N 
HETATM    3  C   UNL     1      43.535 -10.195   8.350  1.00  0.00     0.132 C 
HETATM    4  C   UNL     1      44.308 -11.216   7.508  1.00  0.00     0.021 C 
HETATM    5  C   UNL     1      45.818 -11.114   7.762  1.00  0.00     0.009 C 
HETATM    6  C   UNL     1      46.317  -9.683   7.637  1.00  0.00     0.020 C 
HETATM    7  C   UNL     1      45.526  -8.743   8.539  1.00  0.00     0.126 C 
HETATM    8  O   UNL     1      43.904  -6.641   8.942  1.00  0.00    -0.273 OA
ENDROOT
BRANCH   1   9
HETATM    9  C   UNL     1      41.818  -7.698   8.517  1.00  0.00     0.185 C 
BRANCH   9  10
HETATM   10  S   UNL     1      40.797  -7.052   9.857  1.00  0.00    -0.082 SA
BRANCH  10  11
HETATM   11  C   UNL     1      40.186  -8.457  10.664  1.00  0.00     0.173 A 
HETATM   12  N   UNL     1      40.494  -8.800  11.978  1.00  0.00    -0.299 N 
HETATM   13  C   UNL     1      39.906 -10.037  12.171  1.00  0.00     0.118 A 
HETATM   14  C   UNL     1      39.294 -10.365  10.987  1.00  0.00     0.137 A 
HETATM   15  N   UNL     1      39.482  -9.385  10.059  1.00  0.00    -0.235 NA
BRANCH  12  16
HETATM   16  C   UNL     1      41.171  -8.051  12.989  1.00  0.00     0.047 A 
HETATM   17  C   UNL     1      40.401  -7.364  13.947  1.00  0.00     0.037 A 
HETATM   18  C   UNL     1      41.000  -6.662  15.000  1.00  0.00    -0.060 A 
HETATM   19  C   UNL     1      40.161  -5.909  15.993  1.00  0.00     0.048 C 
HETATM   20  C   UNL     1      42.390  -6.638  15.089  1.00  0.00     0.007 A 
HETATM   21  C   UNL     1      43.167  -7.313  14.145  1.00  0.00     0.009 A 
HETATM   22  C   UNL     1      42.578  -8.014  13.076  1.00  0.00    -0.035 A 
HETATM   23  C   UNL     1      43.509  -8.639  12.072  1.00  0.00     0.050 C 
ENDBRANCH  12  16
ENDBRANCH  10  11
ENDBRANCH   9  10
ENDBRANCH   1   9
BRANCH   4  24
HETATM   24  C   UNL     1      43.922 -11.061   6.025  1.00  0.00     0.130 C 
BRANCH  24  25
HETATM   25  N   UNL     1      43.341 -12.255   5.438  1.00  0.00    -0.342 N 
HETATM   26  C   UNL     1      41.999 -12.487   5.486  1.00  0.00     0.320 C 
HETATM   27  N   UNL     1      41.527 -13.576   4.819  1.00  0.00    -0.309 N 
HETATM   28  O   UNL     1      41.204 -11.737   6.049  1.00  0.00    -0.247 OA
HETATM   29  H   UNL     1      40.515 -13.545   4.756  1.00  0.00     0.170 HD
HETATM   30  H   UNL     1      43.753 -12.542   4.562  1.00  0.00     0.164 HD
BRANCH  27  31
HETATM   31  C   UNL     1      42.158 -14.693   4.241  1.00  0.00     0.039 A 
HETATM   32  C   UNL     1      42.568 -14.769   2.909  1.00  0.00     0.071 A 
HETATM   33  C   UNL     1      43.167 -15.933   2.434  1.00  0.00     0.118 A 
HETATM   34  F   UNL     1      43.545 -15.998   1.151  1.00  0.00    -0.206 F 
HETATM   35  C   UNL     1      43.388 -17.025   3.265  1.00  0.00     0.042 A 
HETATM   36  C   UNL     1      43.018 -16.946   4.603  1.00  0.00     0.005 A 
HETATM   37  C   UNL     1      42.415 -15.781   5.089  1.00  0.00     0.030 A 
ENDBRANCH  27  31
ENDBRANCH  24  25
ENDBRANCH   4  24
TORSDOF 7
ENDMDL
MODEL 7
REMARK VINA RESULT:      -9.2      2.115      3.041
REMARK  7 active torsions:
REMARK  status: ('A' for Active; 'I' for Inactive)
REMARK    1  A    between atoms: C_4  and  N_5 
REMARK    2  A    between atoms: C_6  and  S_7 
REMARK    3  A    between atoms: S_7  and  C_8 
REMARK    4  A    between atoms: C_8  and  C_9 
REMARK       I    between atoms: C_9  and  N_10 
REMARK    5  A    between atoms: C_12  and  C_13 
REMARK    6  A    between atoms: C_13  and  N_14 
REMARK       I    between atoms: N_14  and  C_15 
REMARK       I    between atoms: C_15  and  N_16 
REMARK    7  A    between atoms: N_16  and  C_17 
ROOT
HETATM    1  C   UNL     1      39.996 -12.740   5.338  1.00  0.00     0.229 C 
HETATM    2  N   UNL     1      40.194 -11.385   5.647  1.00  0.00    -0.351 N 
HETATM    3  C   UNL     1      40.001 -10.837   6.986  1.00  0.00     0.132 C 
HETATM    4  C   UNL     1      40.704  -9.498   7.238  1.00  0.00     0.021 C 
HETATM    5  C   UNL     1      40.455  -8.517   6.085  1.00  0.00     0.009 C 
HETATM    6  C   UNL     1      40.755  -9.144   4.732  1.00  0.00     0.020 C 
HETATM    7  C   UNL     1      39.983 -10.445   4.546  1.00  0.00     0.126 C 
HETATM    8  O   UNL     1      39.858 -13.100   4.161  1.00  0.00    -0.273 OA
ENDROOT
BRANCH   1   9
HETATM    9  C   UNL     1      40.160 -13.812   6.409  1.00  0.00     0.185 C 
BRANCH   9  10
HETATM   10  S   UNL     1      40.514 -15.510   5.912  1.00  0.00    -0.082 SA
BRANCH  10  11
HETATM   11  C   UNL     1      42.110 -15.820   6.505  1.00  0.00     0.173 A 
HETATM   12  N   UNL     1      43.136 -16.371   5.740  1.00  0.00    -0.299 N 
HETATM   13  C   UNL     1      44.180 -16.560   6.626  1.00  0.00     0.118 A 
HETATM   14  C   UNL     1      43.736 -16.126   7.850  1.00  0.00     0.137 A 
HETATM   15  N   UNL     1      42.450 -15.680   7.765  1.00  0.00    -0.235 NA
BRANCH  12  16
HETATM   16  C   UNL     1      43.202 -16.618   4.334  1.00  0.00     0.047 A 
HETATM   17  C   UNL     1      43.274 -17.952   3.887  1.00  0.00     0.037 A 
HETATM   18  C   UNL     1      43.279 -18.267   2.524  1.00  0.00    -0.060 A 
HETATM   19  C   UNL     1      43.389 -19.694   2.068  1.00  0.00     0.048 C 
HETATM   20  C   UNL     1      43.222 -17.232   1.592  1.00  0.00     0.007 A 
HETATM   21  C   UNL     1      43.151 -15.905   2.021  1.00  0.00     0.009 A 
HETATM   22  C   UNL     1      43.156 -15.572   3.388  1.00  0.00    -0.035 A 
HETATM   23  C   UNL     1      43.157 -14.109   3.738  1.00  0.00     0.050 C 
ENDBRANCH  12  16
ENDBRANCH  10  11
ENDBRANCH   9  10
ENDBRANCH   1   9
BRANCH   4  24
HETATM   24  C   UNL     1      42.197  -9.744   7.524  1.00  0.00     0.130 C 
BRANCH  24  25
HETATM   25  N   UNL     1      42.541  -9.708   8.934  1.00  0.00    -0.342 N 
HETATM   26  C   UNL     1      43.539 -10.488   9.440  1.00  0.00     0.320 C 
HETATM   27  N   UNL     1      43.867 -10.314  10.751  1.00  0.00    -0.309 N 
HETATM   28  O   UNL     1      44.181 -11.286   8.762  1.00  0.00    -0.247 OA
HETATM   29  H   UNL     1      44.734 -10.792  10.967  1.00  0.00     0.170 HD
HETATM   30  H   UNL     1      42.515  -8.791   9.355  1.00  0.00     0.164 HD
BRANCH  27  31
HETATM   31  C   UNL     1      43.241  -9.635  11.812  1.00  0.00     0.039 A 
HETATM   32  C   UNL     1      43.672  -8.415  12.334  1.00  0.00     0.071 A 
HETATM   33  C   UNL     1      42.989  -7.838  13.402  1.00  0.00     0.118 A 
HETATM   34  F   UNL     1      43.420  -6.673  13.903  1.00  0.00    -0.206 F 
HETATM   35  C   UNL     1      41.865  -8.442  13.954  1.00  0.00     0.042 A 
HETATM   36  C   UNL     1      41.404  -9.638  13.416  1.00  0.00     0.005 A 
HETATM   37  C   UNL     1      42.085 -10.225  12.344  1.00  0.00     0.030 A 
ENDBRANCH  27  31
ENDBRANCH  24  25
ENDBRANCH   4  24
TORSDOF 7
ENDMDL
MODEL 8
REMARK VINA RESULT:      -9.1      4.275     10.198
REMARK  7 active torsions:
REMARK  status: ('A' for Active; 'I' for Inactive)
REMARK    1  A    between atoms: C_4  and  N_5 
REMARK    2  A    between atoms: C_6  and  S_7 
REMARK    3  A    between atoms: S_7  and  C_8 
REMARK    4  A    between atoms: C_8  and  C_9 
REMARK       I    between atoms: C_9  and  N_10 
REMARK    5  A    between atoms: C_12  and  C_13 
REMARK    6  A    between atoms: C_13  and  N_14 
REMARK       I    between atoms: N_14  and  C_15 
REMARK       I    between atoms: C_15  and  N_16 
REMARK    7  A    between atoms: N_16  and  C_17 
ROOT
HETATM    1  C   UNL     1      43.185 -16.178   5.672  1.00  0.00     0.229 C 
HETATM    2  N   UNL     1      42.473 -16.282   4.466  1.00  0.00    -0.351 N 
HETATM    3  C   UNL     1      41.016 -16.227   4.394  1.00  0.00     0.132 C 
HETATM    4  C   UNL     1      40.457 -15.881   3.009  1.00  0.00     0.021 C 
HETATM    5  C   UNL     1      41.137 -16.711   1.913  1.00  0.00     0.009 C 
HETATM    6  C   UNL     1      42.654 -16.650   2.016  1.00  0.00     0.020 C 
HETATM    7  C   UNL     1      43.127 -17.052   3.407  1.00  0.00     0.126 C 
HETATM    8  O   UNL     1      44.366 -16.542   5.735  1.00  0.00    -0.273 OA
ENDROOT
BRANCH   1   9
HETATM    9  C   UNL     1      42.595 -15.424   6.858  1.00  0.00     0.185 C 
BRANCH   9  10
HETATM   10  S   UNL     1      43.388 -13.905   7.423  1.00  0.00    -0.082 SA
BRANCH  10  11
HETATM   11  C   UNL     1      42.637 -12.646   6.502  1.00  0.00     0.173 A 
HETATM   12  N   UNL     1      42.847 -11.286   6.720  1.00  0.00    -0.299 N 
HETATM   13  C   UNL     1      41.970 -10.648   5.862  1.00  0.00     0.118 A 
HETATM   14  C   UNL     1      41.293 -11.636   5.192  1.00  0.00     0.137 A 
HETATM   15  N   UNL     1      41.706 -12.868   5.604  1.00  0.00    -0.235 NA
BRANCH  12  16
HETATM   16  C   UNL     1      43.804 -10.625   7.550  1.00  0.00     0.047 A 
HETATM   17  C   UNL     1      43.349  -9.963   8.707  1.00  0.00     0.037 A 
HETATM   18  C   UNL     1      44.238  -9.349   9.596  1.00  0.00    -0.060 A 
HETATM   19  C   UNL     1      43.730  -8.620  10.806  1.00  0.00     0.048 C 
HETATM   20  C   UNL     1      45.603  -9.388   9.318  1.00  0.00     0.007 A 
HETATM   21  C   UNL     1      46.069 -10.041   8.175  1.00  0.00     0.009 A 
HETATM   22  C   UNL     1      45.185 -10.654   7.267  1.00  0.00    -0.035 A 
HETATM   23  C   UNL     1      45.787 -11.259   6.027  1.00  0.00     0.050 C 
ENDBRANCH  12  16
ENDBRANCH  10  11
ENDBRANCH   9  10
ENDBRANCH   1   9
BRANCH   4  24
HETATM   24  C   UNL     1      40.553 -14.361   2.778  1.00  0.00     0.130 C 
BRANCH  24  25
HETATM   25  N   UNL     1      40.272 -13.953   1.413  1.00  0.00    -0.342 N 
HETATM   26  C   UNL     1      41.127 -13.143   0.726  1.00  0.00     0.320 C 
HETATM   27  N   UNL     1      40.839 -12.896  -0.583  1.00  0.00    -0.309 N 
HETATM   28  O   UNL     1      42.156 -12.680   1.212  1.00  0.00    -0.247 OA
HETATM   29  H   UNL     1      41.627 -12.454  -1.043  1.00  0.00     0.170 HD
HETATM   30  H   UNL     1      39.864 -14.669   0.830  1.00  0.00     0.164 HD
BRANCH  27  31
HETATM   31  C   UNL     1      39.696 -13.120  -1.371  1.00  0.00     0.039 A 
HETATM   32  C   UNL     1      39.529 -14.206  -2.232  1.00  0.00     0.071 A 
HETATM   33  C   UNL     1      38.361 -14.321  -2.983  1.00  0.00     0.118 A 
HETATM   34  F   UNL     1      38.218 -15.361  -3.815  1.00  0.00    -0.206 F 
HETATM   35  C   UNL     1      37.340 -13.384  -2.882  1.00  0.00     0.042 A 
HETATM   36  C   UNL     1      37.481 -12.319  -1.999  1.00  0.00     0.005 A 
HETATM   37  C   UNL     1      38.650 -12.195  -1.242  1.00  0.00     0.030 A 
ENDBRANCH  27  31
ENDBRANCH  24  25
ENDBRANCH   4  24
TORSDOF 7
ENDMDL
MODEL 9
REMARK VINA RESULT:      -9.1      3.360     10.244
REMARK  7 active torsions:
REMARK  status: ('A' for Active; 'I' for Inactive)
REMARK    1  A    between atoms: C_4  and  N_5 
REMARK    2  A    between atoms: C_6  and  S_7 
REMARK    3  A    between atoms: S_7  and  C_8 
REMARK    4  A    between atoms: C_8  and  C_9 
REMARK       I    between atoms: C_9  and  N_10 
REMARK    5  A    between atoms: C_12  and  C_13 
REMARK    6  A    between atoms: C_13  and  N_14 
REMARK       I    between atoms: N_14  and  C_15 
REMARK       I    between atoms: C_15  and  N_16 
REMARK    7  A    between atoms: N_16  and  C_17 
ROOT
HETATM    1  C   UNL     1      43.282 -12.760   6.684  1.00  0.00     0.229 C 
HETATM    2  N   UNL     1      42.438 -13.873   6.536  1.00  0.00    -0.351 N 
HETATM    3  C   UNL     1      41.014 -13.759   6.238  1.00  0.00     0.132 C 
HETATM    4  C   UNL     1      40.379 -15.026   5.653  1.00  0.00     0.021 C 
HETATM    5  C   UNL     1      40.784 -16.269   6.455  1.00  0.00     0.009 C 
HETATM    6  C   UNL     1      42.290 -16.350   6.652  1.00  0.00     0.020 C 
HETATM    7  C   UNL     1      42.832 -15.072   7.279  1.00  0.00     0.126 C 
HETATM    8  O   UNL     1      44.382 -12.878   7.240  1.00  0.00    -0.273 OA
ENDROOT
BRANCH   1   9
HETATM    9  C   UNL     1      42.962 -11.446   5.982  1.00  0.00     0.185 C 
BRANCH   9  10
HETATM   10  S   UNL     1      42.136 -10.131   6.902  1.00  0.00    -0.082 SA
BRANCH  10  11
HETATM   11  C   UNL     1      43.313  -9.588   8.049  1.00  0.00     0.173 A 
HETATM   12  N   UNL     1      43.001  -8.934   9.239  1.00  0.00    -0.299 N 
HETATM   13  C   UNL     1      44.223  -8.574   9.778  1.00  0.00     0.118 A 
HETATM   14  C   UNL     1      45.181  -9.018   8.902  1.00  0.00     0.137 A 
HETATM   15  N   UNL     1      44.606  -9.634   7.830  1.00  0.00    -0.235 NA
BRANCH  12  16
HETATM   16  C   UNL     1      41.737  -8.734   9.874  1.00  0.00     0.047 A 
HETATM   17  C   UNL     1      41.363  -9.600  10.919  1.00  0.00     0.037 A 
HETATM   18  C   UNL     1      40.167  -9.422  11.624  1.00  0.00    -0.060 A 
HETATM   19  C   UNL     1      39.772 -10.376  12.714  1.00  0.00     0.048 C 
HETATM   20  C   UNL     1      39.327  -8.368  11.270  1.00  0.00     0.007 A 
HETATM   21  C   UNL     1      39.684  -7.502  10.234  1.00  0.00     0.009 A 
HETATM   22  C   UNL     1      40.878  -7.675   9.510  1.00  0.00    -0.035 A 
HETATM   23  C   UNL     1      41.127  -6.733   8.363  1.00  0.00     0.050 C 
ENDBRANCH  12  16
ENDBRANCH  10  11
ENDBRANCH   9  10
ENDBRANCH   1   9
BRANCH   4  24
HETATM   24  C   UNL     1      40.713 -15.126   4.153  1.00  0.00     0.130 C 
BRANCH  24  25
HETATM   25  N   UNL     1      41.725 -16.118   3.838  1.00  0.00    -0.342 N 
HETATM   26  C   UNL     1      42.833 -15.795   3.114  1.00  0.00     0.320 C 
HETATM   27  N   UNL     1      43.782 -16.759   2.956  1.00  0.00    -0.309 N 
HETATM   28  O   UNL     1      43.035 -14.674   2.652  1.00  0.00    -0.247 OA
HETATM   29  H   UNL     1      44.635 -16.361   2.578  1.00  0.00     0.170 HD
HETATM   30  H   UNL     1      41.925 -16.772   4.581  1.00  0.00     0.164 HD
BRANCH  27  31
HETATM   31  C   UNL     1      43.788 -18.146   3.198  1.00  0.00     0.039 A 
HETATM   32  C   UNL     1      44.174 -18.737   4.401  1.00  0.00     0.071 A 
HETATM   33  C   UNL     1      44.161 -20.124   4.527  1.00  0.00     0.118 A 
HETATM   34  F   UNL     1      44.546 -20.680   5.683  1.00  0.00    -0.206 F 
HETATM   35  C   UNL     1      43.750 -20.942   3.481  1.00  0.00     0.042 A 
HETATM   36  C   UNL     1      43.327 -20.361   2.291  1.00  0.00     0.005 A 
HETATM   37  C   UNL     1      43.338 -18.969   2.155  1.00  0.00     0.030 A 
ENDBRANCH  27  31
ENDBRANCH  24  25
ENDBRANCH   4  24
TORSDOF 7
ENDMDL
MODEL 10
REMARK VINA RESULT:      -9.1      3.856      9.506
REMARK  7 active torsions:
REMARK  status: ('A' for Active; 'I' for Inactive)
REMARK    1  A    between atoms: C_4  and  N_5 
REMARK    2  A    between atoms: C_6  and  S_7 
REMARK    3  A    between atoms: S_7  and  C_8 
REMARK    4  A    between atoms: C_8  and  C_9 
REMARK       I    between atoms: C_9  and  N_10 
REMARK    5  A    between atoms: C_12  and  C_13 
REMARK    6  A    between atoms: C_13  and  N_14 
REMARK       I    between atoms: N_14  and  C_15 
REMARK       I    between atoms: C_15  and  N_16 
REMARK    7  A    between atoms: N_16  and  C_17 
ROOT
HETATM    1  C   UNL     1      39.430 -10.698   6.637  1.00  0.00     0.229 C 
HETATM    2  N   UNL     1      39.960 -11.656   5.758  1.00  0.00    -0.351 N 
HETATM    3  C   UNL     1      41.316 -12.184   5.877  1.00  0.00     0.132 C 
HETATM    4  C   UNL     1      41.548 -13.519   5.160  1.00  0.00     0.021 C 
HETATM    5  C   UNL     1      40.979 -13.490   3.736  1.00  0.00     0.009 C 
HETATM    6  C   UNL     1      39.539 -13.001   3.712  1.00  0.00     0.020 C 
HETATM    7  C   UNL     1      39.404 -11.650   4.403  1.00  0.00     0.126 C 
HETATM    8  O   UNL     1      38.422 -10.051   6.325  1.00  0.00    -0.273 OA
ENDROOT
BRANCH   1   9
HETATM    9  C   UNL     1      39.948 -10.588   8.066  1.00  0.00     0.185 C 
BRANCH   9  10
HETATM   10  S   UNL     1      39.655  -9.071   8.998  1.00  0.00    -0.082 SA
BRANCH  10  11
HETATM   11  C   UNL     1      40.272  -9.398  10.581  1.00  0.00     0.173 A 
HETATM   12  N   UNL     1      41.628  -9.442  10.898  1.00  0.00    -0.299 N 
HETATM   13  C   UNL     1      41.672  -9.853  12.218  1.00  0.00     0.118 A 
HETATM   14  C   UNL     1      40.371 -10.034  12.613  1.00  0.00     0.137 A 
HETATM   15  N   UNL     1      39.513  -9.760  11.590  1.00  0.00    -0.235 NA
BRANCH  12  16
HETATM   16  C   UNL     1      42.766  -9.064  10.121  1.00  0.00     0.047 A 
HETATM   17  C   UNL     1      43.532 -10.077   9.513  1.00  0.00     0.037 A 
HETATM   18  C   UNL     1      44.622  -9.774   8.688  1.00  0.00    -0.060 A 
HETATM   19  C   UNL     1      45.446 -10.870   8.076  1.00  0.00     0.048 C 
HETATM   20  C   UNL     1      44.958  -8.438   8.479  1.00  0.00     0.007 A 
HETATM   21  C   UNL     1      44.207  -7.423   9.076  1.00  0.00     0.009 A 
HETATM   22  C   UNL     1      43.115  -7.713   9.915  1.00  0.00    -0.035 A 
HETATM   23  C   UNL     1      42.426  -6.547  10.571  1.00  0.00     0.050 C 
ENDBRANCH  12  16
ENDBRANCH  10  11
ENDBRANCH   9  10
ENDBRANCH   1   9
BRANCH   4  24
HETATM   24  C   UNL     1      40.994 -14.671   6.020  1.00  0.00     0.130 C 
BRANCH  24  25
HETATM   25  N   UNL     1      41.848 -15.845   6.056  1.00  0.00    -0.342 N 
HETATM   26  C   UNL     1      42.643 -16.110   7.131  1.00  0.00     0.320 C 
HETATM   27  N   UNL     1      43.330 -17.286   7.126  1.00  0.00    -0.309 N 
HETATM   28  O   UNL     1      42.721 -15.373   8.111  1.00  0.00    -0.247 OA
HETATM   29  H   UNL     1      43.726 -17.470   8.041  1.00  0.00     0.170 HD
HETATM   30  H   UNL     1      41.441 -16.679   5.659  1.00  0.00     0.164 HD
BRANCH  27  31
HETATM   31  C   UNL     1      43.590 -18.240   6.125  1.00  0.00     0.039 A 
HETATM   32  C   UNL     1      43.987 -17.931   4.823  1.00  0.00     0.071 A 
HETATM   33  C   UNL     1      44.199 -18.955   3.903  1.00  0.00     0.118 A 
HETATM   34  F   UNL     1      44.568 -18.645   2.653  1.00  0.00    -0.206 F 
HETATM   35  C   UNL     1      44.045 -20.290   4.256  1.00  0.00     0.042 A 
HETATM   36  C   UNL     1      43.687 -20.610   5.561  1.00  0.00     0.005 A 
HETATM   37  C   UNL     1      43.470 -19.588   6.492  1.00  0.00     0.030 A 
ENDBRANCH  27  31
ENDBRANCH  24  25
ENDBRANCH   4  24
TORSDOF 7
ENDMDL
