MODEL 1
REMARK VINA RESULT:      -8.2      0.000      0.000
REMARK  6 active torsions:
REMARK  status: ('A' for Active; 'I' for Inactive)
REMARK    1  A    between atoms: C_2  and  C_3 
REMARK       I    between atoms: C_3  and  N_4 
REMARK    2  A    between atoms: N_4  and  C_5 
REMARK    3  A    between atoms: C_5  and  C_6 
REMARK    4  A    between atoms: N_8  and  C_10 
REMARK    5  A    between atoms: C_10  and  C_11 
REMARK    6  A    between atoms: C_12  and  C_13 
ROOT
HETATM    1  C   UNL     1      42.732 -12.182   5.626  1.00  0.00     0.029 C 
HETATM    2  C   UNL     1      43.113 -13.006   4.390  1.00  0.00     0.241 C 
HETATM    3  N   UNL     1      42.320 -12.549   3.179  1.00  0.00    -0.067 N 
HETATM    4  H   UNL     1      41.324 -12.669   3.393  1.00  0.00     0.280 HD
HETATM    5  C   UNL     1      42.532 -11.088   2.881  1.00  0.00     0.235 C 
HETATM    6  C   UNL     1      42.105 -10.268   4.088  1.00  0.00     0.028 C 
HETATM    7  C   UNL     1      42.868 -10.678   5.341  1.00  0.00     0.009 C 
ENDROOT
BRANCH   3   8
HETATM    8  C   UNL     1      42.607 -13.451   1.988  1.00  0.00     0.277 C 
BRANCH   8   9
HETATM    9  C   UNL     1      41.494 -14.385   1.669  1.00  0.00     0.016 A 
HETATM   10  C   UNL     1      41.321 -15.753   2.068  1.00  0.00     0.096 A 
HETATM   11  N   UNL     1      40.194 -16.254   1.545  1.00  0.00    -0.174 NA
HETATM   12  N   UNL     1      39.681 -15.277   0.796  1.00  0.00    -0.288 N 
HETATM   13  H   UNL     1      38.827 -15.467   0.276  1.00  0.00     0.188 HD
HETATM   14  C   UNL     1      40.417 -14.132   0.837  1.00  0.00     0.120 A 
BRANCH  10  15
HETATM   15  C   UNL     1      42.179 -16.612   2.891  1.00  0.00    -0.003 A 
HETATM   16  C   UNL     1      42.183 -16.534   4.287  1.00  0.00     0.037 A 
HETATM   17  C   UNL     1      43.024 -17.359   5.036  1.00  0.00     0.035 A 
HETATM   18 CL   UNL     1      43.027 -17.212   6.752  1.00  0.00    -0.084 Cl
HETATM   19  C   UNL     1      43.853 -18.288   4.413  1.00  0.00     0.024 A 
HETATM   20  C   UNL     1      43.839 -18.393   3.024  1.00  0.00     0.003 A 
HETATM   21  C   UNL     1      43.008 -17.560   2.270  1.00  0.00     0.014 A 
ENDBRANCH  10  15
ENDBRANCH   8   9
ENDBRANCH   3   8
BRANCH   1  22
HETATM   22  C   UNL     1      43.600 -12.539   6.846  1.00  0.00     0.128 C 
BRANCH  22  23
HETATM   23  N   UNL     1      43.571 -11.548   7.903  1.00  0.00    -0.360 N 
HETATM   24  C   UNL     1      44.707 -10.859   8.280  1.00  0.00     0.221 C 
HETATM   25  O   UNL     1      45.824 -11.228   7.925  1.00  0.00    -0.273 OA
HETATM   26  H   UNL     1      42.670 -11.160   8.165  1.00  0.00     0.162 HD
BRANCH  24  27
HETATM   27  C   UNL     1      44.453  -9.671   9.204  1.00  0.00     0.070 C 
HETATM   28  C   UNL     1      45.067  -8.394   8.631  1.00  0.00     0.019 C 
HETATM   29  C   UNL     1      45.014  -9.941  10.599  1.00  0.00     0.019 C 
ENDBRANCH  24  27
ENDBRANCH  22  23
ENDBRANCH   1  22
TORSDOF 6
ENDMDL
MODEL 2
REMARK VINA RESULT:      -8.2      1.397      1.727
REMARK  6 active torsions:
REMARK  status: ('A' for Active; 'I' for Inactive)
REMARK    1  A    between atoms: C_2  and  C_3 
REMARK       I    between atoms: C_3  and  N_4 
REMARK    2  A    between atoms: N_4  and  C_5 
REMARK    3  A    between atoms: C_5  and  C_6 
REMARK    4  A    between atoms: N_8  and  C_10 
REMARK    5  A    between atoms: C_10  and  C_11 
REMARK    6  A    between atoms: C_12  and  C_13 
ROOT
HETATM    1  C   UNL     1      42.894 -12.022   5.801  1.00  0.00     0.029 C 
HETATM    2  C   UNL     1      43.302 -12.868   4.589  1.00  0.00     0.241 C 
HETATM    3  N   UNL     1      42.357 -12.625   3.427  1.00  0.00    -0.067 N 
HETATM    4  H   UNL     1      41.410 -12.876   3.734  1.00  0.00     0.280 HD
HETATM    5  C   UNL     1      42.316 -11.175   3.022  1.00  0.00     0.235 C 
HETATM    6  C   UNL     1      41.863 -10.341   4.210  1.00  0.00     0.028 C 
HETATM    7  C   UNL     1      42.773 -10.540   5.414  1.00  0.00     0.009 C 
ENDROOT
BRANCH   3   8
HETATM    8  C   UNL     1      42.687 -13.560   2.272  1.00  0.00     0.277 C 
BRANCH   8   9
HETATM    9  C   UNL     1      41.561 -14.454   1.892  1.00  0.00     0.016 A 
HETATM   10  C   UNL     1      41.424 -15.869   2.096  1.00  0.00     0.096 A 
HETATM   11  N   UNL     1      40.268 -16.306   1.579  1.00  0.00    -0.174 NA
HETATM   12  N   UNL     1      39.699 -15.239   1.017  1.00  0.00    -0.288 N 
HETATM   13  H   UNL     1      38.814 -15.364   0.532  1.00  0.00     0.188 HD
HETATM   14  C   UNL     1      40.429 -14.100   1.179  1.00  0.00     0.120 A 
BRANCH  10  15
HETATM   15  C   UNL     1      42.340 -16.826   2.725  1.00  0.00    -0.003 A 
HETATM   16  C   UNL     1      42.683 -18.035   2.113  1.00  0.00     0.037 A 
HETATM   17  C   UNL     1      43.548 -18.927   2.750  1.00  0.00     0.035 A 
HETATM   18 CL   UNL     1      43.920 -20.423   1.982  1.00  0.00    -0.084 Cl
HETATM   19  C   UNL     1      44.102 -18.622   3.990  1.00  0.00     0.024 A 
HETATM   20  C   UNL     1      43.789 -17.408   4.599  1.00  0.00     0.003 A 
HETATM   21  C   UNL     1      42.913 -16.518   3.970  1.00  0.00     0.014 A 
ENDBRANCH  10  15
ENDBRANCH   8   9
ENDBRANCH   3   8
BRANCH   1  22
HETATM   22  C   UNL     1      43.898 -12.155   6.960  1.00  0.00     0.128 C 
BRANCH  22  23
HETATM   23  N   UNL     1      44.487 -10.899   7.379  1.00  0.00    -0.360 N 
HETATM   24  C   UNL     1      44.573 -10.549   8.712  1.00  0.00     0.221 C 
HETATM   25  O   UNL     1      43.937 -11.153   9.572  1.00  0.00    -0.273 OA
HETATM   26  H   UNL     1      45.088 -10.413   6.720  1.00  0.00     0.162 HD
BRANCH  24  27
HETATM   27  C   UNL     1      45.457  -9.337   8.997  1.00  0.00     0.070 C 
HETATM   28  C   UNL     1      44.635  -8.049   8.987  1.00  0.00     0.019 C 
HETATM   29  C   UNL     1      46.590  -9.243   7.976  1.00  0.00     0.019 C 
ENDBRANCH  24  27
ENDBRANCH  22  23
ENDBRANCH   1  22
TORSDOF 6
ENDMDL
MODEL 3
REMARK VINA RESULT:      -8.1      3.369      9.015
REMARK  6 active torsions:
REMARK  status: ('A' for Active; 'I' for Inactive)
REMARK    1  A    between atoms: C_2  and  C_3 
REMARK       I    between atoms: C_3  and  N_4 
REMARK    2  A    between atoms: N_4  and  C_5 
REMARK    3  A    between atoms: C_5  and  C_6 
REMARK    4  A    between atoms: N_8  and  C_10 
REMARK    5  A    between atoms: C_10  and  C_11 
REMARK    6  A    between atoms: C_12  and  C_13 
ROOT
HETATM    1  C   UNL     1      43.116 -14.156   4.864  1.00  0.00     0.029 C 
HETATM    2  C   UNL     1      43.047 -13.404   6.199  1.00  0.00     0.241 C 
HETATM    3  N   UNL     1      43.815 -12.098   6.115  1.00  0.00    -0.067 N 
HETATM    4  H   UNL     1      44.789 -12.320   5.882  1.00  0.00     0.280 HD
HETATM    5  C   UNL     1      43.296 -11.203   5.020  1.00  0.00     0.235 C 
HETATM    6  C   UNL     1      43.412 -11.930   3.689  1.00  0.00     0.028 C 
HETATM    7  C   UNL     1      42.659 -13.254   3.707  1.00  0.00     0.009 C 
ENDROOT
BRANCH   3   8
HETATM    8  C   UNL     1      43.853 -11.418   7.476  1.00  0.00     0.277 C 
BRANCH   8   9
HETATM    9  C   UNL     1      45.075 -10.599   7.696  1.00  0.00     0.016 A 
HETATM   10  C   UNL     1      45.241  -9.426   8.509  1.00  0.00     0.096 A 
HETATM   11  N   UNL     1      46.497  -8.967   8.415  1.00  0.00    -0.174 NA
HETATM   12  N   UNL     1      47.108  -9.768   7.541  1.00  0.00    -0.288 N 
HETATM   13  H   UNL     1      48.076  -9.568   7.300  1.00  0.00     0.188 HD
HETATM   14  C   UNL     1      46.304 -10.767   7.082  1.00  0.00     0.120 A 
BRANCH  10  15
HETATM   15  C   UNL     1      44.271  -8.709   9.341  1.00  0.00    -0.003 A 
HETATM   16  C   UNL     1      43.999  -9.091  10.658  1.00  0.00     0.037 A 
HETATM   17  C   UNL     1      43.057  -8.391  11.415  1.00  0.00     0.035 A 
HETATM   18 CL   UNL     1      42.724  -8.912  13.022  1.00  0.00    -0.084 Cl
HETATM   19  C   UNL     1      42.391  -7.290  10.885  1.00  0.00     0.024 A 
HETATM   20  C   UNL     1      42.672  -6.883   9.583  1.00  0.00     0.003 A 
HETATM   21  C   UNL     1      43.604  -7.589   8.817  1.00  0.00     0.014 A 
ENDBRANCH  10  15
ENDBRANCH   8   9
ENDBRANCH   3   8
BRANCH   1  22
HETATM   22  C   UNL     1      42.251 -15.429   4.875  1.00  0.00     0.128 C 
BRANCH  22  23
HETATM   23  N   UNL     1      42.973 -16.637   4.529  1.00  0.00    -0.360 N 
HETATM   24  C   UNL     1      42.797 -17.259   3.308  1.00  0.00     0.221 C 
HETATM   25  O   UNL     1      41.853 -16.973   2.576  1.00  0.00    -0.273 OA
HETATM   26  H   UNL     1      43.808 -16.861   5.060  1.00  0.00     0.162 HD
BRANCH  24  27
HETATM   27  C   UNL     1      43.821 -18.348   2.995  1.00  0.00     0.070 C 
HETATM   28  C   UNL     1      43.186 -19.477   2.185  1.00  0.00     0.019 C 
HETATM   29  C   UNL     1      44.429 -18.904   4.282  1.00  0.00     0.019 C 
ENDBRANCH  24  27
ENDBRANCH  22  23
ENDBRANCH   1  22
TORSDOF 6
ENDMDL
MODEL 4
REMARK VINA RESULT:      -8.0      3.499      6.345
REMARK  6 active torsions:
REMARK  status: ('A' for Active; 'I' for Inactive)
REMARK    1  A    between atoms: C_2  and  C_3 
REMARK       I    between atoms: C_3  and  N_4 
REMARK    2  A    between atoms: N_4  and  C_5 
REMARK    3  A    between atoms: C_5  and  C_6 
REMARK    4  A    between atoms: N_8  and  C_10 
REMARK    5  A    between atoms: C_10  and  C_11 
REMARK    6  A    between atoms: C_12  and  C_13 
ROOT
HETATM    1  C   UNL     1      42.795 -15.596   5.629  1.00  0.00     0.029 C 
HETATM    2  C   UNL     1      42.998 -14.096   5.870  1.00  0.00     0.241 C 
HETATM    3  N   UNL     1      41.738 -13.325   5.522  1.00  0.00    -0.067 N 
HETATM    4  H   UNL     1      41.525 -13.501   4.534  1.00  0.00     0.280 HD
HETATM    5  C   UNL     1      40.548 -13.794   6.317  1.00  0.00     0.235 C 
HETATM    6  C   UNL     1      40.316 -15.270   6.039  1.00  0.00     0.028 C 
HETATM    7  C   UNL     1      41.547 -16.103   6.369  1.00  0.00     0.009 C 
ENDROOT
BRANCH   3   8
HETATM    8  C   UNL     1      41.984 -11.828   5.640  1.00  0.00     0.277 C 
BRANCH   8   9
HETATM    9  C   UNL     1      41.837 -11.099   4.351  1.00  0.00     0.016 A 
HETATM   10  C   UNL     1      41.858 -11.619   3.013  1.00  0.00     0.096 A 
HETATM   11  N   UNL     1      41.721 -10.626   2.124  1.00  0.00    -0.174 NA
HETATM   12  N   UNL     1      41.668  -9.504   2.843  1.00  0.00    -0.288 N 
HETATM   13  H   UNL     1      41.597  -8.618   2.349  1.00  0.00     0.188 HD
HETATM   14  C   UNL     1      41.729  -9.729   4.185  1.00  0.00     0.120 A 
BRANCH  10  15
HETATM   15  C   UNL     1      42.027 -12.995   2.537  1.00  0.00    -0.003 A 
HETATM   16  C   UNL     1      40.936 -13.797   2.189  1.00  0.00     0.037 A 
HETATM   17  C   UNL     1      41.136 -15.109   1.753  1.00  0.00     0.035 A 
HETATM   18 CL   UNL     1      39.767 -16.079   1.366  1.00  0.00    -0.084 Cl
HETATM   19  C   UNL     1      42.420 -15.633   1.634  1.00  0.00     0.024 A 
HETATM   20  C   UNL     1      43.517 -14.836   1.953  1.00  0.00     0.003 A 
HETATM   21  C   UNL     1      43.320 -13.527   2.402  1.00  0.00     0.014 A 
ENDBRANCH  10  15
ENDBRANCH   8   9
ENDBRANCH   3   8
BRANCH   1  22
HETATM   22  C   UNL     1      44.013 -16.423   6.081  1.00  0.00     0.128 C 
BRANCH  22  23
HETATM   23  N   UNL     1      44.436 -17.424   5.124  1.00  0.00    -0.360 N 
HETATM   24  C   UNL     1      43.991 -18.730   5.198  1.00  0.00     0.221 C 
HETATM   25  O   UNL     1      43.433 -19.157   6.206  1.00  0.00    -0.273 OA
HETATM   26  H   UNL     1      44.826 -17.105   4.243  1.00  0.00     0.162 HD
BRANCH  24  27
HETATM   27  C   UNL     1      44.308 -19.581   3.971  1.00  0.00     0.070 C 
HETATM   28  C   UNL     1      43.632 -19.013   2.724  1.00  0.00     0.019 C 
HETATM   29  C   UNL     1      43.871 -21.029   4.191  1.00  0.00     0.019 C 
ENDBRANCH  24  27
ENDBRANCH  22  23
ENDBRANCH   1  22
TORSDOF 6
ENDMDL
MODEL 5
REMARK VINA RESULT:      -8.0      4.210      7.497
REMARK  6 active torsions:
REMARK  status: ('A' for Active; 'I' for Inactive)
REMARK    1  A    between atoms: C_2  and  C_3 
REMARK       I    between atoms: C_3  and  N_4 
REMARK    2  A    between atoms: N_4  and  C_5 
REMARK    3  A    between atoms: C_5  and  C_6 
REMARK    4  A    between atoms: N_8  and  C_10 
REMARK    5  A    between atoms: C_10  and  C_11 
REMARK    6  A    between atoms: C_12  and  C_13 
ROOT
HETATM    1  C   UNL     1      40.986 -12.660   1.114  1.00  0.00     0.029 C 
HETATM    2  C   UNL     1      41.628 -14.029   1.369  1.00  0.00     0.241 C 
HETATM    3  N   UNL     1      41.538 -14.393   2.840  1.00  0.00    -0.067 N 
HETATM    4  H   UNL     1      42.027 -13.666   3.374  1.00  0.00     0.280 HD
HETATM    5  C   UNL     1      40.116 -14.417   3.333  1.00  0.00     0.235 C 
HETATM    6  C   UNL     1      39.496 -13.044   3.126  1.00  0.00     0.028 C 
HETATM    7  C   UNL     1      39.553 -12.619   1.666  1.00  0.00     0.009 C 
ENDROOT
BRANCH   3   8
HETATM    8  C   UNL     1      42.288 -15.690   3.110  1.00  0.00     0.277 C 
BRANCH   8   9
HETATM    9  C   UNL     1      43.045 -15.682   4.391  1.00  0.00     0.016 A 
HETATM   10  C   UNL     1      43.671 -16.777   5.076  1.00  0.00     0.096 A 
HETATM   11  N   UNL     1      44.228 -16.356   6.219  1.00  0.00    -0.174 NA
HETATM   12  N   UNL     1      43.934 -15.058   6.306  1.00  0.00    -0.288 N 
HETATM   13  H   UNL     1      44.241 -14.549   7.131  1.00  0.00     0.188 HD
HETATM   14  C   UNL     1      43.230 -14.600   5.234  1.00  0.00     0.120 A 
BRANCH  10  15
HETATM   15  C   UNL     1      43.744 -18.197   4.718  1.00  0.00    -0.003 A 
HETATM   16  C   UNL     1      43.739 -18.626   3.387  1.00  0.00     0.037 A 
HETATM   17  C   UNL     1      43.795 -19.989   3.086  1.00  0.00     0.035 A 
HETATM   18 CL   UNL     1      43.753 -20.482   1.436  1.00  0.00    -0.084 Cl
HETATM   19  C   UNL     1      43.881 -20.941   4.098  1.00  0.00     0.024 A 
HETATM   20  C   UNL     1      43.913 -20.524   5.427  1.00  0.00     0.003 A 
HETATM   21  C   UNL     1      43.844 -19.162   5.733  1.00  0.00     0.014 A 
ENDBRANCH  10  15
ENDBRANCH   8   9
ENDBRANCH   3   8
BRANCH   1  22
HETATM   22  C   UNL     1      40.954 -12.310  -0.385  1.00  0.00     0.128 C 
BRANCH  22  23
HETATM   23  N   UNL     1      39.692 -12.604  -1.034  1.00  0.00    -0.360 N 
HETATM   24  C   UNL     1      39.594 -13.562  -2.024  1.00  0.00     0.221 C 
HETATM   25  O   UNL     1      40.594 -14.019  -2.571  1.00  0.00    -0.273 OA
HETATM   26  H   UNL     1      38.839 -12.313  -0.567  1.00  0.00     0.162 HD
BRANCH  24  27
HETATM   27  C   UNL     1      38.164 -13.939  -2.404  1.00  0.00     0.070 C 
HETATM   28  C   UNL     1      38.141 -14.747  -3.701  1.00  0.00     0.019 C 
HETATM   29  C   UNL     1      37.296 -12.691  -2.550  1.00  0.00     0.019 C 
ENDBRANCH  24  27
ENDBRANCH  22  23
ENDBRANCH   1  22
TORSDOF 6
ENDMDL
MODEL 6
REMARK VINA RESULT:      -7.9      3.017      4.837
REMARK  6 active torsions:
REMARK  status: ('A' for Active; 'I' for Inactive)
REMARK    1  A    between atoms: C_2  and  C_3 
REMARK       I    between atoms: C_3  and  N_4 
REMARK    2  A    between atoms: N_4  and  C_5 
REMARK    3  A    between atoms: C_5  and  C_6 
REMARK    4  A    between atoms: N_8  and  C_10 
REMARK    5  A    between atoms: C_10  and  C_11 
REMARK    6  A    between atoms: C_12  and  C_13 
ROOT
HETATM    1  C   UNL     1      44.143 -10.035   9.581  1.00  0.00     0.029 C 
HETATM    2  C   UNL     1      44.112 -11.262   8.661  1.00  0.00     0.241 C 
HETATM    3  N   UNL     1      44.669 -10.916   7.293  1.00  0.00    -0.067 N 
HETATM    4  H   UNL     1      44.094 -10.163   6.901  1.00  0.00     0.280 HD
HETATM    5  C   UNL     1      46.080 -10.396   7.370  1.00  0.00     0.235 C 
HETATM    6  C   UNL     1      46.103  -9.150   8.241  1.00  0.00     0.028 C 
HETATM    7  C   UNL     1      45.555  -9.430   9.634  1.00  0.00     0.009 C 
ENDROOT
BRANCH   3   8
HETATM    8  C   UNL     1      44.518 -12.098   6.346  1.00  0.00     0.277 C 
BRANCH   8   9
HETATM    9  C   UNL     1      43.111 -12.353   5.935  1.00  0.00     0.016 A 
HETATM   10  C   UNL     1      42.507 -13.579   5.496  1.00  0.00     0.096 A 
HETATM   11  N   UNL     1      41.218 -13.381   5.188  1.00  0.00    -0.174 NA
HETATM   12  N   UNL     1      41.002 -12.077   5.366  1.00  0.00    -0.288 N 
HETATM   13  H   UNL     1      40.079 -11.708   5.151  1.00  0.00     0.188 HD
HETATM   14  C   UNL     1      42.102 -11.412   5.817  1.00  0.00     0.120 A 
BRANCH  10  15
HETATM   15  C   UNL     1      43.092 -14.913   5.328  1.00  0.00    -0.003 A 
HETATM   16  C   UNL     1      42.992 -15.619   4.125  1.00  0.00     0.037 A 
HETATM   17  C   UNL     1      43.550 -16.893   4.008  1.00  0.00     0.035 A 
HETATM   18 CL   UNL     1      43.377 -17.747   2.522  1.00  0.00    -0.084 Cl
HETATM   19  C   UNL     1      44.234 -17.474   5.072  1.00  0.00     0.024 A 
HETATM   20  C   UNL     1      44.363 -16.770   6.267  1.00  0.00     0.003 A 
HETATM   21  C   UNL     1      43.795 -15.499   6.393  1.00  0.00     0.014 A 
ENDBRANCH  10  15
ENDBRANCH   8   9
ENDBRANCH   3   8
BRANCH   1  22
HETATM   22  C   UNL     1      43.694 -10.378  11.013  1.00  0.00     0.128 C 
BRANCH  22  23
HETATM   23  N   UNL     1      42.258 -10.354  11.204  1.00  0.00    -0.360 N 
HETATM   24  C   UNL     1      41.689  -9.843  12.354  1.00  0.00     0.221 C 
HETATM   25  O   UNL     1      42.364  -9.627  13.358  1.00  0.00    -0.273 OA
HETATM   26  H   UNL     1      41.667 -10.446  10.383  1.00  0.00     0.162 HD
BRANCH  24  27
HETATM   27  C   UNL     1      40.178  -9.641  12.282  1.00  0.00     0.070 C 
HETATM   28  C   UNL     1      39.772  -8.324  12.942  1.00  0.00     0.019 C 
HETATM   29  C   UNL     1      39.443 -10.806  12.943  1.00  0.00     0.019 C 
ENDBRANCH  24  27
ENDBRANCH  22  23
ENDBRANCH   1  22
TORSDOF 6
ENDMDL
MODEL 7
REMARK VINA RESULT:      -7.8      2.494      4.211
REMARK  6 active torsions:
REMARK  status: ('A' for Active; 'I' for Inactive)
REMARK    1  A    between atoms: C_2  and  C_3 
REMARK       I    between atoms: C_3  and  N_4 
REMARK    2  A    between atoms: N_4  and  C_5 
REMARK    3  A    between atoms: C_5  and  C_6 
REMARK    4  A    between atoms: N_8  and  C_10 
REMARK    5  A    between atoms: C_10  and  C_11 
REMARK    6  A    between atoms: C_12  and  C_13 
ROOT
HETATM    1  C   UNL     1      42.411 -13.619   3.292  1.00  0.00     0.029 C 
HETATM    2  C   UNL     1      43.181 -14.742   2.589  1.00  0.00     0.241 C 
HETATM    3  N   UNL     1      42.370 -16.025   2.586  1.00  0.00    -0.067 N 
HETATM    4  H   UNL     1      42.181 -16.279   3.562  1.00  0.00     0.280 HD
HETATM    5  C   UNL     1      41.034 -15.850   1.913  1.00  0.00     0.235 C 
HETATM    6  C   UNL     1      40.249 -14.770   2.642  1.00  0.00     0.028 C 
HETATM    7  C   UNL     1      41.011 -13.452   2.679  1.00  0.00     0.009 C 
ENDROOT
BRANCH   3   8
HETATM    8  C   UNL     1      43.188 -17.167   2.003  1.00  0.00     0.277 C 
BRANCH   8   9
HETATM    9  C   UNL     1      43.519 -18.227   2.994  1.00  0.00     0.016 A 
HETATM   10  C   UNL     1      43.512 -18.154   4.428  1.00  0.00     0.096 A 
HETATM   11  N   UNL     1      43.902 -19.322   4.956  1.00  0.00    -0.174 NA
HETATM   12  N   UNL     1      44.201 -20.104   3.918  1.00  0.00    -0.288 N 
HETATM   13  H   UNL     1      44.555 -21.039   4.106  1.00  0.00     0.188 HD
HETATM   14  C   UNL     1      43.985 -19.500   2.717  1.00  0.00     0.120 A 
BRANCH  10  15
HETATM   15  C   UNL     1      43.185 -17.034   5.316  1.00  0.00    -0.003 A 
HETATM   16  C   UNL     1      41.865 -16.718   5.652  1.00  0.00     0.037 A 
HETATM   17  C   UNL     1      41.592 -15.634   6.489  1.00  0.00     0.035 A 
HETATM   18 CL   UNL     1      39.953 -15.252   6.854  1.00  0.00    -0.084 Cl
HETATM   19  C   UNL     1      42.624 -14.866   7.023  1.00  0.00     0.024 A 
HETATM   20  C   UNL     1      43.944 -15.188   6.717  1.00  0.00     0.003 A 
HETATM   21  C   UNL     1      44.221 -16.264   5.868  1.00  0.00     0.014 A 
ENDBRANCH  10  15
ENDBRANCH   8   9
ENDBRANCH   3   8
BRANCH   1  22
HETATM   22  C   UNL     1      43.153 -12.272   3.211  1.00  0.00     0.128 C 
BRANCH  22  23
HETATM   23  N   UNL     1      43.843 -11.904   4.431  1.00  0.00    -0.360 N 
HETATM   24  C   UNL     1      43.155 -11.482   5.551  1.00  0.00     0.221 C 
HETATM   25  O   UNL     1      41.971 -11.159   5.489  1.00  0.00    -0.273 OA
HETATM   26  H   UNL     1      44.798 -12.226   4.553  1.00  0.00     0.162 HD
BRANCH  24  27
HETATM   27  C   UNL     1      43.997 -11.398   6.822  1.00  0.00     0.070 C 
HETATM   28  C   UNL     1      43.754 -10.077   7.551  1.00  0.00     0.019 C 
HETATM   29  C   UNL     1      45.483 -11.550   6.497  1.00  0.00     0.019 C 
ENDBRANCH  24  27
ENDBRANCH  22  23
ENDBRANCH   1  22
TORSDOF 6
ENDMDL
MODEL 8
REMARK VINA RESULT:      -7.6      3.252      6.164
REMARK  6 active torsions:
REMARK  status: ('A' for Active; 'I' for Inactive)
REMARK    1  A    between atoms: C_2  and  C_3 
REMARK       I    between atoms: C_3  and  N_4 
REMARK    2  A    between atoms: N_4  and  C_5 
REMARK    3  A    between atoms: C_5  and  C_6 
REMARK    4  A    between atoms: N_8  and  C_10 
REMARK    5  A    between atoms: C_10  and  C_11 
REMARK    6  A    between atoms: C_12  and  C_13 
ROOT
HETATM    1  C   UNL     1      42.572 -14.072   6.160  1.00  0.00     0.029 C 
HETATM    2  C   UNL     1      42.372 -13.415   4.789  1.00  0.00     0.241 C 
HETATM    3  N   UNL     1      42.583 -11.915   4.880  1.00  0.00    -0.067 N 
HETATM    4  H   UNL     1      41.906 -11.544   5.556  1.00  0.00     0.280 HD
HETATM    5  C   UNL     1      43.954 -11.566   5.397  1.00  0.00     0.235 C 
HETATM    6  C   UNL     1      44.133 -12.175   6.778  1.00  0.00     0.028 C 
HETATM    7  C   UNL     1      43.935 -13.684   6.755  1.00  0.00     0.009 C 
ENDROOT
BRANCH   3   8
HETATM    8  C   UNL     1      42.258 -11.253   3.549  1.00  0.00     0.277 C 
BRANCH   8   9
HETATM    9  C   UNL     1      40.821 -10.902   3.397  1.00  0.00     0.016 A 
HETATM   10  C   UNL     1      39.783 -11.624   2.715  1.00  0.00     0.096 A 
HETATM   11  N   UNL     1      38.625 -10.953   2.783  1.00  0.00    -0.174 NA
HETATM   12  N   UNL     1      38.903  -9.821   3.431  1.00  0.00    -0.288 N 
HETATM   13  H   UNL     1      38.155  -9.144   3.561  1.00  0.00     0.188 HD
HETATM   14  C   UNL     1      40.204  -9.740   3.826  1.00  0.00     0.120 A 
BRANCH  10  15
HETATM   15  C   UNL     1      39.839 -12.894   1.985  1.00  0.00    -0.003 A 
HETATM   16  C   UNL     1      39.974 -12.943   0.594  1.00  0.00     0.037 A 
HETATM   17  C   UNL     1      40.009 -14.172  -0.067  1.00  0.00     0.035 A 
HETATM   18 CL   UNL     1      40.142 -14.193  -1.784  1.00  0.00    -0.084 Cl
HETATM   19  C   UNL     1      39.936 -15.367   0.642  1.00  0.00     0.024 A 
HETATM   20  C   UNL     1      39.827 -15.333   2.031  1.00  0.00     0.003 A 
HETATM   21  C   UNL     1      39.778 -14.104   2.696  1.00  0.00     0.014 A 
ENDBRANCH  10  15
ENDBRANCH   8   9
ENDBRANCH   3   8
BRANCH   1  22
HETATM   22  C   UNL     1      42.481 -15.607   6.082  1.00  0.00     0.128 C 
BRANCH  22  23
HETATM   23  N   UNL     1      42.427 -16.128   4.731  1.00  0.00    -0.360 N 
HETATM   24  C   UNL     1      43.342 -17.058   4.277  1.00  0.00     0.221 C 
HETATM   25  O   UNL     1      44.376 -17.291   4.897  1.00  0.00    -0.273 OA
HETATM   26  H   UNL     1      41.557 -16.028   4.217  1.00  0.00     0.162 HD
BRANCH  24  27
HETATM   27  C   UNL     1      42.985 -17.702   2.939  1.00  0.00     0.070 C 
HETATM   28  C   UNL     1      43.806 -18.970   2.708  1.00  0.00     0.019 C 
HETATM   29  C   UNL     1      43.204 -16.719   1.790  1.00  0.00     0.019 C 
ENDBRANCH  24  27
ENDBRANCH  22  23
ENDBRANCH   1  22
TORSDOF 6
ENDMDL
MODEL 9
REMARK VINA RESULT:      -7.4      2.629      3.697
REMARK  6 active torsions:
REMARK  status: ('A' for Active; 'I' for Inactive)
REMARK    1  A    between atoms: C_2  and  C_3 
REMARK       I    between atoms: C_3  and  N_4 
REMARK    2  A    between atoms: N_4  and  C_5 
REMARK    3  A    between atoms: C_5  and  C_6 
REMARK    4  A    between atoms: N_8  and  C_10 
REMARK    5  A    between atoms: C_10  and  C_11 
REMARK    6  A    between atoms: C_12  and  C_13 
ROOT
HETATM    1  C   UNL     1      41.574 -10.396   6.589  1.00  0.00     0.029 C 
HETATM    2  C   UNL     1      42.728 -11.378   6.822  1.00  0.00     0.241 C 
HETATM    3  N   UNL     1      42.935 -12.257   5.602  1.00  0.00    -0.067 N 
HETATM    4  H   UNL     1      42.063 -12.768   5.431  1.00  0.00     0.280 HD
HETATM    5  C   UNL     1      43.220 -11.449   4.363  1.00  0.00     0.235 C 
HETATM    6  C   UNL     1      42.052 -10.511   4.104  1.00  0.00     0.028 C 
HETATM    7  C   UNL     1      41.791  -9.598   5.294  1.00  0.00     0.009 C 
ENDROOT
BRANCH   3   8
HETATM    8  C   UNL     1      43.994 -13.313   5.884  1.00  0.00     0.277 C 
BRANCH   8   9
HETATM    9  C   UNL     1      43.439 -14.575   6.441  1.00  0.00     0.016 A 
HETATM   10  C   UNL     1      43.060 -15.776   5.751  1.00  0.00     0.096 A 
HETATM   11  N   UNL     1      42.574 -16.678   6.614  1.00  0.00    -0.174 NA
HETATM   12  N   UNL     1      42.583 -16.077   7.804  1.00  0.00    -0.288 N 
HETATM   13  H   UNL     1      42.216 -16.587   8.605  1.00  0.00     0.188 HD
HETATM   14  C   UNL     1      43.096 -14.816   7.760  1.00  0.00     0.120 A 
BRANCH  10  15
HETATM   15  C   UNL     1      43.110 -16.100   4.321  1.00  0.00    -0.003 A 
HETATM   16  C   UNL     1      43.131 -17.420   3.862  1.00  0.00     0.037 A 
HETATM   17  C   UNL     1      43.192 -17.688   2.493  1.00  0.00     0.035 A 
HETATM   18 CL   UNL     1      43.252 -19.326   1.964  1.00  0.00    -0.084 Cl
HETATM   19  C   UNL     1      43.210 -16.653   1.562  1.00  0.00     0.024 A 
HETATM   20  C   UNL     1      43.163 -15.333   2.007  1.00  0.00     0.003 A 
HETATM   21  C   UNL     1      43.114 -15.060   3.377  1.00  0.00     0.014 A 
ENDBRANCH  10  15
ENDBRANCH   8   9
ENDBRANCH   3   8
BRANCH   1  22
HETATM   22  C   UNL     1      41.410  -9.411   7.761  1.00  0.00     0.128 C 
BRANCH  22  23
HETATM   23  N   UNL     1      42.389  -9.579   8.816  1.00  0.00    -0.360 N 
HETATM   24  C   UNL     1      43.405  -8.664   9.013  1.00  0.00     0.221 C 
HETATM   25  O   UNL     1      43.675  -7.819   8.163  1.00  0.00    -0.273 OA
HETATM   26  H   UNL     1      42.162 -10.208   9.579  1.00  0.00     0.162 HD
BRANCH  24  27
HETATM   27  C   UNL     1      44.175  -8.839  10.319  1.00  0.00     0.070 C 
HETATM   28  C   UNL     1      45.342  -9.809  10.138  1.00  0.00     0.019 C 
HETATM   29  C   UNL     1      43.251  -9.334  11.430  1.00  0.00     0.019 C 
ENDBRANCH  24  27
ENDBRANCH  22  23
ENDBRANCH   1  22
TORSDOF 6
ENDMDL
MODEL 10
REMARK VINA RESULT:      -7.3     16.083     17.448
REMARK  6 active torsions:
REMARK  status: ('A' for Active; 'I' for Inactive)
REMARK    1  A    between atoms: C_2  and  C_3 
REMARK       I    between atoms: C_3  and  N_4 
REMARK    2  A    between atoms: N_4  and  C_5 
REMARK    3  A    between atoms: C_5  and  C_6 
REMARK    4  A    between atoms: N_8  and  C_10 
REMARK    5  A    between atoms: C_10  and  C_11 
REMARK    6  A    between atoms: C_12  and  C_13 
ROOT
HETATM    1  C   UNL     1      47.636 -28.087   0.135  1.00  0.00     0.029 C 
HETATM    2  C   UNL     1      46.361 -28.072  -0.716  1.00  0.00     0.241 C 
HETATM    3  N   UNL     1      46.702 -28.182  -2.191  1.00  0.00    -0.067 N 
HETATM    4  H   UNL     1      47.302 -27.386  -2.435  1.00  0.00     0.280 HD
HETATM    5  C   UNL     1      47.484 -29.431  -2.500  1.00  0.00     0.235 C 
HETATM    6  C   UNL     1      48.774 -29.422  -1.695  1.00  0.00     0.028 C 
HETATM    7  C   UNL     1      48.500 -29.313  -0.201  1.00  0.00     0.009 C 
ENDROOT
BRANCH   3   8
HETATM    8  C   UNL     1      45.445 -28.038  -3.037  1.00  0.00     0.277 C 
BRANCH   8   9
HETATM    9  C   UNL     1      44.875 -29.339  -3.479  1.00  0.00     0.016 A 
HETATM   10  C   UNL     1      44.345 -30.409  -2.682  1.00  0.00     0.096 A 
HETATM   11  N   UNL     1      43.956 -31.425  -3.464  1.00  0.00    -0.174 NA
HETATM   12  N   UNL     1      44.266 -31.060  -4.708  1.00  0.00    -0.288 N 
HETATM   13  H   UNL     1      44.080 -31.717  -5.463  1.00  0.00     0.188 HD
HETATM   14  C   UNL     1      44.816 -29.816  -4.777  1.00  0.00     0.120 A 
BRANCH  10  15
HETATM   15  C   UNL     1      44.215 -30.528  -1.226  1.00  0.00    -0.003 A 
HETATM   16  C   UNL     1      43.284 -29.776  -0.503  1.00  0.00     0.037 A 
HETATM   17  C   UNL     1      43.200 -29.907   0.885  1.00  0.00     0.035 A 
HETATM   18 CL   UNL     1      42.066 -28.940   1.747  1.00  0.00    -0.084 Cl
HETATM   19  C   UNL     1      44.019 -30.801   1.569  1.00  0.00     0.024 A 
HETATM   20  C   UNL     1      44.932 -31.574   0.857  1.00  0.00     0.003 A 
HETATM   21  C   UNL     1      45.029 -31.437  -0.531  1.00  0.00     0.014 A 
ENDBRANCH  10  15
ENDBRANCH   8   9
ENDBRANCH   3   8
BRANCH   1  22
HETATM   22  C   UNL     1      47.323 -28.094   1.642  1.00  0.00     0.128 C 
BRANCH  22  23
HETATM   23  N   UNL     1      48.469 -28.378   2.482  1.00  0.00    -0.360 N 
HETATM   24  C   UNL     1      48.514 -29.498   3.289  1.00  0.00     0.221 C 
HETATM   25  O   UNL     1      47.504 -30.157   3.524  1.00  0.00    -0.273 OA
HETATM   26  H   UNL     1      49.345 -27.914   2.265  1.00  0.00     0.162 HD
BRANCH  24  27
HETATM   27  C   UNL     1      49.885 -29.793   3.893  1.00  0.00     0.070 C 
HETATM   28  C   UNL     1      50.939 -29.958   2.799  1.00  0.00     0.019 C 
HETATM   29  C   UNL     1      49.834 -31.048   4.763  1.00  0.00     0.019 C 
ENDBRANCH  24  27
ENDBRANCH  22  23
ENDBRANCH   1  22
TORSDOF 6
ENDMDL
