MODEL 1
REMARK VINA RESULT:     -10.5      0.000      0.000
REMARK  6 active torsions:
REMARK  status: ('A' for Active; 'I' for Inactive)
REMARK    1  A    between atoms: C_4  and  C_5 
REMARK    2  A    between atoms: C_7  and  N_8 
REMARK    3  A    between atoms: N_11  and  C_13 
REMARK    4  A    between atoms: C_13  and  C_14 
REMARK       I    between atoms: C_14  and  N_15 
REMARK    5  A    between atoms: N_15  and  N_16 
REMARK       I    between atoms: N_16  and  C_17 
REMARK    6  A    between atoms: C_17  and  C_18 
ROOT
HETATM    1  N   UNL     1      42.153 -13.786   4.774  1.00  0.00    -0.357 N 
HETATM    2  C   UNL     1      42.255 -12.347   4.488  1.00  0.00     0.152 C 
HETATM    3  C   UNL     1      43.572 -11.781   5.064  1.00  0.00     0.255 C 
HETATM    4  N   UNL     1      43.661 -12.094   6.563  1.00  0.00    -0.060 N 
HETATM    5  H   UNL     1      42.848 -11.621   6.992  1.00  0.00     0.280 HD
HETATM    6  C   UNL     1      43.535 -13.594   6.824  1.00  0.00     0.255 C 
HETATM    7  C   UNL     1      42.223 -14.123   6.207  1.00  0.00     0.152 C 
ENDROOT
BRANCH   4   8
HETATM    8  C   UNL     1      44.878 -11.459   7.228  1.00  0.00     0.338 C 
BRANCH   8   9
HETATM    9  C   UNL     1      44.459 -10.283   8.117  1.00  0.00     0.262 C 
HETATM   10  N   UNL     1      43.212 -10.402   8.690  1.00  0.00    -0.266 N 
HETATM   11  H   UNL     1      42.752 -11.315   8.750  1.00  0.00     0.190 HD
HETATM   12  O   UNL     1      45.213  -9.321   8.272  1.00  0.00    -0.270 OA
BRANCH  10  13
HETATM   13  N   UNL     1      42.943  -9.601   9.818  1.00  0.00    -0.263 N 
HETATM   14  C   UNL     1      43.241 -10.160  11.048  1.00  0.00     0.270 C 
HETATM   15  O   UNL     1      43.740 -11.283  11.117  1.00  0.00    -0.266 OA
HETATM   16  H   UNL     1      42.448  -8.722   9.681  1.00  0.00     0.190 HD
BRANCH  14  17
HETATM   17  C   UNL     1      42.915  -9.377  12.269  1.00  0.00     0.033 A 
HETATM   18  C   UNL     1      41.938  -9.781  13.189  1.00  0.00     0.018 A 
HETATM   19  C   UNL     1      41.668  -8.993  14.314  1.00  0.00     0.020 A 
HETATM   20  C   UNL     1      42.370  -7.804  14.517  1.00  0.00     0.011 A 
HETATM   21 BR   UNL     1      41.997  -6.744  16.035  1.00  0.00    -0.051 Br
HETATM   22  C   UNL     1      43.336  -7.390  13.604  1.00  0.00     0.020 A 
HETATM   23  C   UNL     1      43.606  -8.174  12.479  1.00  0.00     0.018 A 
ENDBRANCH  14  17
ENDBRANCH  10  13
ENDBRANCH   8   9
ENDBRANCH   4   8
BRANCH   1  24
HETATM   24  C   UNL     1      42.657 -14.709   3.895  1.00  0.00     0.169 A 
HETATM   25  N   UNL     1      42.890 -15.960   4.234  1.00  0.00    -0.223 NA
HETATM   26  C   UNL     1      43.308 -16.712   3.141  1.00  0.00     0.076 A 
HETATM   27  C   UNL     1      43.442 -15.993   1.972  1.00  0.00     0.085 A 
HETATM   28  S   UNL     1      43.020 -14.360   2.239  1.00  0.00    -0.062 SA
BRANCH  26  29
HETATM   29  C   UNL     1      43.531 -18.151   3.246  1.00  0.00    -0.007 A 
HETATM   30  C   UNL     1      43.990 -18.692   4.456  1.00  0.00     0.014 A 
HETATM   31  C   UNL     1      44.178 -20.070   4.597  1.00  0.00     0.001 A 
HETATM   32  C   UNL     1      43.916 -20.923   3.527  1.00  0.00     0.000 A 
HETATM   33  C   UNL     1      43.469 -20.399   2.316  1.00  0.00     0.001 A 
HETATM   34  C   UNL     1      43.280 -19.021   2.173  1.00  0.00     0.014 A 
ENDBRANCH  26  29
ENDBRANCH   1  24
TORSDOF 6
ENDMDL
MODEL 2
REMARK VINA RESULT:     -10.1      1.141      1.789
REMARK  6 active torsions:
REMARK  status: ('A' for Active; 'I' for Inactive)
REMARK    1  A    between atoms: C_4  and  C_5 
REMARK    2  A    between atoms: C_7  and  N_8 
REMARK    3  A    between atoms: N_11  and  C_13 
REMARK    4  A    between atoms: C_13  and  C_14 
REMARK       I    between atoms: C_14  and  N_15 
REMARK    5  A    between atoms: N_15  and  N_16 
REMARK       I    between atoms: N_16  and  C_17 
REMARK    6  A    between atoms: C_17  and  C_18 
ROOT
HETATM    1  N   UNL     1      42.359 -13.625   4.521  1.00  0.00    -0.357 N 
HETATM    2  C   UNL     1      42.501 -12.218   4.117  1.00  0.00     0.152 C 
HETATM    3  C   UNL     1      43.883 -11.677   4.547  1.00  0.00     0.255 C 
HETATM    4  N   UNL     1      44.075 -11.881   6.055  1.00  0.00    -0.060 N 
HETATM    5  H   UNL     1      43.320 -11.339   6.506  1.00  0.00     0.280 HD
HETATM    6  C   UNL     1      43.905 -13.350   6.441  1.00  0.00     0.255 C 
HETATM    7  C   UNL     1      42.527 -13.858   5.967  1.00  0.00     0.152 C 
ENDROOT
BRANCH   4   8
HETATM    8  C   UNL     1      45.367 -11.259   6.575  1.00  0.00     0.338 C 
BRANCH   8   9
HETATM    9  C   UNL     1      45.136 -10.576   7.927  1.00  0.00     0.262 C 
HETATM   10  N   UNL     1      44.112  -9.655   7.945  1.00  0.00    -0.266 N 
HETATM   11  H   UNL     1      43.397  -9.657   7.212  1.00  0.00     0.190 HD
HETATM   12  O   UNL     1      45.845 -10.857   8.895  1.00  0.00    -0.270 OA
BRANCH  10  13
HETATM   13  N   UNL     1      43.575  -9.315   9.204  1.00  0.00    -0.263 N 
HETATM   14  C   UNL     1      43.630  -7.976   9.549  1.00  0.00     0.270 C 
HETATM   15  O   UNL     1      44.100  -7.150   8.767  1.00  0.00    -0.266 OA
HETATM   16  H   UNL     1      43.287 -10.066   9.827  1.00  0.00     0.190 HD
BRANCH  14  17
HETATM   17  C   UNL     1      43.134  -7.580  10.893  1.00  0.00     0.033 A 
HETATM   18  C   UNL     1      42.374  -6.422  11.108  1.00  0.00     0.018 A 
HETATM   19  C   UNL     1      41.946  -6.096  12.400  1.00  0.00     0.020 A 
HETATM   20  C   UNL     1      42.278  -6.923  13.474  1.00  0.00     0.011 A 
HETATM   21 BR   UNL     1      41.701  -6.475  15.216  1.00  0.00    -0.051 Br
HETATM   22  C   UNL     1      43.040  -8.071  13.272  1.00  0.00     0.020 A 
HETATM   23  C   UNL     1      43.470  -8.398  11.983  1.00  0.00     0.018 A 
ENDBRANCH  14  17
ENDBRANCH  10  13
ENDBRANCH   8   9
ENDBRANCH   4   8
BRANCH   1  24
HETATM   24  C   UNL     1      42.751 -14.635   3.682  1.00  0.00     0.169 A 
HETATM   25  N   UNL     1      42.990 -15.858   4.104  1.00  0.00    -0.223 NA
HETATM   26  C   UNL     1      43.279 -16.714   3.046  1.00  0.00     0.076 A 
HETATM   27  C   UNL     1      43.310 -16.101   1.811  1.00  0.00     0.085 A 
HETATM   28  S   UNL     1      42.954 -14.439   1.974  1.00  0.00    -0.062 SA
BRANCH  26  29
HETATM   29  C   UNL     1      43.479 -18.145   3.254  1.00  0.00    -0.007 A 
HETATM   30  C   UNL     1      43.216 -19.038   2.206  1.00  0.00     0.014 A 
HETATM   31  C   UNL     1      43.433 -20.410   2.364  1.00  0.00     0.001 A 
HETATM   32  C   UNL     1      43.910 -20.906   3.575  1.00  0.00     0.000 A 
HETATM   33  C   UNL     1      44.166 -20.032   4.630  1.00  0.00     0.001 A 
HETATM   34  C   UNL     1      43.950 -18.659   4.472  1.00  0.00     0.014 A 
ENDBRANCH  26  29
ENDBRANCH   1  24
TORSDOF 6
ENDMDL
MODEL 3
REMARK VINA RESULT:      -9.4      1.426      1.997
REMARK  6 active torsions:
REMARK  status: ('A' for Active; 'I' for Inactive)
REMARK    1  A    between atoms: C_4  and  C_5 
REMARK    2  A    between atoms: C_7  and  N_8 
REMARK    3  A    between atoms: N_11  and  C_13 
REMARK    4  A    between atoms: C_13  and  C_14 
REMARK       I    between atoms: C_14  and  N_15 
REMARK    5  A    between atoms: N_15  and  N_16 
REMARK       I    between atoms: N_16  and  C_17 
REMARK    6  A    between atoms: C_17  and  C_18 
ROOT
HETATM    1  N   UNL     1      42.439 -11.856   4.055  1.00  0.00    -0.357 N 
HETATM    2  C   UNL     1      43.877 -11.565   3.952  1.00  0.00     0.152 C 
HETATM    3  C   UNL     1      44.548 -11.690   5.337  1.00  0.00     0.255 C 
HETATM    4  N   UNL     1      43.832 -10.782   6.346  1.00  0.00    -0.060 N 
HETATM    5  H   UNL     1      43.940  -9.822   5.979  1.00  0.00     0.280 HD
HETATM    6  C   UNL     1      42.339 -11.103   6.416  1.00  0.00     0.255 C 
HETATM    7  C   UNL     1      41.716 -10.995   5.008  1.00  0.00     0.152 C 
ENDROOT
BRANCH   4   8
HETATM    8  C   UNL     1      44.516 -10.759   7.709  1.00  0.00     0.338 C 
BRANCH   8   9
HETATM    9  C   UNL     1      43.875  -9.708   8.620  1.00  0.00     0.262 C 
HETATM   10  N   UNL     1      43.399 -10.189   9.820  1.00  0.00    -0.266 N 
HETATM   11  H   UNL     1      43.716 -11.094  10.180  1.00  0.00     0.190 HD
HETATM   12  O   UNL     1      43.805  -8.531   8.260  1.00  0.00    -0.270 OA
BRANCH  10  13
HETATM   13  N   UNL     1      43.195  -9.253  10.854  1.00  0.00    -0.263 N 
HETATM   14  C   UNL     1      42.991  -9.776  12.119  1.00  0.00     0.270 C 
HETATM   15  O   UNL     1      43.023 -10.993  12.302  1.00  0.00    -0.266 OA
HETATM   16  H   UNL     1      43.094  -8.272  10.606  1.00  0.00     0.190 HD
BRANCH  14  17
HETATM   17  C   UNL     1      42.709  -8.829  13.229  1.00  0.00     0.033 A 
HETATM   18  C   UNL     1      43.413  -7.630  13.398  1.00  0.00     0.018 A 
HETATM   19  C   UNL     1      43.109  -6.785  14.472  1.00  0.00     0.020 A 
HETATM   20  C   UNL     1      42.107  -7.140  15.376  1.00  0.00     0.011 A 
HETATM   21 BR   UNL     1      41.705  -5.998  16.826  1.00  0.00    -0.051 Br
HETATM   22  C   UNL     1      41.408  -8.334  15.222  1.00  0.00     0.020 A 
HETATM   23  C   UNL     1      41.711  -9.180  14.151  1.00  0.00     0.018 A 
ENDBRANCH  14  17
ENDBRANCH  10  13
ENDBRANCH   8   9
ENDBRANCH   4   8
BRANCH   1  24
HETATM   24  C   UNL     1      41.975 -13.137   3.901  1.00  0.00     0.169 A 
HETATM   25  N   UNL     1      42.769 -14.157   3.656  1.00  0.00    -0.223 NA
HETATM   26  C   UNL     1      42.065 -15.356   3.638  1.00  0.00     0.076 A 
HETATM   27  C   UNL     1      40.704 -15.220   3.820  1.00  0.00     0.085 A 
HETATM   28  S   UNL     1      40.306 -13.575   4.036  1.00  0.00    -0.062 SA
BRANCH  26  29
HETATM   29  C   UNL     1      42.745 -16.639   3.486  1.00  0.00    -0.007 A 
HETATM   30  C   UNL     1      43.651 -17.061   4.470  1.00  0.00     0.014 A 
HETATM   31  C   UNL     1      44.290 -18.300   4.369  1.00  0.00     0.001 A 
HETATM   32  C   UNL     1      44.036 -19.129   3.280  1.00  0.00     0.000 A 
HETATM   33  C   UNL     1      43.147 -18.719   2.288  1.00  0.00     0.001 A 
HETATM   34  C   UNL     1      42.507 -17.480   2.388  1.00  0.00     0.014 A 
ENDBRANCH  26  29
ENDBRANCH   1  24
TORSDOF 6
ENDMDL
MODEL 4
REMARK VINA RESULT:      -8.7      2.850      4.282
REMARK  6 active torsions:
REMARK  status: ('A' for Active; 'I' for Inactive)
REMARK    1  A    between atoms: C_4  and  C_5 
REMARK    2  A    between atoms: C_7  and  N_8 
REMARK    3  A    between atoms: N_11  and  C_13 
REMARK    4  A    between atoms: C_13  and  C_14 
REMARK       I    between atoms: C_14  and  N_15 
REMARK    5  A    between atoms: N_15  and  N_16 
REMARK       I    between atoms: N_16  and  C_17 
REMARK    6  A    between atoms: C_17  and  C_18 
ROOT
HETATM    1  N   UNL     1      40.371 -13.429   4.989  1.00  0.00    -0.357 N 
HETATM    2  C   UNL     1      40.606 -11.978   5.036  1.00  0.00     0.152 C 
HETATM    3  C   UNL     1      42.114 -11.688   5.208  1.00  0.00     0.255 C 
HETATM    4  N   UNL     1      42.644 -12.413   6.451  1.00  0.00    -0.060 N 
HETATM    5  H   UNL     1      42.110 -12.025   7.246  1.00  0.00     0.280 HD
HETATM    6  C   UNL     1      42.369 -13.914   6.376  1.00  0.00     0.255 C 
HETATM    7  C   UNL     1      40.858 -14.158   6.174  1.00  0.00     0.152 C 
ENDROOT
BRANCH   4   8
HETATM    8  C   UNL     1      44.100 -12.074   6.756  1.00  0.00     0.338 C 
BRANCH   8   9
HETATM    9  C   UNL     1      44.209 -11.267   8.054  1.00  0.00     0.262 C 
HETATM   10  N   UNL     1      43.024 -10.731   8.507  1.00  0.00    -0.266 N 
HETATM   11  H   UNL     1      42.127 -11.092   8.170  1.00  0.00     0.190 HD
HETATM   12  O   UNL     1      45.300 -11.129   8.610  1.00  0.00    -0.270 OA
BRANCH  10  13
HETATM   13  N   UNL     1      42.965 -10.357   9.865  1.00  0.00    -0.263 N 
HETATM   14  C   UNL     1      42.166  -9.267  10.163  1.00  0.00     0.270 C 
HETATM   15  O   UNL     1      41.533  -8.697   9.275  1.00  0.00    -0.266 OA
HETATM   16  H   UNL     1      43.586 -10.822  10.523  1.00  0.00     0.190 HD
BRANCH  14  17
HETATM   17  C   UNL     1      42.123  -8.797  11.573  1.00  0.00     0.033 A 
HETATM   18  C   UNL     1      43.222  -8.201  12.206  1.00  0.00     0.018 A 
HETATM   19  C   UNL     1      43.122  -7.791  13.541  1.00  0.00     0.020 A 
HETATM   20  C   UNL     1      41.930  -7.979  14.241  1.00  0.00     0.011 A 
HETATM   21 BR   UNL     1      41.804  -7.428  16.043  1.00  0.00    -0.051 Br
HETATM   22  C   UNL     1      40.836  -8.578  13.623  1.00  0.00     0.020 A 
HETATM   23  C   UNL     1      40.933  -8.991  12.291  1.00  0.00     0.018 A 
ENDBRANCH  14  17
ENDBRANCH  10  13
ENDBRANCH   8   9
ENDBRANCH   4   8
BRANCH   1  24
HETATM   24  C   UNL     1      40.394 -14.102   3.795  1.00  0.00     0.169 A 
HETATM   25  N   UNL     1      40.218 -13.502   2.637  1.00  0.00    -0.223 NA
HETATM   26  C   UNL     1      40.383 -14.386   1.576  1.00  0.00     0.076 A 
HETATM   27  C   UNL     1      40.633 -15.689   1.955  1.00  0.00     0.085 A 
HETATM   28  S   UNL     1      40.684 -15.803   3.657  1.00  0.00    -0.062 SA
BRANCH  26  29
HETATM   29  C   UNL     1      40.336 -13.932   0.190  1.00  0.00    -0.007 A 
HETATM   30  C   UNL     1      39.691 -14.722  -0.774  1.00  0.00     0.014 A 
HETATM   31  C   UNL     1      39.598 -14.295  -2.102  1.00  0.00     0.001 A 
HETATM   32  C   UNL     1      40.156 -13.078  -2.484  1.00  0.00     0.000 A 
HETATM   33  C   UNL     1      40.809 -12.287  -1.541  1.00  0.00     0.001 A 
HETATM   34  C   UNL     1      40.902 -12.712  -0.212  1.00  0.00     0.014 A 
ENDBRANCH  26  29
ENDBRANCH   1  24
TORSDOF 6
ENDMDL
MODEL 5
REMARK VINA RESULT:      -8.7      2.429      3.815
REMARK  6 active torsions:
REMARK  status: ('A' for Active; 'I' for Inactive)
REMARK    1  A    between atoms: C_4  and  C_5 
REMARK    2  A    between atoms: C_7  and  N_8 
REMARK    3  A    between atoms: N_11  and  C_13 
REMARK    4  A    between atoms: C_13  and  C_14 
REMARK       I    between atoms: C_14  and  N_15 
REMARK    5  A    between atoms: N_15  and  N_16 
REMARK       I    between atoms: N_16  and  C_17 
REMARK    6  A    between atoms: C_17  and  C_18 
ROOT
HETATM    1  N   UNL     1      41.609 -14.186   5.609  1.00  0.00    -0.357 N 
HETATM    2  C   UNL     1      40.687 -13.097   5.966  1.00  0.00     0.152 C 
HETATM    3  C   UNL     1      41.426 -11.741   5.934  1.00  0.00     0.255 C 
HETATM    4  N   UNL     1      42.657 -11.798   6.849  1.00  0.00    -0.060 N 
HETATM    5  H   UNL     1      42.289 -11.985   7.796  1.00  0.00     0.280 HD
HETATM    6  C   UNL     1      43.584 -12.949   6.459  1.00  0.00     0.255 C 
HETATM    7  C   UNL     1      42.800 -14.278   6.474  1.00  0.00     0.152 C 
ENDROOT
BRANCH   4   8
HETATM    8  C   UNL     1      43.369 -10.454   6.965  1.00  0.00     0.338 C 
BRANCH   8   9
HETATM    9  C   UNL     1      42.709  -9.580   8.037  1.00  0.00     0.262 C 
HETATM   10  N   UNL     1      42.494 -10.205   9.245  1.00  0.00    -0.266 N 
HETATM   11  H   UNL     1      42.999 -11.063   9.484  1.00  0.00     0.190 HD
HETATM   12  O   UNL     1      42.402  -8.413   7.786  1.00  0.00    -0.270 OA
BRANCH  10  13
HETATM   13  N   UNL     1      42.297  -9.379  10.371  1.00  0.00    -0.263 N 
HETATM   14  C   UNL     1      42.818  -9.842  11.566  1.00  0.00     0.270 C 
HETATM   15  O   UNL     1      43.439 -10.904  11.605  1.00  0.00    -0.266 OA
HETATM   16  H   UNL     1      41.697  -8.563  10.273  1.00  0.00     0.190 HD
BRANCH  14  17
HETATM   17  C   UNL     1      42.579  -9.035  12.791  1.00  0.00     0.033 A 
HETATM   18  C   UNL     1      41.582  -9.351  13.723  1.00  0.00     0.018 A 
HETATM   19  C   UNL     1      41.398  -8.544  14.852  1.00  0.00     0.020 A 
HETATM   20  C   UNL     1      42.207  -7.423  15.047  1.00  0.00     0.011 A 
HETATM   21 BR   UNL     1      41.951  -6.335  16.570  1.00  0.00    -0.051 Br
HETATM   22  C   UNL     1      43.195  -7.096  14.122  1.00  0.00     0.020 A 
HETATM   23  C   UNL     1      43.379  -7.899  12.993  1.00  0.00     0.018 A 
ENDBRANCH  14  17
ENDBRANCH  10  13
ENDBRANCH   8   9
ENDBRANCH   4   8
BRANCH   1  24
HETATM   24  C   UNL     1      41.763 -14.570   4.302  1.00  0.00     0.169 A 
HETATM   25  N   UNL     1      41.036 -14.071   3.325  1.00  0.00    -0.223 NA
HETATM   26  C   UNL     1      41.450 -14.552   2.087  1.00  0.00     0.076 A 
HETATM   27  C   UNL     1      42.475 -15.473   2.148  1.00  0.00     0.085 A 
HETATM   28  S   UNL     1      42.938 -15.724   3.772  1.00  0.00    -0.062 SA
BRANCH  26  29
HETATM   29  C   UNL     1      40.861 -14.066   0.843  1.00  0.00    -0.007 A 
HETATM   30  C   UNL     1      41.121 -12.753   0.423  1.00  0.00     0.014 A 
HETATM   31  C   UNL     1      40.601 -12.272  -0.782  1.00  0.00     0.001 A 
HETATM   32  C   UNL     1      39.808 -13.095  -1.578  1.00  0.00     0.000 A 
HETATM   33  C   UNL     1      39.532 -14.398  -1.169  1.00  0.00     0.001 A 
HETATM   34  C   UNL     1      40.053 -14.882   0.036  1.00  0.00     0.014 A 
ENDBRANCH  26  29
ENDBRANCH   1  24
TORSDOF 6
ENDMDL
MODEL 6
REMARK VINA RESULT:      -8.6      4.581     11.203
REMARK  6 active torsions:
REMARK  status: ('A' for Active; 'I' for Inactive)
REMARK    1  A    between atoms: C_4  and  C_5 
REMARK    2  A    between atoms: C_7  and  N_8 
REMARK    3  A    between atoms: N_11  and  C_13 
REMARK    4  A    between atoms: C_13  and  C_14 
REMARK       I    between atoms: C_14  and  N_15 
REMARK    5  A    between atoms: N_15  and  N_16 
REMARK       I    between atoms: N_16  and  C_17 
REMARK    6  A    between atoms: C_17  and  C_18 
ROOT
HETATM    1  N   UNL     1      42.642  -8.727   7.909  1.00  0.00    -0.357 N 
HETATM    2  C   UNL     1      41.243  -8.308   7.735  1.00  0.00     0.152 C 
HETATM    3  C   UNL     1      40.325  -9.546   7.631  1.00  0.00     0.255 C 
HETATM    4  N   UNL     1      40.812 -10.462   6.502  1.00  0.00    -0.060 N 
HETATM    5  H   UNL     1      40.751  -9.895   5.640  1.00  0.00     0.280 HD
HETATM    6  C   UNL     1      42.272 -10.865   6.707  1.00  0.00     0.255 C 
HETATM    7  C   UNL     1      43.149  -9.601   6.835  1.00  0.00     0.152 C 
ENDROOT
BRANCH   4   8
HETATM    8  C   UNL     1      39.881 -11.646   6.258  1.00  0.00     0.338 C 
BRANCH   8   9
HETATM    9  C   UNL     1      40.560 -12.697   5.374  1.00  0.00     0.262 C 
HETATM   10  N   UNL     1      40.974 -13.833   6.034  1.00  0.00    -0.266 N 
HETATM   11  H   UNL     1      40.594 -14.067   6.956  1.00  0.00     0.190 HD
HETATM   12  O   UNL     1      40.709 -12.493   4.168  1.00  0.00    -0.270 OA
BRANCH  10  13
HETATM   13  N   UNL     1      41.206 -14.983   5.252  1.00  0.00    -0.263 N 
HETATM   14  C   UNL     1      42.511 -15.441   5.213  1.00  0.00     0.270 C 
HETATM   15  O   UNL     1      43.390 -14.873   5.861  1.00  0.00    -0.266 OA
HETATM   16  H   UNL     1      40.445 -15.340   4.679  1.00  0.00     0.190 HD
BRANCH  14  17
HETATM   17  C   UNL     1      42.814 -16.614   4.351  1.00  0.00     0.033 A 
HETATM   18  C   UNL     1      42.203 -16.816   3.107  1.00  0.00     0.018 A 
HETATM   19  C   UNL     1      42.522 -17.948   2.347  1.00  0.00     0.020 A 
HETATM   20  C   UNL     1      43.445 -18.875   2.830  1.00  0.00     0.011 A 
HETATM   21 BR   UNL     1      43.867 -20.402   1.802  1.00  0.00    -0.051 Br
HETATM   22  C   UNL     1      44.051 -18.687   4.070  1.00  0.00     0.020 A 
HETATM   23  C   UNL     1      43.733 -17.560   4.832  1.00  0.00     0.018 A 
ENDBRANCH  14  17
ENDBRANCH  10  13
ENDBRANCH   8   9
ENDBRANCH   4   8
BRANCH   1  24
HETATM   24  C   UNL     1      43.162  -8.922   9.162  1.00  0.00     0.169 A 
HETATM   25  N   UNL     1      42.599  -8.435  10.248  1.00  0.00    -0.223 NA
HETATM   26  C   UNL     1      43.265  -8.852  11.396  1.00  0.00     0.076 A 
HETATM   27  C   UNL     1      44.383  -9.624  11.156  1.00  0.00     0.085 A 
HETATM   28  S   UNL     1      44.590  -9.846   9.477  1.00  0.00    -0.062 SA
BRANCH  26  29
HETATM   29  C   UNL     1      42.769  -8.523  12.728  1.00  0.00    -0.007 A 
HETATM   30  C   UNL     1      43.361  -7.474  13.446  1.00  0.00     0.014 A 
HETATM   31  C   UNL     1      42.883  -7.113  14.709  1.00  0.00     0.001 A 
HETATM   32  C   UNL     1      41.811  -7.801  15.273  1.00  0.00     0.000 A 
HETATM   33  C   UNL     1      41.220  -8.854  14.577  1.00  0.00     0.001 A 
HETATM   34  C   UNL     1      41.697  -9.215  13.313  1.00  0.00     0.014 A 
ENDBRANCH  26  29
ENDBRANCH   1  24
TORSDOF 6
ENDMDL
MODEL 7
REMARK VINA RESULT:      -8.5      7.599     11.034
REMARK  6 active torsions:
REMARK  status: ('A' for Active; 'I' for Inactive)
REMARK    1  A    between atoms: C_4  and  C_5 
REMARK    2  A    between atoms: C_7  and  N_8 
REMARK    3  A    between atoms: N_11  and  C_13 
REMARK    4  A    between atoms: C_13  and  C_14 
REMARK       I    between atoms: C_14  and  N_15 
REMARK    5  A    between atoms: N_15  and  N_16 
REMARK       I    between atoms: N_16  and  C_17 
REMARK    6  A    between atoms: C_17  and  C_18 
ROOT
HETATM    1  N   UNL     1      42.052 -13.834   4.493  1.00  0.00    -0.357 N 
HETATM    2  C   UNL     1      40.593 -13.850   4.306  1.00  0.00     0.152 C 
HETATM    3  C   UNL     1      40.241 -14.411   2.911  1.00  0.00     0.255 C 
HETATM    4  N   UNL     1      40.967 -13.604   1.827  1.00  0.00    -0.060 N 
HETATM    5  H   UNL     1      40.619 -12.636   1.924  1.00  0.00     0.280 HD
HETATM    6  C   UNL     1      42.477 -13.596   2.061  1.00  0.00     0.255 C 
HETATM    7  C   UNL     1      42.783 -13.057   3.475  1.00  0.00     0.152 C 
ENDROOT
BRANCH   4   8
HETATM    8  C   UNL     1      40.570 -14.022   0.414  1.00  0.00     0.338 C 
BRANCH   8   9
HETATM    9  C   UNL     1      39.441 -13.134  -0.118  1.00  0.00     0.262 C 
HETATM   10  N   UNL     1      38.839 -13.587  -1.271  1.00  0.00    -0.266 N 
HETATM   11  H   UNL     1      38.940 -14.564  -1.562  1.00  0.00     0.190 HD
HETATM   12  O   UNL     1      39.135 -12.096   0.472  1.00  0.00    -0.270 OA
BRANCH  10  13
HETATM   13  N   UNL     1      37.559 -13.078  -1.572  1.00  0.00    -0.263 N 
HETATM   14  C   UNL     1      37.492 -12.178  -2.620  1.00  0.00     0.270 C 
HETATM   15  O   UNL     1      38.504 -11.883  -3.255  1.00  0.00    -0.266 OA
HETATM   16  H   UNL     1      36.789 -13.302  -0.945  1.00  0.00     0.190 HD
BRANCH  14  17
HETATM   17  C   UNL     1      36.173 -11.567  -2.932  1.00  0.00     0.033 A 
HETATM   18  C   UNL     1      35.789 -10.309  -2.449  1.00  0.00     0.018 A 
HETATM   19  C   UNL     1      34.527  -9.792  -2.768  1.00  0.00     0.020 A 
HETATM   20  C   UNL     1      33.652 -10.532  -3.565  1.00  0.00     0.011 A 
HETATM   21 BR   UNL     1      31.950  -9.831  -3.988  1.00  0.00    -0.051 Br
HETATM   22  C   UNL     1      34.022 -11.786  -4.043  1.00  0.00     0.020 A 
HETATM   23  C   UNL     1      35.280 -12.305  -3.724  1.00  0.00     0.018 A 
ENDBRANCH  14  17
ENDBRANCH  10  13
ENDBRANCH   8   9
ENDBRANCH   4   8
BRANCH   1  24
HETATM   24  C   UNL     1      42.699 -14.918   5.027  1.00  0.00     0.169 A 
HETATM   25  N   UNL     1      42.660 -16.112   4.475  1.00  0.00    -0.223 NA
HETATM   26  C   UNL     1      43.472 -17.013   5.156  1.00  0.00     0.076 A 
HETATM   27  C   UNL     1      44.088 -16.492   6.275  1.00  0.00     0.085 A 
HETATM   28  S   UNL     1      43.661 -14.850   6.464  1.00  0.00    -0.062 SA
BRANCH  26  29
HETATM   29  C   UNL     1      43.672 -18.376   4.673  1.00  0.00    -0.007 A 
HETATM   30  C   UNL     1      43.900 -19.409   5.595  1.00  0.00     0.014 A 
HETATM   31  C   UNL     1      44.058 -20.729   5.164  1.00  0.00     0.001 A 
HETATM   32  C   UNL     1      43.998 -21.032   3.806  1.00  0.00     0.000 A 
HETATM   33  C   UNL     1      43.783 -20.015   2.878  1.00  0.00     0.001 A 
HETATM   34  C   UNL     1      43.623 -18.694   3.307  1.00  0.00     0.014 A 
ENDBRANCH  26  29
ENDBRANCH   1  24
TORSDOF 6
ENDMDL
MODEL 8
REMARK VINA RESULT:      -8.4      2.179      2.904
REMARK  6 active torsions:
REMARK  status: ('A' for Active; 'I' for Inactive)
REMARK    1  A    between atoms: C_4  and  C_5 
REMARK    2  A    between atoms: C_7  and  N_8 
REMARK    3  A    between atoms: N_11  and  C_13 
REMARK    4  A    between atoms: C_13  and  C_14 
REMARK       I    between atoms: C_14  and  N_15 
REMARK    5  A    between atoms: N_15  and  N_16 
REMARK       I    between atoms: N_16  and  C_17 
REMARK    6  A    between atoms: C_17  and  C_18 
ROOT
HETATM    1  N   UNL     1      42.914 -12.546   3.813  1.00  0.00    -0.357 N 
HETATM    2  C   UNL     1      42.878 -12.544   5.284  1.00  0.00     0.152 C 
HETATM    3  C   UNL     1      41.432 -12.329   5.782  1.00  0.00     0.255 C 
HETATM    4  N   UNL     1      40.859 -11.041   5.175  1.00  0.00    -0.060 N 
HETATM    5  H   UNL     1      41.472 -10.281   5.511  1.00  0.00     0.280 HD
HETATM    6  C   UNL     1      40.926 -11.072   3.648  1.00  0.00     0.255 C 
HETATM    7  C   UNL     1      42.380 -11.319   3.194  1.00  0.00     0.152 C 
ENDROOT
BRANCH   4   8
HETATM    8  C   UNL     1      39.476 -10.697   5.718  1.00  0.00     0.338 C 
BRANCH   8   9
HETATM    9  C   UNL     1      39.489 -10.655   7.250  1.00  0.00     0.262 C 
HETATM   10  N   UNL     1      40.573 -10.011   7.805  1.00  0.00    -0.266 N 
HETATM   11  H   UNL     1      41.142  -9.372   7.243  1.00  0.00     0.190 HD
HETATM   12  O   UNL     1      38.580 -11.182   7.894  1.00  0.00    -0.270 OA
BRANCH  10  13
HETATM   13  N   UNL     1      40.445  -9.569   9.138  1.00  0.00    -0.263 N 
HETATM   14  C   UNL     1      41.622  -9.242   9.787  1.00  0.00     0.270 C 
HETATM   15  O   UNL     1      42.700  -9.314   9.197  1.00  0.00    -0.266 OA
HETATM   16  H   UNL     1      39.530  -9.623   9.580  1.00  0.00     0.190 HD
BRANCH  14  17
HETATM   17  C   UNL     1      41.542  -8.832  11.214  1.00  0.00     0.033 A 
HETATM   18  C   UNL     1      41.041  -7.586  11.615  1.00  0.00     0.018 A 
HETATM   19  C   UNL     1      41.004  -7.253  12.975  1.00  0.00     0.020 A 
HETATM   20  C   UNL     1      41.468  -8.160  13.928  1.00  0.00     0.011 A 
HETATM   21 BR   UNL     1      41.419  -7.702  15.760  1.00  0.00    -0.051 Br
HETATM   22  C   UNL     1      41.975  -9.396  13.538  1.00  0.00     0.020 A 
HETATM   23  C   UNL     1      42.016  -9.731  12.181  1.00  0.00     0.018 A 
ENDBRANCH  14  17
ENDBRANCH  10  13
ENDBRANCH   8   9
ENDBRANCH   4   8
BRANCH   1  24
HETATM   24  C   UNL     1      42.751 -13.713   3.113  1.00  0.00     0.169 A 
HETATM   25  N   UNL     1      43.248 -14.862   3.521  1.00  0.00    -0.223 NA
HETATM   26  C   UNL     1      42.863 -15.906   2.686  1.00  0.00     0.076 A 
HETATM   27  C   UNL     1      42.107 -15.518   1.600  1.00  0.00     0.085 A 
HETATM   28  S   UNL     1      41.858 -13.830   1.635  1.00  0.00    -0.062 SA
BRANCH  26  29
HETATM   29  C   UNL     1      43.207 -17.292   2.990  1.00  0.00    -0.007 A 
HETATM   30  C   UNL     1      42.877 -18.302   2.075  1.00  0.00     0.014 A 
HETATM   31  C   UNL     1      43.227 -19.633   2.322  1.00  0.00     0.001 A 
HETATM   32  C   UNL     1      43.904 -19.971   3.491  1.00  0.00     0.000 A 
HETATM   33  C   UNL     1      44.229 -18.980   4.415  1.00  0.00     0.001 A 
HETATM   34  C   UNL     1      43.881 -17.649   4.169  1.00  0.00     0.014 A 
ENDBRANCH  26  29
ENDBRANCH   1  24
TORSDOF 6
ENDMDL
MODEL 9
REMARK VINA RESULT:      -8.4      5.917      7.126
REMARK  6 active torsions:
REMARK  status: ('A' for Active; 'I' for Inactive)
REMARK    1  A    between atoms: C_4  and  C_5 
REMARK    2  A    between atoms: C_7  and  N_8 
REMARK    3  A    between atoms: N_11  and  C_13 
REMARK    4  A    between atoms: C_13  and  C_14 
REMARK       I    between atoms: C_14  and  N_15 
REMARK    5  A    between atoms: N_15  and  N_16 
REMARK       I    between atoms: N_16  and  C_17 
REMARK    6  A    between atoms: C_17  and  C_18 
ROOT
HETATM    1  N   UNL     1      40.166 -11.022  -0.565  1.00  0.00    -0.357 N 
HETATM    2  C   UNL     1      41.309 -10.215  -0.111  1.00  0.00     0.152 C 
HETATM    3  C   UNL     1      41.115  -9.798   1.363  1.00  0.00     0.255 C 
HETATM    4  N   UNL     1      39.775  -9.069   1.526  1.00  0.00    -0.060 N 
HETATM    5  H   UNL     1      39.840  -8.234   0.921  1.00  0.00     0.280 HD
HETATM    6  C   UNL     1      38.614  -9.930   1.031  1.00  0.00     0.255 C 
HETATM    7  C   UNL     1      38.861 -10.349  -0.433  1.00  0.00     0.152 C 
ENDROOT
BRANCH   4   8
HETATM    8  C   UNL     1      39.570  -8.518   2.934  1.00  0.00     0.338 C 
BRANCH   8   9
HETATM    9  C   UNL     1      40.460  -9.253   3.940  1.00  0.00     0.262 C 
HETATM   10  N   UNL     1      39.887 -10.362   4.523  1.00  0.00    -0.266 N 
HETATM   11  H   UNL     1      39.070 -10.809   4.097  1.00  0.00     0.190 HD
HETATM   12  O   UNL     1      41.596  -8.840   4.185  1.00  0.00    -0.270 OA
BRANCH  10  13
HETATM   13  N   UNL     1      40.757 -11.303   5.109  1.00  0.00    -0.263 N 
HETATM   14  C   UNL     1      40.462 -12.635   4.876  1.00  0.00     0.270 C 
HETATM   15  O   UNL     1      39.505 -12.946   4.168  1.00  0.00    -0.266 OA
HETATM   16  H   UNL     1      41.471 -10.968   5.752  1.00  0.00     0.190 HD
BRANCH  14  17
HETATM   17  C   UNL     1      41.315 -13.664   5.527  1.00  0.00     0.033 A 
HETATM   18  C   UNL     1      42.711 -13.670   5.413  1.00  0.00     0.018 A 
HETATM   19  C   UNL     1      43.459 -14.675   6.039  1.00  0.00     0.020 A 
HETATM   20  C   UNL     1      42.813 -15.671   6.773  1.00  0.00     0.011 A 
HETATM   21 BR   UNL     1      43.828 -17.025   7.611  1.00  0.00    -0.051 Br
HETATM   22  C   UNL     1      41.425 -15.677   6.884  1.00  0.00     0.020 A 
HETATM   23  C   UNL     1      40.676 -14.677   6.258  1.00  0.00     0.018 A 
ENDBRANCH  14  17
ENDBRANCH  10  13
ENDBRANCH   8   9
ENDBRANCH   4   8
BRANCH   1  24
HETATM   24  C   UNL     1      40.176 -12.386  -0.425  1.00  0.00     0.169 A 
HETATM   25  N   UNL     1      40.946 -13.006   0.444  1.00  0.00    -0.223 NA
HETATM   26  C   UNL     1      40.700 -14.375   0.454  1.00  0.00     0.076 A 
HETATM   27  C   UNL     1      39.762 -14.792  -0.468  1.00  0.00     0.085 A 
HETATM   28  S   UNL     1      39.169 -13.452  -1.343  1.00  0.00    -0.062 SA
BRANCH  26  29
HETATM   29  C   UNL     1      41.360 -15.262   1.407  1.00  0.00    -0.007 A 
HETATM   30  C   UNL     1      42.733 -15.514   1.279  1.00  0.00     0.014 A 
HETATM   31  C   UNL     1      43.399 -16.330   2.198  1.00  0.00     0.001 A 
HETATM   32  C   UNL     1      42.698 -16.909   3.253  1.00  0.00     0.000 A 
HETATM   33  C   UNL     1      41.331 -16.677   3.388  1.00  0.00     0.001 A 
HETATM   34  C   UNL     1      40.664 -15.860   2.470  1.00  0.00     0.014 A 
ENDBRANCH  26  29
ENDBRANCH   1  24
TORSDOF 6
ENDMDL
MODEL 10
REMARK VINA RESULT:      -8.2      4.768     11.670
REMARK  6 active torsions:
REMARK  status: ('A' for Active; 'I' for Inactive)
REMARK    1  A    between atoms: C_4  and  C_5 
REMARK    2  A    between atoms: C_7  and  N_8 
REMARK    3  A    between atoms: N_11  and  C_13 
REMARK    4  A    between atoms: C_13  and  C_14 
REMARK       I    between atoms: C_14  and  N_15 
REMARK    5  A    between atoms: N_15  and  N_16 
REMARK       I    between atoms: N_16  and  C_17 
REMARK    6  A    between atoms: C_17  and  C_18 
ROOT
HETATM    1  N   UNL     1      43.869  -8.781  10.334  1.00  0.00    -0.357 N 
HETATM    2  C   UNL     1      43.632  -7.878   9.197  1.00  0.00     0.152 C 
HETATM    3  C   UNL     1      42.876  -8.622   8.075  1.00  0.00     0.255 C 
HETATM    4  N   UNL     1      43.648  -9.886   7.675  1.00  0.00    -0.060 N 
HETATM    5  H   UNL     1      44.564  -9.552   7.332  1.00  0.00     0.280 HD
HETATM    6  C   UNL     1      43.889 -10.791   8.882  1.00  0.00     0.255 C 
HETATM    7  C   UNL     1      44.619 -10.002   9.990  1.00  0.00     0.152 C 
ENDROOT
BRANCH   4   8
HETATM    8  C   UNL     1      43.025 -10.608   6.485  1.00  0.00     0.338 C 
BRANCH   8   9
HETATM    9  C   UNL     1      43.645 -11.997   6.307  1.00  0.00     0.262 C 
HETATM   10  N   UNL     1      42.757 -13.047   6.398  1.00  0.00    -0.266 N 
HETATM   11  H   UNL     1      41.751 -12.887   6.293  1.00  0.00     0.190 HD
HETATM   12  O   UNL     1      44.855 -12.118   6.109  1.00  0.00    -0.270 OA
BRANCH  10  13
HETATM   13  N   UNL     1      43.156 -14.277   5.839  1.00  0.00    -0.263 N 
HETATM   14  C   UNL     1      42.392 -14.744   4.784  1.00  0.00     0.270 C 
HETATM   15  O   UNL     1      41.443 -14.084   4.362  1.00  0.00    -0.266 OA
HETATM   16  H   UNL     1      43.895 -14.803   6.301  1.00  0.00     0.190 HD
BRANCH  14  17
HETATM   17  C   UNL     1      42.737 -16.069   4.204  1.00  0.00     0.033 A 
HETATM   18  C   UNL     1      43.589 -16.977   4.846  1.00  0.00     0.018 A 
HETATM   19  C   UNL     1      43.886 -18.205   4.242  1.00  0.00     0.020 A 
HETATM   20  C   UNL     1      43.336 -18.522   2.999  1.00  0.00     0.011 A 
HETATM   21 BR   UNL     1      43.745 -20.177   2.187  1.00  0.00    -0.051 Br
HETATM   22  C   UNL     1      42.496 -17.622   2.349  1.00  0.00     0.020 A 
HETATM   23  C   UNL     1      42.199 -16.395   2.949  1.00  0.00     0.018 A 
ENDBRANCH  14  17
ENDBRANCH  10  13
ENDBRANCH   8   9
ENDBRANCH   4   8
BRANCH   1  24
HETATM   24  C   UNL     1      42.950  -8.883  11.346  1.00  0.00     0.169 A 
HETATM   25  N   UNL     1      42.029  -7.969  11.565  1.00  0.00    -0.223 NA
HETATM   26  C   UNL     1      41.165  -8.353  12.586  1.00  0.00     0.076 A 
HETATM   27  C   UNL     1      41.483  -9.558  13.178  1.00  0.00     0.085 A 
HETATM   28  S   UNL     1      42.868 -10.225  12.436  1.00  0.00    -0.062 SA
BRANCH  26  29
HETATM   29  C   UNL     1      40.000  -7.549  12.942  1.00  0.00    -0.007 A 
HETATM   30  C   UNL     1      38.886  -7.532  12.090  1.00  0.00     0.014 A 
HETATM   31  C   UNL     1      37.742  -6.801  12.424  1.00  0.00     0.001 A 
HETATM   32  C   UNL     1      37.701  -6.072  13.610  1.00  0.00     0.000 A 
HETATM   33  C   UNL     1      38.804  -6.070  14.461  1.00  0.00     0.001 A 
HETATM   34  C   UNL     1      39.948  -6.802  14.130  1.00  0.00     0.014 A 
ENDBRANCH  26  29
ENDBRANCH   1  24
TORSDOF 6
ENDMDL
