MODEL 1
REMARK VINA RESULT:      -9.1      0.000      0.000
REMARK  5 active torsions:
REMARK  status: ('A' for Active; 'I' for Inactive)
REMARK    1  A    between atoms: C_4  and  C_5 
REMARK    2  A    between atoms: C_5  and  O_6 
REMARK    3  A    between atoms: O_6  and  C_7 
REMARK    4  A    between atoms: C_8  and  N_9 
REMARK       I    between atoms: N_9  and  C_10 
REMARK       I    between atoms: C_10  and  N_11 
REMARK    5  A    between atoms: N_11  and  C_12 
ROOT
HETATM    1  C   UNL     1      44.239 -10.813   7.139  1.00  0.00     0.037 A 
HETATM    2  C   UNL     1      43.456  -9.757   7.617  1.00  0.00     0.052 A 
HETATM    3  C   UNL     1      44.040  -8.716   8.350  1.00  0.00     0.046 A 
HETATM    4  C   UNL     1      43.241  -7.608   8.777  1.00  0.00     0.099 C 
HETATM    5  N   UNL     1      42.590  -6.705   9.110  1.00  0.00    -0.191 NA
HETATM    6  C   UNL     1      45.405  -8.752   8.645  1.00  0.00     0.023 A 
HETATM    7  C   UNL     1      46.183  -9.819   8.196  1.00  0.00     0.004 A 
HETATM    8  C   UNL     1      45.603 -10.839   7.435  1.00  0.00     0.029 A 
ENDROOT
BRANCH   1   9
HETATM    9  N   UNL     1      43.594 -11.796   6.374  1.00  0.00    -0.309 N 
HETATM   10  C   UNL     1      43.698 -12.021   5.031  1.00  0.00     0.326 C 
HETATM   11  N   UNL     1      42.876 -12.981   4.509  1.00  0.00    -0.291 N 
HETATM   12  O   UNL     1      44.406 -11.387   4.250  1.00  0.00    -0.247 OA
HETATM   13  H   UNL     1      42.886 -12.954   3.504  1.00  0.00     0.172 HD
HETATM   14  H   UNL     1      42.874 -12.357   6.823  1.00  0.00     0.170 HD
BRANCH  11  15
HETATM   15  C   UNL     1      42.099 -13.949   5.163  1.00  0.00     0.165 A 
HETATM   16  C   UNL     1      42.496 -15.294   5.212  1.00  0.00     0.115 A 
HETATM   17  C   UNL     1      41.651 -16.204   5.857  1.00  0.00     0.042 A 
HETATM   18  C   UNL     1      40.473 -15.776   6.451  1.00  0.00     0.022 A 
HETATM   19  C   UNL     1      40.160 -14.436   6.357  1.00  0.00     0.119 A 
HETATM   20  N   UNL     1      40.935 -13.527   5.725  1.00  0.00    -0.240 NA
BRANCH  16  21
HETATM   21  O   UNL     1      43.526 -15.901   4.555  1.00  0.00    -0.343 OA
BRANCH  21  22
HETATM   22  C   UNL     1      43.322 -16.404   3.237  1.00  0.00     0.214 C 
BRANCH  22  23
HETATM   23  C   UNL     1      43.490 -17.910   3.248  1.00  0.00    -0.034 A 
HETATM   24  C   UNL     1      44.061 -18.583   4.344  1.00  0.00     0.009 A 
HETATM   25  C   UNL     1      44.202 -19.970   4.342  1.00  0.00     0.001 A 
HETATM   26  C   UNL     1      43.777 -20.710   3.244  1.00  0.00     0.000 A 
HETATM   27  C   UNL     1      43.205 -20.063   2.151  1.00  0.00     0.001 A 
HETATM   28  C   UNL     1      43.054 -18.672   2.155  1.00  0.00     0.009 A 
ENDBRANCH  22  23
ENDBRANCH  21  22
ENDBRANCH  16  21
ENDBRANCH  11  15
ENDBRANCH   1   9
TORSDOF 5
ENDMDL
MODEL 2
REMARK VINA RESULT:      -8.7      2.683      7.365
REMARK  5 active torsions:
REMARK  status: ('A' for Active; 'I' for Inactive)
REMARK    1  A    between atoms: C_4  and  C_5 
REMARK    2  A    between atoms: C_5  and  O_6 
REMARK    3  A    between atoms: O_6  and  C_7 
REMARK    4  A    between atoms: C_8  and  N_9 
REMARK       I    between atoms: N_9  and  C_10 
REMARK       I    between atoms: C_10  and  N_11 
REMARK    5  A    between atoms: N_11  and  C_12 
ROOT
HETATM    1  C   UNL     1      43.332 -16.626   4.305  1.00  0.00     0.037 A 
HETATM    2  C   UNL     1      43.671 -17.818   4.954  1.00  0.00     0.052 A 
HETATM    3  C   UNL     1      43.859 -18.997   4.221  1.00  0.00     0.046 A 
HETATM    4  C   UNL     1      44.270 -20.195   4.888  1.00  0.00     0.099 C 
HETATM    5  N   UNL     1      44.615 -21.161   5.433  1.00  0.00    -0.191 NA
HETATM    6  C   UNL     1      43.665 -18.995   2.837  1.00  0.00     0.023 A 
HETATM    7  C   UNL     1      43.297 -17.815   2.190  1.00  0.00     0.004 A 
HETATM    8  C   UNL     1      43.144 -16.633   2.922  1.00  0.00     0.029 A 
ENDROOT
BRANCH   1   9
HETATM    9  N   UNL     1      43.205 -15.477   5.098  1.00  0.00    -0.309 N 
HETATM   10  C   UNL     1      42.319 -15.247   6.111  1.00  0.00     0.326 C 
HETATM   11  N   UNL     1      42.332 -13.993   6.659  1.00  0.00    -0.291 N 
HETATM   12  O   UNL     1      41.469 -16.038   6.515  1.00  0.00    -0.247 OA
HETATM   13  H   UNL     1      41.539 -13.855   7.260  1.00  0.00     0.172 HD
HETATM   14  H   UNL     1      43.751 -14.657   4.845  1.00  0.00     0.170 HD
BRANCH  11  15
HETATM   15  C   UNL     1      43.271 -12.961   6.513  1.00  0.00     0.165 A 
HETATM   16  C   UNL     1      43.513 -12.364   5.266  1.00  0.00     0.115 A 
HETATM   17  C   UNL     1      44.488 -11.361   5.197  1.00  0.00     0.042 A 
HETATM   18  C   UNL     1      45.167 -10.957   6.336  1.00  0.00     0.022 A 
HETATM   19  C   UNL     1      44.866 -11.595   7.521  1.00  0.00     0.119 A 
HETATM   20  N   UNL     1      43.950 -12.582   7.629  1.00  0.00    -0.240 NA
BRANCH  16  21
HETATM   21  O   UNL     1      43.056 -12.745   4.039  1.00  0.00    -0.343 OA
BRANCH  21  22
HETATM   22  C   UNL     1      41.744 -12.368   3.628  1.00  0.00     0.214 C 
BRANCH  22  23
HETATM   23  C   UNL     1      41.171 -13.452   2.737  1.00  0.00    -0.034 A 
HETATM   24  C   UNL     1      41.556 -13.582   1.390  1.00  0.00     0.009 A 
HETATM   25  C   UNL     1      41.026 -14.589   0.584  1.00  0.00     0.001 A 
HETATM   26  C   UNL     1      40.100 -15.484   1.110  1.00  0.00     0.000 A 
HETATM   27  C   UNL     1      39.710 -15.374   2.443  1.00  0.00     0.001 A 
HETATM   28  C   UNL     1      40.248 -14.370   3.255  1.00  0.00     0.009 A 
ENDBRANCH  22  23
ENDBRANCH  21  22
ENDBRANCH  16  21
ENDBRANCH  11  15
ENDBRANCH   1   9
TORSDOF 5
ENDMDL
MODEL 3
REMARK VINA RESULT:      -8.6      2.633      7.363
REMARK  5 active torsions:
REMARK  status: ('A' for Active; 'I' for Inactive)
REMARK    1  A    between atoms: C_4  and  C_5 
REMARK    2  A    between atoms: C_5  and  O_6 
REMARK    3  A    between atoms: O_6  and  C_7 
REMARK    4  A    between atoms: C_8  and  N_9 
REMARK       I    between atoms: N_9  and  C_10 
REMARK       I    between atoms: C_10  and  N_11 
REMARK    5  A    between atoms: N_11  and  C_12 
ROOT
HETATM    1  C   UNL     1      43.219 -17.643   5.425  1.00  0.00     0.037 A 
HETATM    2  C   UNL     1      43.383 -18.201   4.153  1.00  0.00     0.052 A 
HETATM    3  C   UNL     1      43.698 -19.557   4.008  1.00  0.00     0.046 A 
HETATM    4  C   UNL     1      43.799 -20.131   2.700  1.00  0.00     0.099 C 
HETATM    5  N   UNL     1      43.867 -20.594   1.637  1.00  0.00    -0.191 NA
HETATM    6  C   UNL     1      43.894 -20.352   5.140  1.00  0.00     0.023 A 
HETATM    7  C   UNL     1      43.761 -19.793   6.411  1.00  0.00     0.004 A 
HETATM    8  C   UNL     1      43.413 -18.446   6.551  1.00  0.00     0.029 A 
ENDROOT
BRANCH   1   9
HETATM    9  N   UNL     1      42.860 -16.289   5.492  1.00  0.00    -0.309 N 
HETATM   10  C   UNL     1      41.605 -15.753   5.542  1.00  0.00     0.326 C 
HETATM   11  N   UNL     1      41.523 -14.388   5.495  1.00  0.00    -0.291 N 
HETATM   12  O   UNL     1      40.552 -16.389   5.549  1.00  0.00    -0.247 OA
HETATM   13  H   UNL     1      40.574 -14.090   5.353  1.00  0.00     0.172 HD
HETATM   14  H   UNL     1      43.593 -15.593   5.385  1.00  0.00     0.170 HD
BRANCH  11  15
HETATM   15  C   UNL     1      42.532 -13.424   5.639  1.00  0.00     0.165 A 
HETATM   16  C   UNL     1      42.571 -12.280   4.828  1.00  0.00     0.115 A 
HETATM   17  C   UNL     1      43.627 -11.379   5.013  1.00  0.00     0.042 A 
HETATM   18  C   UNL     1      44.586 -11.607   5.989  1.00  0.00     0.022 A 
HETATM   19  C   UNL     1      44.472 -12.756   6.743  1.00  0.00     0.119 A 
HETATM   20  N   UNL     1      43.482 -13.662   6.583  1.00  0.00    -0.240 NA
BRANCH  16  21
HETATM   21  O   UNL     1      41.810 -11.987   3.734  1.00  0.00    -0.343 OA
BRANCH  21  22
HETATM   22  C   UNL     1      42.330 -12.232   2.429  1.00  0.00     0.214 C 
BRANCH  22  23
HETATM   23  C   UNL     1      42.242 -13.715   2.129  1.00  0.00    -0.034 A 
HETATM   24  C   UNL     1      41.004 -14.375   2.018  1.00  0.00     0.009 A 
HETATM   25  C   UNL     1      40.939 -15.738   1.733  1.00  0.00     0.001 A 
HETATM   26  C   UNL     1      42.110 -16.468   1.556  1.00  0.00     0.000 A 
HETATM   27  C   UNL     1      43.345 -15.830   1.656  1.00  0.00     0.001 A 
HETATM   28  C   UNL     1      43.412 -14.461   1.932  1.00  0.00     0.009 A 
ENDBRANCH  22  23
ENDBRANCH  21  22
ENDBRANCH  16  21
ENDBRANCH  11  15
ENDBRANCH   1   9
TORSDOF 5
ENDMDL
MODEL 4
REMARK VINA RESULT:      -8.6      2.345      3.351
REMARK  5 active torsions:
REMARK  status: ('A' for Active; 'I' for Inactive)
REMARK    1  A    between atoms: C_4  and  C_5 
REMARK    2  A    between atoms: C_5  and  O_6 
REMARK    3  A    between atoms: O_6  and  C_7 
REMARK    4  A    between atoms: C_8  and  N_9 
REMARK       I    between atoms: N_9  and  C_10 
REMARK       I    between atoms: C_10  and  N_11 
REMARK    5  A    between atoms: N_11  and  C_12 
ROOT
HETATM    1  C   UNL     1      41.611 -11.186   5.841  1.00  0.00     0.037 A 
HETATM    2  C   UNL     1      42.801 -11.405   6.544  1.00  0.00     0.052 A 
HETATM    3  C   UNL     1      43.353 -10.393   7.338  1.00  0.00     0.046 A 
HETATM    4  C   UNL     1      44.534 -10.650   8.104  1.00  0.00     0.099 C 
HETATM    5  N   UNL     1      45.486 -10.869   8.733  1.00  0.00    -0.191 NA
HETATM    6  C   UNL     1      42.737  -9.140   7.396  1.00  0.00     0.023 A 
HETATM    7  C   UNL     1      41.568  -8.907   6.673  1.00  0.00     0.004 A 
HETATM    8  C   UNL     1      41.001  -9.932   5.908  1.00  0.00     0.029 A 
ENDROOT
BRANCH   1   9
HETATM    9  N   UNL     1      41.093 -12.260   5.102  1.00  0.00    -0.309 N 
HETATM   10  C   UNL     1      40.163 -13.180   5.494  1.00  0.00     0.326 C 
HETATM   11  N   UNL     1      39.906 -14.198   4.616  1.00  0.00    -0.291 N 
HETATM   12  O   UNL     1      39.599 -13.211   6.586  1.00  0.00    -0.247 OA
HETATM   13  H   UNL     1      39.356 -14.917   5.052  1.00  0.00     0.172 HD
HETATM   14  H   UNL     1      41.518 -12.472   4.203  1.00  0.00     0.170 HD
BRANCH  11  15
HETATM   15  C   UNL     1      40.271 -14.333   3.268  1.00  0.00     0.165 A 
HETATM   16  C   UNL     1      41.137 -15.352   2.844  1.00  0.00     0.115 A 
HETATM   17  C   UNL     1      41.477 -15.402   1.487  1.00  0.00     0.042 A 
HETATM   18  C   UNL     1      40.946 -14.484   0.592  1.00  0.00     0.022 A 
HETATM   19  C   UNL     1      40.102 -13.517   1.093  1.00  0.00     0.119 A 
HETATM   20  N   UNL     1      39.765 -13.418   2.398  1.00  0.00    -0.240 NA
BRANCH  16  21
HETATM   21  O   UNL     1      41.861 -16.223   3.604  1.00  0.00    -0.343 OA
BRANCH  21  22
HETATM   22  C   UNL     1      43.214 -16.508   3.255  1.00  0.00     0.214 C 
BRANCH  22  23
HETATM   23  C   UNL     1      43.430 -18.007   3.284  1.00  0.00    -0.034 A 
HETATM   24  C   UNL     1      43.982 -18.654   4.405  1.00  0.00     0.009 A 
HETATM   25  C   UNL     1      44.167 -20.036   4.419  1.00  0.00     0.001 A 
HETATM   26  C   UNL     1      43.807 -20.797   3.312  1.00  0.00     0.000 A 
HETATM   27  C   UNL     1      43.255 -20.175   2.194  1.00  0.00     0.001 A 
HETATM   28  C   UNL     1      43.059 -18.790   2.182  1.00  0.00     0.009 A 
ENDBRANCH  22  23
ENDBRANCH  21  22
ENDBRANCH  16  21
ENDBRANCH  11  15
ENDBRANCH   1   9
TORSDOF 5
ENDMDL
MODEL 5
REMARK VINA RESULT:      -8.6      1.845      2.432
REMARK  5 active torsions:
REMARK  status: ('A' for Active; 'I' for Inactive)
REMARK    1  A    between atoms: C_4  and  C_5 
REMARK    2  A    between atoms: C_5  and  O_6 
REMARK    3  A    between atoms: O_6  and  C_7 
REMARK    4  A    between atoms: C_8  and  N_9 
REMARK       I    between atoms: N_9  and  C_10 
REMARK       I    between atoms: C_10  and  N_11 
REMARK    5  A    between atoms: N_11  and  C_12 
ROOT
HETATM    1  C   UNL     1      44.516 -11.446   7.008  1.00  0.00     0.037 A 
HETATM    2  C   UNL     1      43.759 -10.839   8.016  1.00  0.00     0.052 A 
HETATM    3  C   UNL     1      44.339  -9.889   8.865  1.00  0.00     0.046 A 
HETATM    4  C   UNL     1      43.538  -9.227   9.849  1.00  0.00     0.099 C 
HETATM    5  N   UNL     1      42.881  -8.685  10.639  1.00  0.00    -0.191 NA
HETATM    6  C   UNL     1      45.694  -9.574   8.735  1.00  0.00     0.023 A 
HETATM    7  C   UNL     1      46.460 -10.199   7.751  1.00  0.00     0.004 A 
HETATM    8  C   UNL     1      45.868 -11.122   6.883  1.00  0.00     0.029 A 
ENDROOT
BRANCH   1   9
HETATM    9  N   UNL     1      43.856 -12.354   6.167  1.00  0.00    -0.309 N 
HETATM   10  C   UNL     1      43.440 -13.621   6.458  1.00  0.00     0.326 C 
HETATM   11  N   UNL     1      42.913 -14.342   5.422  1.00  0.00    -0.291 N 
HETATM   12  O   UNL     1      43.568 -14.188   7.543  1.00  0.00    -0.247 OA
HETATM   13  H   UNL     1      42.804 -15.309   5.676  1.00  0.00     0.172 HD
HETATM   14  H   UNL     1      43.755 -12.111   5.185  1.00  0.00     0.170 HD
BRANCH  11  15
HETATM   15  C   UNL     1      42.508 -13.917   4.148  1.00  0.00     0.165 A 
HETATM   16  C   UNL     1      42.772 -14.685   3.003  1.00  0.00     0.115 A 
HETATM   17  C   UNL     1      42.363 -14.177   1.764  1.00  0.00     0.042 A 
HETATM   18  C   UNL     1      41.693 -12.965   1.684  1.00  0.00     0.022 A 
HETATM   19  C   UNL     1      41.474 -12.276   2.858  1.00  0.00     0.119 A 
HETATM   20  N   UNL     1      41.871 -12.718   4.072  1.00  0.00    -0.240 NA
BRANCH  16  21
HETATM   21  O   UNL     1      43.545 -15.802   2.889  1.00  0.00    -0.343 OA
BRANCH  21  22
HETATM   22  C   UNL     1      43.058 -16.925   2.158  1.00  0.00     0.214 C 
BRANCH  22  23
HETATM   23  C   UNL     1      43.414 -18.196   2.903  1.00  0.00    -0.034 A 
HETATM   24  C   UNL     1      43.398 -19.453   2.270  1.00  0.00     0.009 A 
HETATM   25  C   UNL     1      43.737 -20.613   2.967  1.00  0.00     0.001 A 
HETATM   26  C   UNL     1      44.094 -20.538   4.309  1.00  0.00     0.000 A 
HETATM   27  C   UNL     1      44.120 -19.302   4.951  1.00  0.00     0.001 A 
HETATM   28  C   UNL     1      43.791 -18.136   4.252  1.00  0.00     0.009 A 
ENDBRANCH  22  23
ENDBRANCH  21  22
ENDBRANCH  16  21
ENDBRANCH  11  15
ENDBRANCH   1   9
TORSDOF 5
ENDMDL
MODEL 6
REMARK VINA RESULT:      -8.5      4.189      8.399
REMARK  5 active torsions:
REMARK  status: ('A' for Active; 'I' for Inactive)
REMARK    1  A    between atoms: C_4  and  C_5 
REMARK    2  A    between atoms: C_5  and  O_6 
REMARK    3  A    between atoms: O_6  and  C_7 
REMARK    4  A    between atoms: C_8  and  N_9 
REMARK       I    between atoms: N_9  and  C_10 
REMARK       I    between atoms: C_10  and  N_11 
REMARK    5  A    between atoms: N_11  and  C_12 
ROOT
HETATM    1  C   UNL     1      42.311 -16.320   2.456  1.00  0.00     0.037 A 
HETATM    2  C   UNL     1      42.595 -17.619   2.019  1.00  0.00     0.052 A 
HETATM    3  C   UNL     1      43.417 -18.460   2.781  1.00  0.00     0.046 A 
HETATM    4  C   UNL     1      43.647 -19.807   2.357  1.00  0.00     0.099 C 
HETATM    5  N   UNL     1      43.821 -20.903   2.014  1.00  0.00    -0.191 NA
HETATM    6  C   UNL     1      43.993 -17.987   3.963  1.00  0.00     0.023 A 
HETATM    7  C   UNL     1      43.736 -16.683   4.386  1.00  0.00     0.004 A 
HETATM    8  C   UNL     1      42.888 -15.858   3.641  1.00  0.00     0.029 A 
ENDROOT
BRANCH   1   9
HETATM    9  N   UNL     1      41.444 -15.552   1.666  1.00  0.00    -0.309 N 
HETATM   10  C   UNL     1      40.098 -15.381   1.815  1.00  0.00     0.326 C 
HETATM   11  N   UNL     1      39.464 -14.661   0.839  1.00  0.00    -0.291 N 
HETATM   12  O   UNL     1      39.404 -15.877   2.700  1.00  0.00    -0.247 OA
HETATM   13  H   UNL     1      38.465 -14.738   0.927  1.00  0.00     0.172 HD
HETATM   14  H   UNL     1      41.810 -15.146   0.808  1.00  0.00     0.170 HD
BRANCH  11  15
HETATM   15  C   UNL     1      40.004 -13.862  -0.180  1.00  0.00     0.165 A 
HETATM   16  C   UNL     1      40.618 -12.633   0.103  1.00  0.00     0.115 A 
HETATM   17  C   UNL     1      41.106 -11.880  -0.971  1.00  0.00     0.042 A 
HETATM   18  C   UNL     1      41.004 -12.355  -2.270  1.00  0.00     0.022 A 
HETATM   19  C   UNL     1      40.387 -13.573  -2.459  1.00  0.00     0.119 A 
HETATM   20  N   UNL     1      39.883 -14.323  -1.454  1.00  0.00    -0.240 NA
BRANCH  16  21
HETATM   21  O   UNL     1      40.659 -11.956   1.287  1.00  0.00    -0.343 OA
BRANCH  21  22
HETATM   22  C   UNL     1      41.918 -11.605   1.855  1.00  0.00     0.214 C 
BRANCH  22  23
HETATM   23  C   UNL     1      41.977 -12.108   3.284  1.00  0.00    -0.034 A 
HETATM   24  C   UNL     1      40.838 -12.612   3.938  1.00  0.00     0.009 A 
HETATM   25  C   UNL     1      40.910 -13.079   5.250  1.00  0.00     0.001 A 
HETATM   26  C   UNL     1      42.121 -13.047   5.933  1.00  0.00     0.000 A 
HETATM   27  C   UNL     1      43.261 -12.555   5.301  1.00  0.00     0.001 A 
HETATM   28  C   UNL     1      43.193 -12.096   3.981  1.00  0.00     0.009 A 
ENDBRANCH  22  23
ENDBRANCH  21  22
ENDBRANCH  16  21
ENDBRANCH  11  15
ENDBRANCH   1   9
TORSDOF 5
ENDMDL
MODEL 7
REMARK VINA RESULT:      -8.4      4.640      7.471
REMARK  5 active torsions:
REMARK  status: ('A' for Active; 'I' for Inactive)
REMARK    1  A    between atoms: C_4  and  C_5 
REMARK    2  A    between atoms: C_5  and  O_6 
REMARK    3  A    between atoms: O_6  and  C_7 
REMARK    4  A    between atoms: C_8  and  N_9 
REMARK       I    between atoms: N_9  and  C_10 
REMARK       I    between atoms: C_10  and  N_11 
REMARK    5  A    between atoms: N_11  and  C_12 
ROOT
HETATM    1  C   UNL     1      40.271 -13.197  -0.202  1.00  0.00     0.037 A 
HETATM    2  C   UNL     1      39.444 -13.880  -1.100  1.00  0.00     0.052 A 
HETATM    3  C   UNL     1      39.487 -13.586  -2.469  1.00  0.00     0.046 A 
HETATM    4  C   UNL     1      38.685 -14.338  -3.385  1.00  0.00     0.099 C 
HETATM    5  N   UNL     1      38.040 -14.958  -4.126  1.00  0.00    -0.191 NA
HETATM    6  C   UNL     1      40.328 -12.574  -2.937  1.00  0.00     0.023 A 
HETATM    7  C   UNL     1      41.131 -11.869  -2.041  1.00  0.00     0.004 A 
HETATM    8  C   UNL     1      41.111 -12.189  -0.680  1.00  0.00     0.029 A 
ENDROOT
BRANCH   1   9
HETATM    9  N   UNL     1      40.207 -13.576   1.147  1.00  0.00    -0.309 N 
HETATM   10  C   UNL     1      39.979 -14.820   1.662  1.00  0.00     0.326 C 
HETATM   11  N   UNL     1      39.859 -14.903   3.022  1.00  0.00    -0.291 N 
HETATM   12  O   UNL     1      39.798 -15.846   1.008  1.00  0.00    -0.247 OA
HETATM   13  H   UNL     1      39.515 -15.807   3.297  1.00  0.00     0.172 HD
HETATM   14  H   UNL     1      40.222 -12.843   1.852  1.00  0.00     0.170 HD
BRANCH  11  15
HETATM   15  C   UNL     1      40.164 -13.955   4.009  1.00  0.00     0.165 A 
HETATM   16  C   UNL     1      41.110 -14.221   5.011  1.00  0.00     0.115 A 
HETATM   17  C   UNL     1      41.337 -13.234   5.978  1.00  0.00     0.042 A 
HETATM   18  C   UNL     1      40.664 -12.023   5.922  1.00  0.00     0.022 A 
HETATM   19  C   UNL     1      39.753 -11.843   4.903  1.00  0.00     0.119 A 
HETATM   20  N   UNL     1      39.487 -12.776   3.962  1.00  0.00    -0.240 NA
BRANCH  16  21
HETATM   21  O   UNL     1      41.733 -15.400   5.299  1.00  0.00    -0.343 OA
BRANCH  21  22
HETATM   22  C   UNL     1      43.126 -15.544   5.030  1.00  0.00     0.214 C 
BRANCH  22  23
HETATM   23  C   UNL     1      43.349 -16.810   4.227  1.00  0.00    -0.034 A 
HETATM   24  C   UNL     1      42.782 -16.986   2.952  1.00  0.00     0.009 A 
HETATM   25  C   UNL     1      43.003 -18.153   2.221  1.00  0.00     0.001 A 
HETATM   26  C   UNL     1      43.793 -19.167   2.754  1.00  0.00     0.000 A 
HETATM   27  C   UNL     1      44.367 -19.009   4.013  1.00  0.00     0.001 A 
HETATM   28  C   UNL     1      44.154 -17.834   4.743  1.00  0.00     0.009 A 
ENDBRANCH  22  23
ENDBRANCH  21  22
ENDBRANCH  16  21
ENDBRANCH  11  15
ENDBRANCH   1   9
TORSDOF 5
ENDMDL
MODEL 8
REMARK VINA RESULT:      -8.4      4.814      8.303
REMARK  5 active torsions:
REMARK  status: ('A' for Active; 'I' for Inactive)
REMARK    1  A    between atoms: C_4  and  C_5 
REMARK    2  A    between atoms: C_5  and  O_6 
REMARK    3  A    between atoms: O_6  and  C_7 
REMARK    4  A    between atoms: C_8  and  N_9 
REMARK       I    between atoms: N_9  and  C_10 
REMARK       I    between atoms: C_10  and  N_11 
REMARK    5  A    between atoms: N_11  and  C_12 
ROOT
HETATM    1  C   UNL     1      42.958 -16.607   4.077  1.00  0.00     0.037 A 
HETATM    2  C   UNL     1      42.891 -17.618   3.112  1.00  0.00     0.052 A 
HETATM    3  C   UNL     1      43.683 -18.767   3.232  1.00  0.00     0.046 A 
HETATM    4  C   UNL     1      43.558 -19.823   2.275  1.00  0.00     0.099 C 
HETATM    5  N   UNL     1      43.443 -20.682   1.502  1.00  0.00    -0.191 NA
HETATM    6  C   UNL     1      44.578 -18.887   4.298  1.00  0.00     0.023 A 
HETATM    7  C   UNL     1      44.670 -17.867   5.245  1.00  0.00     0.004 A 
HETATM    8  C   UNL     1      43.853 -16.737   5.140  1.00  0.00     0.029 A 
ENDROOT
BRANCH   1   9
HETATM    9  N   UNL     1      42.102 -15.507   3.915  1.00  0.00    -0.309 N 
HETATM   10  C   UNL     1      40.847 -15.335   4.423  1.00  0.00     0.326 C 
HETATM   11  N   UNL     1      40.178 -14.210   4.027  1.00  0.00    -0.291 N 
HETATM   12  O   UNL     1      40.245 -16.136   5.138  1.00  0.00    -0.247 OA
HETATM   13  H   UNL     1      39.210 -14.253   4.296  1.00  0.00     0.172 HD
HETATM   14  H   UNL     1      42.376 -14.779   3.260  1.00  0.00     0.170 HD
BRANCH  11  15
HETATM   15  C   UNL     1      40.655 -13.070   3.362  1.00  0.00     0.165 A 
HETATM   16  C   UNL     1      40.391 -12.854   2.001  1.00  0.00     0.115 A 
HETATM   17  C   UNL     1      40.928 -11.708   1.402  1.00  0.00     0.042 A 
HETATM   18  C   UNL     1      41.674 -10.807   2.146  1.00  0.00     0.022 A 
HETATM   19  C   UNL     1      41.885 -11.095   3.478  1.00  0.00     0.119 A 
HETATM   20  N   UNL     1      41.404 -12.200   4.090  1.00  0.00    -0.240 NA
BRANCH  16  21
HETATM   21  O   UNL     1      39.819 -13.705   1.101  1.00  0.00    -0.343 OA
BRANCH  21  22
HETATM   22  C   UNL     1      40.417 -13.880  -0.182  1.00  0.00     0.214 C 
BRANCH  22  23
HETATM   23  C   UNL     1      39.341 -13.809  -1.246  1.00  0.00    -0.034 A 
HETATM   24  C   UNL     1      39.166 -14.836  -2.191  1.00  0.00     0.009 A 
HETATM   25  C   UNL     1      38.166 -14.761  -3.160  1.00  0.00     0.001 A 
HETATM   26  C   UNL     1      37.325 -13.654  -3.204  1.00  0.00     0.000 A 
HETATM   27  C   UNL     1      37.480 -12.628  -2.275  1.00  0.00     0.001 A 
HETATM   28  C   UNL     1      38.476 -12.707  -1.295  1.00  0.00     0.009 A 
ENDBRANCH  22  23
ENDBRANCH  21  22
ENDBRANCH  16  21
ENDBRANCH  11  15
ENDBRANCH   1   9
TORSDOF 5
ENDMDL
MODEL 9
REMARK VINA RESULT:      -8.4      2.656      3.849
REMARK  5 active torsions:
REMARK  status: ('A' for Active; 'I' for Inactive)
REMARK    1  A    between atoms: C_4  and  C_5 
REMARK    2  A    between atoms: C_5  and  O_6 
REMARK    3  A    between atoms: O_6  and  C_7 
REMARK    4  A    between atoms: C_8  and  N_9 
REMARK       I    between atoms: N_9  and  C_10 
REMARK       I    between atoms: C_10  and  N_11 
REMARK    5  A    between atoms: N_11  and  C_12 
ROOT
HETATM    1  C   UNL     1      42.380 -12.032   5.916  1.00  0.00     0.037 A 
HETATM    2  C   UNL     1      42.197 -10.708   6.327  1.00  0.00     0.052 A 
HETATM    3  C   UNL     1      43.145 -10.081   7.145  1.00  0.00     0.046 A 
HETATM    4  C   UNL     1      42.980  -8.705   7.505  1.00  0.00     0.099 C 
HETATM    5  N   UNL     1      42.846  -7.586   7.784  1.00  0.00    -0.191 NA
HETATM    6  C   UNL     1      44.261 -10.794   7.591  1.00  0.00     0.023 A 
HETATM    7  C   UNL     1      44.432 -12.124   7.208  1.00  0.00     0.004 A 
HETATM    8  C   UNL     1      43.500 -12.736   6.363  1.00  0.00     0.029 A 
ENDROOT
BRANCH   1   9
HETATM    9  N   UNL     1      41.413 -12.579   5.061  1.00  0.00    -0.309 N 
HETATM   10  C   UNL     1      40.106 -12.862   5.340  1.00  0.00     0.326 C 
HETATM   11  N   UNL     1      39.397 -13.496   4.356  1.00  0.00    -0.291 N 
HETATM   12  O   UNL     1      39.543 -12.667   6.415  1.00  0.00    -0.247 OA
HETATM   13  H   UNL     1      38.514 -13.826   4.705  1.00  0.00     0.172 HD
HETATM   14  H   UNL     1      41.714 -12.916   4.150  1.00  0.00     0.170 HD
BRANCH  11  15
HETATM   15  C   UNL     1      39.721 -13.699   3.006  1.00  0.00     0.165 A 
HETATM   16  C   UNL     1      40.128 -14.956   2.534  1.00  0.00     0.115 A 
HETATM   17  C   UNL     1      40.463 -15.071   1.179  1.00  0.00     0.042 A 
HETATM   18  C   UNL     1      40.367 -13.976   0.333  1.00  0.00     0.022 A 
HETATM   19  C   UNL     1      39.957 -12.779   0.879  1.00  0.00     0.119 A 
HETATM   20  N   UNL     1      39.645 -12.618   2.184  1.00  0.00    -0.240 NA
BRANCH  16  21
HETATM   21  O   UNL     1      40.424 -16.078   3.251  1.00  0.00    -0.343 OA
BRANCH  21  22
HETATM   22  C   UNL     1      41.763 -16.567   3.273  1.00  0.00     0.214 C 
BRANCH  22  23
HETATM   23  C   UNL     1      42.317 -16.439   4.677  1.00  0.00    -0.034 A 
HETATM   24  C   UNL     1      41.478 -16.228   5.787  1.00  0.00     0.009 A 
HETATM   25  C   UNL     1      42.001 -16.121   7.075  1.00  0.00     0.001 A 
HETATM   26  C   UNL     1      43.374 -16.220   7.277  1.00  0.00     0.000 A 
HETATM   27  C   UNL     1      44.221 -16.434   6.191  1.00  0.00     0.001 A 
HETATM   28  C   UNL     1      43.696 -16.552   4.900  1.00  0.00     0.009 A 
ENDBRANCH  22  23
ENDBRANCH  21  22
ENDBRANCH  16  21
ENDBRANCH  11  15
ENDBRANCH   1   9
TORSDOF 5
ENDMDL
MODEL 10
REMARK VINA RESULT:      -8.3      2.088      2.791
REMARK  5 active torsions:
REMARK  status: ('A' for Active; 'I' for Inactive)
REMARK    1  A    between atoms: C_4  and  C_5 
REMARK    2  A    between atoms: C_5  and  O_6 
REMARK    3  A    between atoms: O_6  and  C_7 
REMARK    4  A    between atoms: C_8  and  N_9 
REMARK       I    between atoms: N_9  and  C_10 
REMARK       I    between atoms: C_10  and  N_11 
REMARK    5  A    between atoms: N_11  and  C_12 
ROOT
HETATM    1  C   UNL     1      42.532 -10.911   5.632  1.00  0.00     0.037 A 
HETATM    2  C   UNL     1      43.486 -11.134   6.631  1.00  0.00     0.052 A 
HETATM    3  C   UNL     1      43.581 -10.268   7.728  1.00  0.00     0.046 A 
HETATM    4  C   UNL     1      44.517 -10.544   8.775  1.00  0.00     0.099 C 
HETATM    5  N   UNL     1      45.269 -10.779   9.628  1.00  0.00    -0.191 NA
HETATM    6  C   UNL     1      42.748  -9.149   7.806  1.00  0.00     0.023 A 
HETATM    7  C   UNL     1      41.817  -8.906   6.797  1.00  0.00     0.004 A 
HETATM    8  C   UNL     1      41.702  -9.792   5.721  1.00  0.00     0.029 A 
ENDROOT
BRANCH   1   9
HETATM    9  N   UNL     1      42.464 -11.844   4.588  1.00  0.00    -0.309 N 
HETATM   10  C   UNL     1      43.400 -12.102   3.628  1.00  0.00     0.326 C 
HETATM   11  N   UNL     1      43.043 -12.993   2.653  1.00  0.00    -0.291 N 
HETATM   12  O   UNL     1      44.495 -11.551   3.525  1.00  0.00    -0.247 OA
HETATM   13  H   UNL     1      43.708 -12.986   1.899  1.00  0.00     0.172 HD
HETATM   14  H   UNL     1      41.583 -12.328   4.433  1.00  0.00     0.170 HD
BRANCH  11  15
HETATM   15  C   UNL     1      41.951 -13.872   2.598  1.00  0.00     0.165 A 
HETATM   16  C   UNL     1      42.089 -15.229   2.930  1.00  0.00     0.115 A 
HETATM   17  C   UNL     1      40.959 -16.049   2.821  1.00  0.00     0.042 A 
HETATM   18  C   UNL     1      39.739 -15.521   2.423  1.00  0.00     0.022 A 
HETATM   19  C   UNL     1      39.693 -14.178   2.117  1.00  0.00     0.119 A 
HETATM   20  N   UNL     1      40.763 -13.355   2.187  1.00  0.00    -0.240 NA
BRANCH  16  21
HETATM   21  O   UNL     1      43.231 -15.931   3.182  1.00  0.00    -0.343 OA
BRANCH  21  22
HETATM   22  C   UNL     1      43.661 -16.931   2.263  1.00  0.00     0.214 C 
BRANCH  22  23
HETATM   23  C   UNL     1      43.761 -18.260   2.984  1.00  0.00    -0.034 A 
HETATM   24  C   UNL     1      43.532 -19.480   2.322  1.00  0.00     0.009 A 
HETATM   25  C   UNL     1      43.637 -20.696   2.997  1.00  0.00     0.001 A 
HETATM   26  C   UNL     1      43.969 -20.714   4.348  1.00  0.00     0.000 A 
HETATM   27  C   UNL     1      44.205 -19.516   5.019  1.00  0.00     0.001 A 
HETATM   28  C   UNL     1      44.110 -18.296   4.341  1.00  0.00     0.009 A 
ENDBRANCH  22  23
ENDBRANCH  21  22
ENDBRANCH  16  21
ENDBRANCH  11  15
ENDBRANCH   1   9
TORSDOF 5
ENDMDL
