MODEL 1
REMARK VINA RESULT:      -8.1      0.000      0.000
REMARK  9 active torsions:
REMARK  status: ('A' for Active; 'I' for Inactive)
REMARK    1  A    between atoms: C_2  and  N_3 
REMARK    2  A    between atoms: C_4  and  S_5 
REMARK    3  A    between atoms: S_5  and  C_6 
REMARK    4  A    between atoms: C_6  and  C_7 
REMARK       I    between atoms: C_7  and  N_8 
REMARK    5  A    between atoms: N_8  and  C_9 
REMARK    6  A    between atoms: C_9  and  C_10 
REMARK    7  A    between atoms: C_10  and  C_11 
REMARK    8  A    between atoms: C_20  and  C_21 
REMARK    9  A    between atoms: C_24  and  O_25 
ROOT
HETATM    1  N   UNL     1      42.846  -9.594   9.454  1.00  0.00    -0.308 N 
HETATM    2  C   UNL     1      43.516 -10.479   8.645  1.00  0.00     0.192 A 
HETATM    3  N   UNL     1      44.371 -11.176   9.348  1.00  0.00    -0.122 NA
HETATM    4  N   UNL     1      44.242 -10.785  10.648  1.00  0.00    -0.128 NA
HETATM    5  C   UNL     1      43.321  -9.834  10.737  1.00  0.00     0.164 A 
ENDROOT
BRANCH   2   6
HETATM    6  S   UNL     1      43.254 -10.660   6.944  1.00  0.00    -0.081 SA
BRANCH   6   7
HETATM    7  C   UNL     1      44.349 -12.057   6.571  1.00  0.00     0.185 C 
BRANCH   7   8
HETATM    8  C   UNL     1      43.577 -13.263   6.071  1.00  0.00     0.227 C 
HETATM    9  N   UNL     1      43.644 -14.380   6.877  1.00  0.00    -0.360 N 
HETATM   10  H   UNL     1      44.191 -14.323   7.737  1.00  0.00     0.162 HD
HETATM   11  O   UNL     1      42.981 -13.250   4.995  1.00  0.00    -0.273 OA
BRANCH   9  12
HETATM   12  C   UNL     1      43.153 -15.667   6.431  1.00  0.00     0.127 C 
BRANCH  12  13
HETATM   13  C   UNL     1      44.277 -16.583   5.948  1.00  0.00     0.058 C 
BRANCH  13  14
HETATM   14  C   UNL     1      43.906 -17.292   4.670  1.00  0.00    -0.057 A 
HETATM   15  C   UNL     1      43.102 -16.654   3.715  1.00  0.00     0.007 A 
HETATM   16  C   UNL     1      42.730 -17.318   2.544  1.00  0.00     0.001 A 
HETATM   17  C   UNL     1      43.156 -18.625   2.319  1.00  0.00     0.000 A 
HETATM   18  C   UNL     1      43.952 -19.269   3.263  1.00  0.00     0.001 A 
HETATM   19  C   UNL     1      44.325 -18.607   4.434  1.00  0.00     0.007 A 
ENDBRANCH  13  14
ENDBRANCH  12  13
ENDBRANCH   9  12
ENDBRANCH   7   8
ENDBRANCH   6   7
ENDBRANCH   2   6
BRANCH   1  20
HETATM   20  C   UNL     1      41.859  -8.629   9.019  1.00  0.00     0.128 C 
HETATM   21  C   UNL     1      40.426  -9.083   9.228  1.00  0.00     0.027 C 
ENDBRANCH   1  20
BRANCH   5  22
HETATM   22  C   UNL     1      42.899  -9.261  12.027  1.00  0.00     0.012 A 
HETATM   23  C   UNL     1      43.574  -8.117  12.485  1.00  0.00     0.018 A 
HETATM   24  C   UNL     1      43.215  -7.485  13.681  1.00  0.00     0.037 A 
HETATM   25  C   UNL     1      42.170  -7.979  14.456  1.00  0.00     0.068 A 
HETATM   26  C   UNL     1      41.485  -9.110  14.017  1.00  0.00     0.037 A 
HETATM   27  C   UNL     1      41.838  -9.733  12.808  1.00  0.00     0.018 A 
BRANCH  25  28
HETATM   28  O   UNL     1      41.914  -7.270  15.595  1.00  0.00    -0.356 OA
HETATM   29  C   UNL     1      41.049  -7.872  16.551  1.00  0.00     0.210 C 
ENDBRANCH  25  28
ENDBRANCH   5  22
TORSDOF 9
ENDMDL
MODEL 2
REMARK VINA RESULT:      -7.8      3.288     10.383
REMARK  9 active torsions:
REMARK  status: ('A' for Active; 'I' for Inactive)
REMARK    1  A    between atoms: C_2  and  N_3 
REMARK    2  A    between atoms: C_4  and  S_5 
REMARK    3  A    between atoms: S_5  and  C_6 
REMARK    4  A    between atoms: C_6  and  C_7 
REMARK       I    between atoms: C_7  and  N_8 
REMARK    5  A    between atoms: N_8  and  C_9 
REMARK    6  A    between atoms: C_9  and  C_10 
REMARK    7  A    between atoms: C_10  and  C_11 
REMARK    8  A    between atoms: C_20  and  C_21 
REMARK    9  A    between atoms: C_24  and  O_25 
ROOT
HETATM    1  N   UNL     1      42.174 -14.246   5.030  1.00  0.00    -0.308 N 
HETATM    2  C   UNL     1      42.369 -13.312   6.019  1.00  0.00     0.192 A 
HETATM    3  N   UNL     1      43.222 -13.761   6.903  1.00  0.00    -0.122 NA
HETATM    4  N   UNL     1      43.636 -14.990   6.481  1.00  0.00    -0.128 NA
HETATM    5  C   UNL     1      43.021 -15.301   5.347  1.00  0.00     0.164 A 
ENDROOT
BRANCH   2   6
HETATM    6  S   UNL     1      41.612 -11.758   6.076  1.00  0.00    -0.081 SA
BRANCH   6   7
HETATM    7  C   UNL     1      42.794 -10.760   5.129  1.00  0.00     0.185 C 
BRANCH   7   8
HETATM    8  C   UNL     1      44.224 -11.006   5.571  1.00  0.00     0.227 C 
HETATM    9  N   UNL     1      44.466 -10.808   6.914  1.00  0.00    -0.360 N 
HETATM   10  H   UNL     1      43.687 -10.520   7.508  1.00  0.00     0.162 HD
HETATM   11  O   UNL     1      45.106 -11.309   4.770  1.00  0.00    -0.273 OA
BRANCH   9  12
HETATM   12  C   UNL     1      45.813 -10.783   7.445  1.00  0.00     0.127 C 
BRANCH  12  13
HETATM   13  C   UNL     1      46.172  -9.429   8.056  1.00  0.00     0.058 C 
BRANCH  13  14
HETATM   14  C   UNL     1      45.146  -8.985   9.067  1.00  0.00    -0.057 A 
HETATM   15  C   UNL     1      44.317  -7.887   8.799  1.00  0.00     0.007 A 
HETATM   16  C   UNL     1      43.388  -7.453   9.745  1.00  0.00     0.001 A 
HETATM   17  C   UNL     1      43.280  -8.109  10.969  1.00  0.00     0.000 A 
HETATM   18  C   UNL     1      44.101  -9.200  11.248  1.00  0.00     0.001 A 
HETATM   19  C   UNL     1      45.031  -9.636  10.302  1.00  0.00     0.007 A 
ENDBRANCH  13  14
ENDBRANCH  12  13
ENDBRANCH   9  12
ENDBRANCH   7   8
ENDBRANCH   6   7
ENDBRANCH   2   6
BRANCH   1  20
HETATM   20  C   UNL     1      41.266 -14.118   3.910  1.00  0.00     0.128 C 
HETATM   21  C   UNL     1      41.871 -13.413   2.710  1.00  0.00     0.027 C 
ENDBRANCH   1  20
BRANCH   5  22
HETATM   22  C   UNL     1      43.317 -16.536   4.600  1.00  0.00     0.012 A 
HETATM   23  C   UNL     1      43.742 -17.657   5.335  1.00  0.00     0.018 A 
HETATM   24  C   UNL     1      44.009 -18.881   4.713  1.00  0.00     0.037 A 
HETATM   25  C   UNL     1      43.861 -19.022   3.336  1.00  0.00     0.068 A 
HETATM   26  C   UNL     1      43.436 -17.925   2.591  1.00  0.00     0.037 A 
HETATM   27  C   UNL     1      43.153 -16.700   3.221  1.00  0.00     0.018 A 
BRANCH  25  28
HETATM   28  O   UNL     1      44.146 -20.267   2.851  1.00  0.00    -0.356 OA
HETATM   29  C   UNL     1      43.587 -20.614   1.590  1.00  0.00     0.210 C 
ENDBRANCH  25  28
ENDBRANCH   5  22
TORSDOF 9
ENDMDL
MODEL 3
REMARK VINA RESULT:      -7.8      1.342      1.998
REMARK  9 active torsions:
REMARK  status: ('A' for Active; 'I' for Inactive)
REMARK    1  A    between atoms: C_2  and  N_3 
REMARK    2  A    between atoms: C_4  and  S_5 
REMARK    3  A    between atoms: S_5  and  C_6 
REMARK    4  A    between atoms: C_6  and  C_7 
REMARK       I    between atoms: C_7  and  N_8 
REMARK    5  A    between atoms: N_8  and  C_9 
REMARK    6  A    between atoms: C_9  and  C_10 
REMARK    7  A    between atoms: C_10  and  C_11 
REMARK    8  A    between atoms: C_20  and  C_21 
REMARK    9  A    between atoms: C_24  and  O_25 
ROOT
HETATM    1  N   UNL     1      43.009  -9.945   8.222  1.00  0.00    -0.308 N 
HETATM    2  C   UNL     1      43.693 -10.808   7.399  1.00  0.00     0.192 A 
HETATM    3  N   UNL     1      44.635 -11.419   8.069  1.00  0.00    -0.122 NA
HETATM    4  N   UNL     1      44.557 -10.995   9.362  1.00  0.00    -0.128 NA
HETATM    5  C   UNL     1      43.576 -10.108   9.479  1.00  0.00     0.164 A 
ENDROOT
BRANCH   2   6
HETATM    6  S   UNL     1      43.343 -11.064   5.724  1.00  0.00    -0.081 SA
BRANCH   6   7
HETATM    7  C   UNL     1      42.130 -12.409   5.825  1.00  0.00     0.185 C 
BRANCH   7   8
HETATM    8  C   UNL     1      42.779 -13.770   5.667  1.00  0.00     0.227 C 
HETATM    9  N   UNL     1      42.057 -14.683   4.928  1.00  0.00    -0.360 N 
HETATM   10  H   UNL     1      41.158 -14.391   4.542  1.00  0.00     0.162 HD
HETATM   11  O   UNL     1      43.848 -14.045   6.208  1.00  0.00    -0.273 OA
BRANCH   9  12
HETATM   12  C   UNL     1      42.431 -16.082   4.877  1.00  0.00     0.127 C 
BRANCH  12  13
HETATM   13  C   UNL     1      43.254 -16.420   3.635  1.00  0.00     0.058 C 
BRANCH  13  14
HETATM   14  C   UNL     1      43.412 -17.909   3.460  1.00  0.00    -0.057 A 
HETATM   15  C   UNL     1      43.979 -18.685   4.481  1.00  0.00     0.007 A 
HETATM   16  C   UNL     1      44.156 -20.059   4.311  1.00  0.00     0.001 A 
HETATM   17  C   UNL     1      43.771 -20.670   3.119  1.00  0.00     0.000 A 
HETATM   18  C   UNL     1      43.210 -19.907   2.096  1.00  0.00     0.001 A 
HETATM   19  C   UNL     1      43.033 -18.533   2.265  1.00  0.00     0.007 A 
ENDBRANCH  13  14
ENDBRANCH  12  13
ENDBRANCH   9  12
ENDBRANCH   7   8
ENDBRANCH   6   7
ENDBRANCH   2   6
BRANCH   1  20
HETATM   20  C   UNL     1      41.932  -9.067   7.820  1.00  0.00     0.128 C 
HETATM   21  C   UNL     1      40.553  -9.682   7.973  1.00  0.00     0.027 C 
ENDBRANCH   1  20
BRANCH   5  22
HETATM   22  C   UNL     1      43.191  -9.523  10.776  1.00  0.00     0.012 A 
HETATM   23  C   UNL     1      42.686 -10.390  11.760  1.00  0.00     0.018 A 
HETATM   24  C   UNL     1      42.331  -9.927  13.031  1.00  0.00     0.037 A 
HETATM   25  C   UNL     1      42.469  -8.581  13.358  1.00  0.00     0.068 A 
HETATM   26  C   UNL     1      42.973  -7.706  12.399  1.00  0.00     0.037 A 
HETATM   27  C   UNL     1      43.343  -8.177  11.127  1.00  0.00     0.018 A 
BRANCH  25  28
HETATM   28  O   UNL     1      42.095  -8.257  14.631  1.00  0.00    -0.356 OA
HETATM   29  C   UNL     1      42.541  -7.005  15.137  1.00  0.00     0.210 C 
ENDBRANCH  25  28
ENDBRANCH   5  22
TORSDOF 9
ENDMDL
MODEL 4
REMARK VINA RESULT:      -7.8      3.973      5.569
REMARK  9 active torsions:
REMARK  status: ('A' for Active; 'I' for Inactive)
REMARK    1  A    between atoms: C_2  and  N_3 
REMARK    2  A    between atoms: C_4  and  S_5 
REMARK    3  A    between atoms: S_5  and  C_6 
REMARK    4  A    between atoms: C_6  and  C_7 
REMARK       I    between atoms: C_7  and  N_8 
REMARK    5  A    between atoms: N_8  and  C_9 
REMARK    6  A    between atoms: C_9  and  C_10 
REMARK    7  A    between atoms: C_10  and  C_11 
REMARK    8  A    between atoms: C_20  and  C_21 
REMARK    9  A    between atoms: C_24  and  O_25 
ROOT
HETATM    1  N   UNL     1      41.502 -11.247   4.188  1.00  0.00    -0.308 N 
HETATM    2  C   UNL     1      41.538 -11.456   2.831  1.00  0.00     0.192 A 
HETATM    3  N   UNL     1      42.769 -11.385   2.395  1.00  0.00    -0.122 NA
HETATM    4  N   UNL     1      43.571 -11.169   3.476  1.00  0.00    -0.128 NA
HETATM    5  C   UNL     1      42.827 -11.089   4.572  1.00  0.00     0.164 A 
ENDROOT
BRANCH   2   6
HETATM    6  S   UNL     1      40.157 -11.785   1.842  1.00  0.00    -0.081 SA
BRANCH   6   7
HETATM    7  C   UNL     1      40.648 -13.352   1.071  1.00  0.00     0.185 C 
BRANCH   7   8
HETATM    8  C   UNL     1      41.218 -14.327   2.083  1.00  0.00     0.227 C 
HETATM    9  N   UNL     1      42.546 -14.652   1.902  1.00  0.00    -0.360 N 
HETATM   10  H   UNL     1      43.046 -14.225   1.121  1.00  0.00     0.162 HD
HETATM   11  O   UNL     1      40.523 -14.825   2.966  1.00  0.00    -0.273 OA
BRANCH   9  12
HETATM   12  C   UNL     1      43.169 -15.731   2.640  1.00  0.00     0.127 C 
BRANCH  12  13
HETATM   13  C   UNL     1      42.978 -17.087   1.962  1.00  0.00     0.058 C 
BRANCH  13  14
HETATM   14  C   UNL     1      43.393 -18.223   2.864  1.00  0.00    -0.057 A 
HETATM   15  C   UNL     1      43.392 -19.541   2.387  1.00  0.00     0.007 A 
HETATM   16  C   UNL     1      43.744 -20.599   3.227  1.00  0.00     0.001 A 
HETATM   17  C   UNL     1      44.097 -20.349   4.552  1.00  0.00     0.000 A 
HETATM   18  C   UNL     1      44.098 -19.043   5.037  1.00  0.00     0.001 A 
HETATM   19  C   UNL     1      43.746 -17.984   4.198  1.00  0.00     0.007 A 
ENDBRANCH  13  14
ENDBRANCH  12  13
ENDBRANCH   9  12
ENDBRANCH   7   8
ENDBRANCH   6   7
ENDBRANCH   2   6
BRANCH   1  20
HETATM   20  C   UNL     1      40.310 -11.207   5.008  1.00  0.00     0.128 C 
HETATM   21  C   UNL     1      39.911 -12.557   5.573  1.00  0.00     0.027 C 
ENDBRANCH   1  20
BRANCH   5  22
HETATM   22  C   UNL     1      43.414 -10.937   5.916  1.00  0.00     0.012 A 
HETATM   23  C   UNL     1      44.740 -11.363   6.101  1.00  0.00     0.018 A 
HETATM   24  C   UNL     1      45.389 -11.223   7.333  1.00  0.00     0.037 A 
HETATM   25  C   UNL     1      44.729 -10.653   8.419  1.00  0.00     0.068 A 
HETATM   26  C   UNL     1      43.416 -10.220   8.254  1.00  0.00     0.037 A 
HETATM   27  C   UNL     1      42.772 -10.349   7.011  1.00  0.00     0.018 A 
BRANCH  25  28
HETATM   28  O   UNL     1      45.472 -10.566   9.562  1.00  0.00    -0.356 OA
HETATM   29  C   UNL     1      44.782 -10.219  10.756  1.00  0.00     0.210 C 
ENDBRANCH  25  28
ENDBRANCH   5  22
TORSDOF 9
ENDMDL
MODEL 5
REMARK VINA RESULT:      -7.5      2.398     10.892
REMARK  9 active torsions:
REMARK  status: ('A' for Active; 'I' for Inactive)
REMARK    1  A    between atoms: C_2  and  N_3 
REMARK    2  A    between atoms: C_4  and  S_5 
REMARK    3  A    between atoms: S_5  and  C_6 
REMARK    4  A    between atoms: C_6  and  C_7 
REMARK       I    between atoms: C_7  and  N_8 
REMARK    5  A    between atoms: N_8  and  C_9 
REMARK    6  A    between atoms: C_9  and  C_10 
REMARK    7  A    between atoms: C_10  and  C_11 
REMARK    8  A    between atoms: C_20  and  C_21 
REMARK    9  A    between atoms: C_24  and  O_25 
ROOT
HETATM    1  N   UNL     1      43.094 -13.648   5.035  1.00  0.00    -0.308 N 
HETATM    2  C   UNL     1      43.206 -12.944   6.209  1.00  0.00     0.192 A 
HETATM    3  N   UNL     1      43.298 -13.765   7.222  1.00  0.00    -0.122 NA
HETATM    4  N   UNL     1      43.290 -15.033   6.720  1.00  0.00    -0.128 NA
HETATM    5  C   UNL     1      43.175 -14.986   5.398  1.00  0.00     0.164 A 
ENDROOT
BRANCH   2   6
HETATM    6  S   UNL     1      43.241 -11.218   6.329  1.00  0.00    -0.081 SA
BRANCH   6   7
HETATM    7  C   UNL     1      44.964 -10.939   6.821  1.00  0.00     0.185 C 
BRANCH   7   8
HETATM    8  C   UNL     1      45.075  -9.932   7.950  1.00  0.00     0.227 C 
HETATM    9  N   UNL     1      43.981  -9.865   8.786  1.00  0.00    -0.360 N 
HETATM   10  H   UNL     1      43.190 -10.483   8.598  1.00  0.00     0.162 HD
HETATM   11  O   UNL     1      46.054  -9.198   8.069  1.00  0.00    -0.273 OA
BRANCH   9  12
HETATM   12  C   UNL     1      43.840  -8.807   9.765  1.00  0.00     0.127 C 
BRANCH  12  13
HETATM   13  C   UNL     1      44.337  -9.223  11.149  1.00  0.00     0.058 C 
BRANCH  13  14
HETATM   14  C   UNL     1      43.268  -9.055  12.198  1.00  0.00    -0.057 A 
HETATM   15  C   UNL     1      42.160  -9.914  12.224  1.00  0.00     0.007 A 
HETATM   16  C   UNL     1      41.152  -9.742  13.174  1.00  0.00     0.001 A 
HETATM   17  C   UNL     1      41.239  -8.708  14.104  1.00  0.00     0.000 A 
HETATM   18  C   UNL     1      42.333  -7.846  14.084  1.00  0.00     0.001 A 
HETATM   19  C   UNL     1      43.343  -8.017  13.135  1.00  0.00     0.007 A 
ENDBRANCH  13  14
ENDBRANCH  12  13
ENDBRANCH   9  12
ENDBRANCH   7   8
ENDBRANCH   6   7
ENDBRANCH   2   6
BRANCH   1  20
HETATM   20  C   UNL     1      42.926 -13.076   3.716  1.00  0.00     0.128 C 
HETATM   21  C   UNL     1      41.489 -12.724   3.381  1.00  0.00     0.027 C 
ENDBRANCH   1  20
BRANCH   5  22
HETATM   22  C   UNL     1      43.215 -16.196   4.558  1.00  0.00     0.012 A 
HETATM   23  C   UNL     1      42.339 -16.260   3.462  1.00  0.00     0.018 A 
HETATM   24  C   UNL     1      42.335 -17.354   2.590  1.00  0.00     0.037 A 
HETATM   25  C   UNL     1      43.209 -18.419   2.788  1.00  0.00     0.068 A 
HETATM   26  C   UNL     1      44.089 -18.373   3.867  1.00  0.00     0.037 A 
HETATM   27  C   UNL     1      44.101 -17.266   4.732  1.00  0.00     0.018 A 
BRANCH  25  28
HETATM   28  O   UNL     1      43.112 -19.422   1.865  1.00  0.00    -0.356 OA
HETATM   29  C   UNL     1      43.835 -20.617   2.132  1.00  0.00     0.210 C 
ENDBRANCH  25  28
ENDBRANCH   5  22
TORSDOF 9
ENDMDL
MODEL 6
REMARK VINA RESULT:      -7.4      2.411     11.216
REMARK  9 active torsions:
REMARK  status: ('A' for Active; 'I' for Inactive)
REMARK    1  A    between atoms: C_2  and  N_3 
REMARK    2  A    between atoms: C_4  and  S_5 
REMARK    3  A    between atoms: S_5  and  C_6 
REMARK    4  A    between atoms: C_6  and  C_7 
REMARK       I    between atoms: C_7  and  N_8 
REMARK    5  A    between atoms: N_8  and  C_9 
REMARK    6  A    between atoms: C_9  and  C_10 
REMARK    7  A    between atoms: C_10  and  C_11 
REMARK    8  A    between atoms: C_20  and  C_21 
REMARK    9  A    between atoms: C_24  and  O_25 
ROOT
HETATM    1  N   UNL     1      42.224 -14.127   5.326  1.00  0.00    -0.308 N 
HETATM    2  C   UNL     1      42.065 -12.814   4.954  1.00  0.00     0.192 A 
HETATM    3  N   UNL     1      42.591 -12.612   3.774  1.00  0.00    -0.122 NA
HETATM    4  N   UNL     1      43.070 -13.810   3.332  1.00  0.00    -0.128 NA
HETATM    5  C   UNL     1      42.853 -14.742   4.251  1.00  0.00     0.164 A 
ENDROOT
BRANCH   2   6
HETATM    6  S   UNL     1      41.265 -11.607   5.900  1.00  0.00    -0.081 SA
BRANCH   6   7
HETATM    7  C   UNL     1      42.673 -10.847   6.755  1.00  0.00     0.185 C 
BRANCH   7   8
HETATM    8  C   UNL     1      42.256  -9.639   7.571  1.00  0.00     0.227 C 
HETATM    9  N   UNL     1      42.102  -9.867   8.922  1.00  0.00    -0.360 N 
HETATM   10  H   UNL     1      42.277 -10.808   9.276  1.00  0.00     0.162 HD
HETATM   11  O   UNL     1      42.024  -8.551   7.046  1.00  0.00    -0.273 OA
BRANCH   9  12
HETATM   12  C   UNL     1      41.494  -8.881   9.792  1.00  0.00     0.127 C 
BRANCH  12  13
HETATM   13  C   UNL     1      40.945  -9.498  11.077  1.00  0.00     0.058 C 
BRANCH  13  14
HETATM   14  C   UNL     1      41.544  -8.857  12.303  1.00  0.00    -0.057 A 
HETATM   15  C   UNL     1      42.586  -7.927  12.178  1.00  0.00     0.007 A 
HETATM   16  C   UNL     1      43.166  -7.355  13.311  1.00  0.00     0.001 A 
HETATM   17  C   UNL     1      42.713  -7.709  14.580  1.00  0.00     0.000 A 
HETATM   18  C   UNL     1      41.680  -8.635  14.716  1.00  0.00     0.001 A 
HETATM   19  C   UNL     1      41.099  -9.208  13.584  1.00  0.00     0.007 A 
ENDBRANCH  13  14
ENDBRANCH  12  13
ENDBRANCH   9  12
ENDBRANCH   7   8
ENDBRANCH   6   7
ENDBRANCH   2   6
BRANCH   1  20
HETATM   20  C   UNL     1      41.810 -14.707   6.586  1.00  0.00     0.128 C 
HETATM   21  C   UNL     1      40.539 -15.531   6.491  1.00  0.00     0.027 C 
ENDBRANCH   1  20
BRANCH   5  22
HETATM   22  C   UNL     1      43.188 -16.160   4.033  1.00  0.00     0.012 A 
HETATM   23  C   UNL     1      42.707 -16.773   2.863  1.00  0.00     0.018 A 
HETATM   24  C   UNL     1      43.008 -18.104   2.557  1.00  0.00     0.037 A 
HETATM   25  C   UNL     1      43.800 -18.865   3.413  1.00  0.00     0.068 A 
HETATM   26  C   UNL     1      44.291 -18.275   4.575  1.00  0.00     0.037 A 
HETATM   27  C   UNL     1      43.999 -16.932   4.872  1.00  0.00     0.018 A 
BRANCH  25  28
HETATM   28  O   UNL     1      44.026 -20.147   2.999  1.00  0.00    -0.356 OA
HETATM   29  C   UNL     1      43.569 -20.496   1.698  1.00  0.00     0.210 C 
ENDBRANCH  25  28
ENDBRANCH   5  22
TORSDOF 9
ENDMDL
MODEL 7
REMARK VINA RESULT:      -7.3      3.483     10.396
REMARK  9 active torsions:
REMARK  status: ('A' for Active; 'I' for Inactive)
REMARK    1  A    between atoms: C_2  and  N_3 
REMARK    2  A    between atoms: C_4  and  S_5 
REMARK    3  A    between atoms: S_5  and  C_6 
REMARK    4  A    between atoms: C_6  and  C_7 
REMARK       I    between atoms: C_7  and  N_8 
REMARK    5  A    between atoms: N_8  and  C_9 
REMARK    6  A    between atoms: C_9  and  C_10 
REMARK    7  A    between atoms: C_10  and  C_11 
REMARK    8  A    between atoms: C_20  and  C_21 
REMARK    9  A    between atoms: C_24  and  O_25 
ROOT
HETATM    1  N   UNL     1      41.558 -13.993   4.286  1.00  0.00    -0.308 N 
HETATM    2  C   UNL     1      41.649 -12.652   4.002  1.00  0.00     0.192 A 
HETATM    3  N   UNL     1      42.728 -12.410   3.303  1.00  0.00    -0.122 NA
HETATM    4  N   UNL     1      43.345 -13.606   3.081  1.00  0.00    -0.128 NA
HETATM    5  C   UNL     1      42.651 -14.578   3.659  1.00  0.00     0.164 A 
ENDROOT
BRANCH   2   6
HETATM    6  S   UNL     1      40.493 -11.457   4.481  1.00  0.00    -0.081 SA
BRANCH   6   7
HETATM    7  C   UNL     1      40.914 -11.249   6.233  1.00  0.00     0.185 C 
BRANCH   7   8
HETATM    8  C   UNL     1      41.920 -10.134   6.445  1.00  0.00     0.227 C 
HETATM    9  N   UNL     1      41.406  -8.974   6.984  1.00  0.00    -0.360 N 
HETATM   10  H   UNL     1      40.409  -8.942   7.202  1.00  0.00     0.162 HD
HETATM   11  O   UNL     1      43.097 -10.250   6.108  1.00  0.00    -0.273 OA
BRANCH   9  12
HETATM   12  C   UNL     1      42.184  -7.753   7.036  1.00  0.00     0.127 C 
BRANCH  12  13
HETATM   13  C   UNL     1      42.452  -7.294   8.469  1.00  0.00     0.058 C 
BRANCH  13  14
HETATM   14  C   UNL     1      43.471  -8.170   9.152  1.00  0.00    -0.057 A 
HETATM   15  C   UNL     1      44.728  -8.382   8.568  1.00  0.00     0.007 A 
HETATM   16  C   UNL     1      45.663  -9.217   9.181  1.00  0.00     0.001 A 
HETATM   17  C   UNL     1      45.350  -9.852  10.381  1.00  0.00     0.000 A 
HETATM   18  C   UNL     1      44.102  -9.652  10.968  1.00  0.00     0.001 A 
HETATM   19  C   UNL     1      43.166  -8.816  10.357  1.00  0.00     0.007 A 
ENDBRANCH  13  14
ENDBRANCH  12  13
ENDBRANCH   9  12
ENDBRANCH   7   8
ENDBRANCH   6   7
ENDBRANCH   2   6
BRANCH   1  20
HETATM   20  C   UNL     1      40.523 -14.623   5.077  1.00  0.00     0.128 C 
HETATM   21  C   UNL     1      40.960 -14.971   6.488  1.00  0.00     0.027 C 
ENDBRANCH   1  20
BRANCH   5  22
HETATM   22  C   UNL     1      43.022 -15.998   3.530  1.00  0.00     0.012 A 
HETATM   23  C   UNL     1      43.713 -16.592   4.600  1.00  0.00     0.018 A 
HETATM   24  C   UNL     1      44.072 -17.944   4.579  1.00  0.00     0.037 A 
HETATM   25  C   UNL     1      43.751 -18.744   3.486  1.00  0.00     0.068 A 
HETATM   26  C   UNL     1      43.062 -18.175   2.417  1.00  0.00     0.037 A 
HETATM   27  C   UNL     1      42.689 -16.820   2.448  1.00  0.00     0.018 A 
BRANCH  25  28
HETATM   28  O   UNL     1      44.150 -20.047   3.589  1.00  0.00    -0.356 OA
HETATM   29  C   UNL     1      44.114 -20.632   4.885  1.00  0.00     0.210 C 
ENDBRANCH  25  28
ENDBRANCH   5  22
TORSDOF 9
ENDMDL
MODEL 8
REMARK VINA RESULT:      -7.3      3.281     10.480
REMARK  9 active torsions:
REMARK  status: ('A' for Active; 'I' for Inactive)
REMARK    1  A    between atoms: C_2  and  N_3 
REMARK    2  A    between atoms: C_4  and  S_5 
REMARK    3  A    between atoms: S_5  and  C_6 
REMARK    4  A    between atoms: C_6  and  C_7 
REMARK       I    between atoms: C_7  and  N_8 
REMARK    5  A    between atoms: N_8  and  C_9 
REMARK    6  A    between atoms: C_9  and  C_10 
REMARK    7  A    between atoms: C_10  and  C_11 
REMARK    8  A    between atoms: C_20  and  C_21 
REMARK    9  A    between atoms: C_24  and  O_25 
ROOT
HETATM    1  N   UNL     1      41.832 -13.524   4.889  1.00  0.00    -0.308 N 
HETATM    2  C   UNL     1      40.912 -12.874   5.675  1.00  0.00     0.192 A 
HETATM    3  N   UNL     1      40.081 -13.734   6.204  1.00  0.00    -0.122 NA
HETATM    4  N   UNL     1      40.472 -14.977   5.803  1.00  0.00    -0.128 NA
HETATM    5  C   UNL     1      41.533 -14.875   5.012  1.00  0.00     0.164 A 
ENDROOT
BRANCH   2   6
HETATM    6  S   UNL     1      40.872 -11.165   5.945  1.00  0.00    -0.081 SA
BRANCH   6   7
HETATM    7  C   UNL     1      39.284 -10.986   6.803  1.00  0.00     0.185 C 
BRANCH   7   8
HETATM    8  C   UNL     1      39.320  -9.874   7.833  1.00  0.00     0.227 C 
HETATM    9  N   UNL     1      39.711 -10.257   9.099  1.00  0.00    -0.360 N 
HETATM   10  H   UNL     1      39.948 -11.238   9.256  1.00  0.00     0.162 HD
HETATM   11  O   UNL     1      38.972  -8.727   7.560  1.00  0.00    -0.273 OA
BRANCH   9  12
HETATM   12  C   UNL     1      39.580  -9.367  10.234  1.00  0.00     0.127 C 
BRANCH  12  13
HETATM   13  C   UNL     1      40.616  -9.652  11.320  1.00  0.00     0.058 C 
BRANCH  13  14
HETATM   14  C   UNL     1      42.021  -9.431  10.820  1.00  0.00    -0.057 A 
HETATM   15  C   UNL     1      43.048 -10.315  11.181  1.00  0.00     0.007 A 
HETATM   16  C   UNL     1      44.356 -10.096  10.747  1.00  0.00     0.001 A 
HETATM   17  C   UNL     1      44.651  -8.992   9.950  1.00  0.00     0.000 A 
HETATM   18  C   UNL     1      43.639  -8.106   9.588  1.00  0.00     0.001 A 
HETATM   19  C   UNL     1      42.330  -8.322  10.022  1.00  0.00     0.007 A 
ENDBRANCH  13  14
ENDBRANCH  12  13
ENDBRANCH   9  12
ENDBRANCH   7   8
ENDBRANCH   6   7
ENDBRANCH   2   6
BRANCH   1  20
HETATM   20  C   UNL     1      42.877 -12.894   4.110  1.00  0.00     0.128 C 
HETATM   21  C   UNL     1      42.540 -12.752   2.637  1.00  0.00     0.027 C 
ENDBRANCH   1  20
BRANCH   5  22
HETATM   22  C   UNL     1      42.238 -16.055   4.479  1.00  0.00     0.012 A 
HETATM   23  C   UNL     1      41.906 -16.482   3.182  1.00  0.00     0.018 A 
HETATM   24  C   UNL     1      42.551 -17.570   2.583  1.00  0.00     0.037 A 
HETATM   25  C   UNL     1      43.547 -18.264   3.264  1.00  0.00     0.068 A 
HETATM   26  C   UNL     1      43.893 -17.853   4.548  1.00  0.00     0.037 A 
HETATM   27  C   UNL     1      43.255 -16.750   5.142  1.00  0.00     0.018 A 
BRANCH  25  28
HETATM   28  O   UNL     1      44.103 -19.301   2.568  1.00  0.00    -0.356 OA
HETATM   29  C   UNL     1      43.758 -20.616   2.984  1.00  0.00     0.210 C 
ENDBRANCH  25  28
ENDBRANCH   5  22
TORSDOF 9
ENDMDL
MODEL 9
REMARK VINA RESULT:      -7.1      8.581     10.805
REMARK  9 active torsions:
REMARK  status: ('A' for Active; 'I' for Inactive)
REMARK    1  A    between atoms: C_2  and  N_3 
REMARK    2  A    between atoms: C_4  and  S_5 
REMARK    3  A    between atoms: S_5  and  C_6 
REMARK    4  A    between atoms: C_6  and  C_7 
REMARK       I    between atoms: C_7  and  N_8 
REMARK    5  A    between atoms: N_8  and  C_9 
REMARK    6  A    between atoms: C_9  and  C_10 
REMARK    7  A    between atoms: C_10  and  C_11 
REMARK    8  A    between atoms: C_20  and  C_21 
REMARK    9  A    between atoms: C_24  and  O_25 
ROOT
HETATM    1  N   UNL     1      40.594 -12.149  -0.731  1.00  0.00    -0.308 N 
HETATM    2  C   UNL     1      40.708 -12.903   0.411  1.00  0.00     0.192 A 
HETATM    3  N   UNL     1      41.383 -12.247   1.320  1.00  0.00    -0.122 NA
HETATM    4  N   UNL     1      41.688 -11.025   0.797  1.00  0.00    -0.128 NA
HETATM    5  C   UNL     1      41.214 -10.941  -0.440  1.00  0.00     0.164 A 
ENDROOT
BRANCH   2   6
HETATM    6  S   UNL     1      40.038 -14.483   0.626  1.00  0.00    -0.081 SA
BRANCH   6   7
HETATM    7  C   UNL     1      39.758 -14.502   2.418  1.00  0.00     0.185 C 
BRANCH   7   8
HETATM    8  C   UNL     1      40.790 -15.343   3.144  1.00  0.00     0.227 C 
HETATM    9  N   UNL     1      42.103 -15.069   2.822  1.00  0.00    -0.360 N 
HETATM   10  H   UNL     1      42.290 -14.336   2.137  1.00  0.00     0.162 HD
HETATM   11  O   UNL     1      40.466 -16.237   3.923  1.00  0.00    -0.273 OA
BRANCH   9  12
HETATM   12  C   UNL     1      43.184 -15.930   3.255  1.00  0.00     0.127 C 
BRANCH  12  13
HETATM   13  C   UNL     1      43.426 -17.091   2.292  1.00  0.00     0.058 C 
BRANCH  13  14
HETATM   14  C   UNL     1      43.611 -18.394   3.028  1.00  0.00    -0.057 A 
HETATM   15  C   UNL     1      43.961 -18.397   4.386  1.00  0.00     0.007 A 
HETATM   16  C   UNL     1      44.165 -19.601   5.062  1.00  0.00     0.001 A 
HETATM   17  C   UNL     1      44.025 -20.812   4.388  1.00  0.00     0.000 A 
HETATM   18  C   UNL     1      43.682 -20.821   3.038  1.00  0.00     0.001 A 
HETATM   19  C   UNL     1      43.477 -19.618   2.360  1.00  0.00     0.007 A 
ENDBRANCH  13  14
ENDBRANCH  12  13
ENDBRANCH   9  12
ENDBRANCH   7   8
ENDBRANCH   6   7
ENDBRANCH   2   6
BRANCH   1  20
HETATM   20  C   UNL     1      39.953 -12.565  -1.961  1.00  0.00     0.128 C 
HETATM   21  C   UNL     1      40.925 -13.045  -3.023  1.00  0.00     0.027 C 
ENDBRANCH   1  20
BRANCH   5  22
HETATM   22  C   UNL     1      41.317  -9.709  -1.242  1.00  0.00     0.012 A 
HETATM   23  C   UNL     1      42.264  -8.749  -0.847  1.00  0.00     0.018 A 
HETATM   24  C   UNL     1      42.455  -7.567  -1.572  1.00  0.00     0.037 A 
HETATM   25  C   UNL     1      41.703  -7.309  -2.714  1.00  0.00     0.068 A 
HETATM   26  C   UNL     1      40.761  -8.250  -3.125  1.00  0.00     0.037 A 
HETATM   27  C   UNL     1      40.583  -9.443  -2.403  1.00  0.00     0.018 A 
BRANCH  25  28
HETATM   28  O   UNL     1      41.988  -6.126  -3.335  1.00  0.00    -0.356 OA
HETATM   29  C   UNL     1      42.644  -6.199  -4.595  1.00  0.00     0.210 C 
ENDBRANCH  25  28
ENDBRANCH   5  22
TORSDOF 9
ENDMDL
MODEL 10
REMARK VINA RESULT:      -7.0      3.314     10.081
REMARK  9 active torsions:
REMARK  status: ('A' for Active; 'I' for Inactive)
REMARK    1  A    between atoms: C_2  and  N_3 
REMARK    2  A    between atoms: C_4  and  S_5 
REMARK    3  A    between atoms: S_5  and  C_6 
REMARK    4  A    between atoms: C_6  and  C_7 
REMARK       I    between atoms: C_7  and  N_8 
REMARK    5  A    between atoms: N_8  and  C_9 
REMARK    6  A    between atoms: C_9  and  C_10 
REMARK    7  A    between atoms: C_10  and  C_11 
REMARK    8  A    between atoms: C_20  and  C_21 
REMARK    9  A    between atoms: C_24  and  O_25 
ROOT
HETATM    1  N   UNL     1      42.697 -13.361   4.943  1.00  0.00    -0.308 N 
HETATM    2  C   UNL     1      42.237 -12.227   4.319  1.00  0.00     0.192 A 
HETATM    3  N   UNL     1      42.121 -12.434   3.033  1.00  0.00    -0.122 NA
HETATM    4  N   UNL     1      42.466 -13.732   2.797  1.00  0.00    -0.128 NA
HETATM    5  C   UNL     1      42.811 -14.314   3.939  1.00  0.00     0.164 A 
ENDROOT
BRANCH   2   6
HETATM    6  S   UNL     1      41.847 -10.745   5.121  1.00  0.00    -0.081 SA
BRANCH   6   7
HETATM    7  C   UNL     1      40.275 -11.181   5.913  1.00  0.00     0.185 C 
BRANCH   7   8
HETATM    8  C   UNL     1      39.892 -10.191   6.997  1.00  0.00     0.227 C 
HETATM    9  N   UNL     1      40.897  -9.879   7.888  1.00  0.00    -0.360 N 
HETATM   10  H   UNL     1      41.810 -10.320   7.762  1.00  0.00     0.162 HD
HETATM   11  O   UNL     1      38.751  -9.746   7.094  1.00  0.00    -0.273 OA
BRANCH   9  12
HETATM   12  C   UNL     1      40.629  -9.132   9.099  1.00  0.00     0.127 C 
BRANCH  12  13
HETATM   13  C   UNL     1      41.651  -9.418  10.198  1.00  0.00     0.058 C 
BRANCH  13  14
HETATM   14  C   UNL     1      43.065  -9.305   9.686  1.00  0.00    -0.057 A 
HETATM   15  C   UNL     1      43.932 -10.405   9.751  1.00  0.00     0.007 A 
HETATM   16  C   UNL     1      45.251 -10.295   9.309  1.00  0.00     0.001 A 
HETATM   17  C   UNL     1      45.717  -9.085   8.800  1.00  0.00     0.000 A 
HETATM   18  C   UNL     1      44.865  -7.984   8.734  1.00  0.00     0.001 A 
HETATM   19  C   UNL     1      43.546  -8.092   9.177  1.00  0.00     0.007 A 
ENDBRANCH  13  14
ENDBRANCH  12  13
ENDBRANCH   9  12
ENDBRANCH   7   8
ENDBRANCH   6   7
ENDBRANCH   2   6
BRANCH   1  20
HETATM   20  C   UNL     1      42.990 -13.493   6.354  1.00  0.00     0.128 C 
HETATM   21  C   UNL     1      44.336 -12.920   6.755  1.00  0.00     0.027 C 
ENDBRANCH   1  20
BRANCH   5  22
HETATM   22  C   UNL     1      43.160 -15.744   4.023  1.00  0.00     0.012 A 
HETATM   23  C   UNL     1      43.009 -16.522   2.862  1.00  0.00     0.018 A 
HETATM   24  C   UNL     1      43.351 -17.878   2.841  1.00  0.00     0.037 A 
HETATM   25  C   UNL     1      43.855 -18.499   3.981  1.00  0.00     0.068 A 
HETATM   26  C   UNL     1      44.016 -17.744   5.140  1.00  0.00     0.037 A 
HETATM   27  C   UNL     1      43.685 -16.377   5.154  1.00  0.00     0.018 A 
BRANCH  25  28
HETATM   28  O   UNL     1      44.156 -19.823   3.829  1.00  0.00    -0.356 OA
HETATM   29  C   UNL     1      44.430 -20.563   5.013  1.00  0.00     0.210 C 
ENDBRANCH  25  28
ENDBRANCH   5  22
TORSDOF 9
ENDMDL
