MODEL 1
REMARK VINA RESULT:      -8.6      0.000      0.000
REMARK  9 active torsions:
REMARK  status: ('A' for Active; 'I' for Inactive)
REMARK    1  A    between atoms: C_2  and  O_3 
REMARK    2  A    between atoms: O_3  and  C_4 
REMARK    3  A    between atoms: C_7  and  N_8 
REMARK       I    between atoms: N_8  and  C_9 
REMARK    4  A    between atoms: C_9  and  C_10 
REMARK    5  A    between atoms: C_10  and  S_11 
REMARK    6  A    between atoms: S_11  and  C_12 
REMARK    7  A    between atoms: C_16  and  C_17 
REMARK       I    between atoms: C_17  and  N_18 
REMARK    8  A    between atoms: N_18  and  C_19 
REMARK    9  A    between atoms: C_27  and  C_28 
ROOT
HETATM    1  C   UNL     1      40.168 -10.592   0.738  1.00  0.00     0.087 C 
HETATM    2  N   UNL     1      39.430 -11.193   1.743  1.00  0.00    -0.353 N 
HETATM    3  C   UNL     1      39.436 -12.551   1.992  1.00  0.00     0.019 C 
HETATM    4  C   UNL     1      38.829 -12.979   3.305  1.00  0.00     0.069 C 
HETATM    5  C   UNL     1      40.006 -13.373   1.080  1.00  0.00     0.046 C 
HETATM    6  C   UNL     1      40.367 -12.851  -0.318  1.00  0.00     0.104 C 
HETATM    7  C   UNL     1      40.581 -11.332  -0.322  1.00  0.00     0.055 C 
HETATM    8  C   UNL     1      41.129 -10.667  -1.574  1.00  0.00     0.019 C 
HETATM    9  N   UNL     1      41.585 -10.115  -2.611  1.00  0.00    -0.096 N 
HETATM   10  H   UNL     1      39.141 -10.573   2.498  1.00  0.00     0.166 HD
ENDROOT
BRANCH   1  11
HETATM   11  S   UNL     1      40.675  -8.923   0.955  1.00  0.00    -0.102 SA
BRANCH  11  12
HETATM   12  C   UNL     1      40.099  -8.790   2.685  1.00  0.00     0.184 C 
BRANCH  12  13
HETATM   13  C   UNL     1      41.210  -8.802   3.711  1.00  0.00     0.231 C 
HETATM   14  N   UNL     1      41.725 -10.056   3.968  1.00  0.00    -0.327 N 
HETATM   15  H   UNL     1      41.570 -10.762   3.256  1.00  0.00     0.169 HD
HETATM   16  O   UNL     1      41.501  -7.763   4.301  1.00  0.00    -0.272 OA
BRANCH  14  17
HETATM   17  C   UNL     1      42.486 -10.437   5.090  1.00  0.00     0.034 A 
HETATM   18  C   UNL     1      43.632 -11.230   5.012  1.00  0.00     0.032 A 
HETATM   19  C   UNL     1      44.383 -11.499   6.159  1.00  0.00     0.039 A 
HETATM   20  C   UNL     1      44.004 -10.985   7.399  1.00  0.00     0.068 A 
HETATM   21  C   UNL     1      42.846 -10.213   7.486  1.00  0.00     0.039 A 
HETATM   22  C   UNL     1      42.097  -9.934   6.336  1.00  0.00     0.032 A 
BRANCH  20  23
HETATM   23  O   UNL     1      44.842 -11.303   8.429  1.00  0.00    -0.352 OA
BRANCH  23  24
HETATM   24  C   UNL     1      45.553 -10.227   9.040  1.00  0.00     0.171 C 
HETATM   25  C   UNL     1      45.051 -10.087  10.466  1.00  0.00     0.034 C 
ENDBRANCH  23  24
ENDBRANCH  20  23
ENDBRANCH  14  17
ENDBRANCH  12  13
ENDBRANCH  11  12
ENDBRANCH   1  11
BRANCH   6  26
HETATM   26  C   UNL     1      39.332 -13.292  -1.351  1.00  0.00    -0.042 A 
HETATM   27  C   UNL     1      39.580 -14.332  -2.257  1.00  0.00     0.027 A 
HETATM   28  C   UNL     1      38.602 -14.663  -3.184  1.00  0.00     0.116 A 
HETATM   29  N   UNL     1      37.416 -14.029  -3.283  1.00  0.00    -0.273 NA
HETATM   30  C   UNL     1      37.200 -13.016  -2.419  1.00  0.00     0.116 A 
HETATM   31  C   UNL     1      38.108 -12.619  -1.449  1.00  0.00     0.027 A 
ENDBRANCH   6  26
BRANCH   5  32
HETATM   32  C   UNL     1      40.445 -14.760   1.423  1.00  0.00     0.255 C 
HETATM   33  N   UNL     1      41.614 -14.756   2.166  1.00  0.00    -0.323 N 
HETATM   34  H   UNL     1      42.013 -13.853   2.381  1.00  0.00     0.169 HD
HETATM   35  O   UNL     1      39.859 -15.733   0.973  1.00  0.00    -0.268 OA
BRANCH  33  36
HETATM   36  C   UNL     1      42.318 -15.852   2.699  1.00  0.00     0.035 A 
HETATM   37  C   UNL     1      42.976 -16.810   1.930  1.00  0.00     0.031 A 
HETATM   38  C   UNL     1      43.649 -17.869   2.551  1.00  0.00     0.026 A 
HETATM   39  C   UNL     1      43.655 -17.977   3.941  1.00  0.00     0.034 A 
HETATM   40 CL   UNL     1      44.476 -19.283   4.700  1.00  0.00    -0.084 Cl
HETATM   41  C   UNL     1      42.997 -17.030   4.718  1.00  0.00     0.026 A 
HETATM   42  C   UNL     1      42.336 -15.968   4.098  1.00  0.00     0.031 A 
ENDBRANCH  33  36
ENDBRANCH   5  32
TORSDOF 9
ENDMDL
MODEL 2
REMARK VINA RESULT:      -8.6      1.179      1.837
REMARK  9 active torsions:
REMARK  status: ('A' for Active; 'I' for Inactive)
REMARK    1  A    between atoms: C_2  and  O_3 
REMARK    2  A    between atoms: O_3  and  C_4 
REMARK    3  A    between atoms: C_7  and  N_8 
REMARK       I    between atoms: N_8  and  C_9 
REMARK    4  A    between atoms: C_9  and  C_10 
REMARK    5  A    between atoms: C_10  and  S_11 
REMARK    6  A    between atoms: S_11  and  C_12 
REMARK    7  A    between atoms: C_16  and  C_17 
REMARK       I    between atoms: C_17  and  N_18 
REMARK    8  A    between atoms: N_18  and  C_19 
REMARK    9  A    between atoms: C_27  and  C_28 
ROOT
HETATM    1  C   UNL     1      40.170 -10.495   0.665  1.00  0.00     0.087 C 
HETATM    2  N   UNL     1      39.435 -11.101   1.669  1.00  0.00    -0.353 N 
HETATM    3  C   UNL     1      39.430 -12.462   1.901  1.00  0.00     0.019 C 
HETATM    4  C   UNL     1      38.830 -12.901   3.214  1.00  0.00     0.069 C 
HETATM    5  C   UNL     1      39.985 -13.277   0.974  1.00  0.00     0.046 C 
HETATM    6  C   UNL     1      40.340 -12.742  -0.420  1.00  0.00     0.104 C 
HETATM    7  C   UNL     1      40.567 -11.225  -0.407  1.00  0.00     0.055 C 
HETATM    8  C   UNL     1      41.112 -10.550  -1.655  1.00  0.00     0.019 C 
HETATM    9  N   UNL     1      41.563  -9.989  -2.690  1.00  0.00    -0.096 N 
HETATM   10  H   UNL     1      39.158 -10.488   2.434  1.00  0.00     0.166 HD
ENDROOT
BRANCH   1  11
HETATM   11  S   UNL     1      40.694  -8.832   0.898  1.00  0.00    -0.102 SA
BRANCH  11  12
HETATM   12  C   UNL     1      39.696  -8.546   2.403  1.00  0.00     0.184 C 
BRANCH  12  13
HETATM   13  C   UNL     1      40.233  -9.226   3.643  1.00  0.00     0.231 C 
HETATM   14  N   UNL     1      41.604  -9.380   3.650  1.00  0.00    -0.327 N 
HETATM   15  H   UNL     1      42.130  -8.767   3.037  1.00  0.00     0.169 HD
HETATM   16  O   UNL     1      39.448  -9.671   4.478  1.00  0.00    -0.272 OA
BRANCH  14  17
HETATM   17  C   UNL     1      42.346 -10.263   4.459  1.00  0.00     0.034 A 
HETATM   18  C   UNL     1      42.554 -10.068   5.825  1.00  0.00     0.032 A 
HETATM   19  C   UNL     1      43.230 -11.030   6.580  1.00  0.00     0.039 A 
HETATM   20  C   UNL     1      43.709 -12.198   5.986  1.00  0.00     0.068 A 
HETATM   21  C   UNL     1      43.525 -12.385   4.617  1.00  0.00     0.039 A 
HETATM   22  C   UNL     1      42.840 -11.427   3.860  1.00  0.00     0.032 A 
BRANCH  20  23
HETATM   23  O   UNL     1      44.325 -13.064   6.844  1.00  0.00    -0.352 OA
BRANCH  23  24
HETATM   24  C   UNL     1      44.071 -14.454   6.653  1.00  0.00     0.171 C 
HETATM   25  C   UNL     1      42.853 -14.823   7.481  1.00  0.00     0.034 C 
ENDBRANCH  23  24
ENDBRANCH  20  23
ENDBRANCH  14  17
ENDBRANCH  12  13
ENDBRANCH  11  12
ENDBRANCH   1  11
BRANCH   6  26
HETATM   26  C   UNL     1      39.292 -13.161  -1.449  1.00  0.00    -0.042 A 
HETATM   27  C   UNL     1      38.020 -12.576  -1.498  1.00  0.00     0.027 A 
HETATM   28  C   UNL     1      37.110 -13.024  -2.445  1.00  0.00     0.116 A 
HETATM   29  N   UNL     1      37.368 -14.012  -3.325  1.00  0.00    -0.273 NA
HETATM   30  C   UNL     1      38.589 -14.581  -3.252  1.00  0.00     0.116 A 
HETATM   31  C   UNL     1      39.569 -14.196  -2.351  1.00  0.00     0.027 A 
ENDBRANCH   6  26
BRANCH   5  32
HETATM   32  C   UNL     1      40.415 -14.672   1.296  1.00  0.00     0.255 C 
HETATM   33  N   UNL     1      41.587 -14.689   2.034  1.00  0.00    -0.323 N 
HETATM   34  H   UNL     1      41.995 -13.792   2.259  1.00  0.00     0.169 HD
HETATM   35  O   UNL     1      39.818 -15.635   0.837  1.00  0.00    -0.268 OA
BRANCH  33  36
HETATM   36  C   UNL     1      42.284 -15.797   2.549  1.00  0.00     0.035 A 
HETATM   37  C   UNL     1      43.033 -16.682   1.773  1.00  0.00     0.031 A 
HETATM   38  C   UNL     1      43.691 -17.761   2.376  1.00  0.00     0.026 A 
HETATM   39  C   UNL     1      43.593 -17.962   3.751  1.00  0.00     0.034 A 
HETATM   40 CL   UNL     1      44.397 -19.292   4.487  1.00  0.00    -0.084 Cl
HETATM   41  C   UNL     1      42.845 -17.089   4.535  1.00  0.00     0.026 A 
HETATM   42  C   UNL     1      42.198 -16.007   3.934  1.00  0.00     0.031 A 
ENDBRANCH  33  36
ENDBRANCH   5  32
TORSDOF 9
ENDMDL
MODEL 3
REMARK VINA RESULT:      -8.5      2.765      5.197
REMARK  9 active torsions:
REMARK  status: ('A' for Active; 'I' for Inactive)
REMARK    1  A    between atoms: C_2  and  O_3 
REMARK    2  A    between atoms: O_3  and  C_4 
REMARK    3  A    between atoms: C_7  and  N_8 
REMARK       I    between atoms: N_8  and  C_9 
REMARK    4  A    between atoms: C_9  and  C_10 
REMARK    5  A    between atoms: C_10  and  S_11 
REMARK    6  A    between atoms: S_11  and  C_12 
REMARK    7  A    between atoms: C_16  and  C_17 
REMARK       I    between atoms: C_17  and  N_18 
REMARK    8  A    between atoms: N_18  and  C_19 
REMARK    9  A    between atoms: C_27  and  C_28 
ROOT
HETATM    1  C   UNL     1      39.646 -11.064   3.637  1.00  0.00     0.087 C 
HETATM    2  N   UNL     1      40.262 -11.471   2.466  1.00  0.00    -0.353 N 
HETATM    3  C   UNL     1      40.748 -12.746   2.259  1.00  0.00     0.019 C 
HETATM    4  C   UNL     1      41.096 -13.091   0.831  1.00  0.00     0.069 C 
HETATM    5  C   UNL     1      40.838 -13.584   3.318  1.00  0.00     0.046 C 
HETATM    6  C   UNL     1      40.689 -13.047   4.748  1.00  0.00     0.104 C 
HETATM    7  C   UNL     1      39.879 -11.744   4.787  1.00  0.00     0.055 C 
HETATM    8  C   UNL     1      39.468 -11.170   6.133  1.00  0.00     0.019 C 
HETATM    9  N   UNL     1      39.127 -10.694   7.248  1.00  0.00    -0.096 N 
HETATM   10  H   UNL     1      40.053 -10.903   1.646  1.00  0.00     0.166 HD
ENDROOT
BRANCH   1  11
HETATM   11  S   UNL     1      38.459  -9.769   3.552  1.00  0.00    -0.102 SA
BRANCH  11  12
HETATM   12  C   UNL     1      39.683  -8.411   3.567  1.00  0.00     0.184 C 
BRANCH  12  13
HETATM   13  C   UNL     1      39.981  -7.859   4.944  1.00  0.00     0.231 C 
HETATM   14  N   UNL     1      41.320  -7.869   5.276  1.00  0.00    -0.327 N 
HETATM   15  H   UNL     1      41.976  -7.917   4.504  1.00  0.00     0.169 HD
HETATM   16  O   UNL     1      39.051  -7.550   5.687  1.00  0.00    -0.272 OA
BRANCH  14  17
HETATM   17  C   UNL     1      41.865  -7.766   6.571  1.00  0.00     0.034 A 
HETATM   18  C   UNL     1      41.966  -6.563   7.272  1.00  0.00     0.032 A 
HETATM   19  C   UNL     1      42.441  -6.551   8.586  1.00  0.00     0.039 A 
HETATM   20  C   UNL     1      42.823  -7.734   9.219  1.00  0.00     0.068 A 
HETATM   21  C   UNL     1      42.748  -8.933   8.514  1.00  0.00     0.039 A 
HETATM   22  C   UNL     1      42.263  -8.949   7.200  1.00  0.00     0.032 A 
BRANCH  20  23
HETATM   23  O   UNL     1      43.242  -7.580  10.510  1.00  0.00    -0.352 OA
BRANCH  23  24
HETATM   24  C   UNL     1      42.750  -8.519  11.465  1.00  0.00     0.171 C 
HETATM   25  C   UNL     1      43.273  -8.110  12.831  1.00  0.00     0.034 C 
ENDBRANCH  23  24
ENDBRANCH  20  23
ENDBRANCH  14  17
ENDBRANCH  12  13
ENDBRANCH  11  12
ENDBRANCH   1  11
BRANCH   6  26
HETATM   26  C   UNL     1      42.052 -12.901   5.422  1.00  0.00    -0.042 A 
HETATM   27  C   UNL     1      42.454 -13.731   6.477  1.00  0.00     0.027 A 
HETATM   28  C   UNL     1      43.696 -13.524   7.058  1.00  0.00     0.116 A 
HETATM   29  N   UNL     1      44.550 -12.552   6.680  1.00  0.00    -0.273 NA
HETATM   30  C   UNL     1      44.141 -11.746   5.679  1.00  0.00     0.116 A 
HETATM   31  C   UNL     1      42.924 -11.880   5.027  1.00  0.00     0.027 A 
ENDBRANCH   6  26
BRANCH   5  32
HETATM   32  C   UNL     1      40.933 -15.066   3.155  1.00  0.00     0.255 C 
HETATM   33  N   UNL     1      42.234 -15.516   3.314  1.00  0.00    -0.323 N 
HETATM   34  H   UNL     1      42.935 -14.816   3.515  1.00  0.00     0.169 HD
HETATM   35  O   UNL     1      39.962 -15.724   2.812  1.00  0.00    -0.268 OA
BRANCH  33  36
HETATM   36  C   UNL     1      42.719 -16.836   3.264  1.00  0.00     0.035 A 
HETATM   37  C   UNL     1      42.586 -17.679   2.161  1.00  0.00     0.031 A 
HETATM   38  C   UNL     1      43.099 -18.981   2.207  1.00  0.00     0.026 A 
HETATM   39  C   UNL     1      43.735 -19.444   3.357  1.00  0.00     0.034 A 
HETATM   40 CL   UNL     1      44.357 -21.047   3.411  1.00  0.00    -0.084 Cl
HETATM   41  C   UNL     1      43.868 -18.614   4.465  1.00  0.00     0.026 A 
HETATM   42  C   UNL     1      43.366 -17.312   4.415  1.00  0.00     0.031 A 
ENDBRANCH  33  36
ENDBRANCH   5  32
TORSDOF 9
ENDMDL
MODEL 4
REMARK VINA RESULT:      -8.4      2.913      6.631
REMARK  9 active torsions:
REMARK  status: ('A' for Active; 'I' for Inactive)
REMARK    1  A    between atoms: C_2  and  O_3 
REMARK    2  A    between atoms: O_3  and  C_4 
REMARK    3  A    between atoms: C_7  and  N_8 
REMARK       I    between atoms: N_8  and  C_9 
REMARK    4  A    between atoms: C_9  and  C_10 
REMARK    5  A    between atoms: C_10  and  S_11 
REMARK    6  A    between atoms: S_11  and  C_12 
REMARK    7  A    between atoms: C_16  and  C_17 
REMARK       I    between atoms: C_17  and  N_18 
REMARK    8  A    between atoms: N_18  and  C_19 
REMARK    9  A    between atoms: C_27  and  C_28 
ROOT
HETATM    1  C   UNL     1      38.849 -12.018   2.026  1.00  0.00     0.087 C 
HETATM    2  N   UNL     1      39.436 -12.887   1.123  1.00  0.00    -0.353 N 
HETATM    3  C   UNL     1      40.109 -14.036   1.489  1.00  0.00     0.019 C 
HETATM    4  C   UNL     1      40.403 -15.008   0.374  1.00  0.00     0.069 C 
HETATM    5  C   UNL     1      40.412 -14.218   2.796  1.00  0.00     0.046 C 
HETATM    6  C   UNL     1      40.282 -13.058   3.793  1.00  0.00     0.104 C 
HETATM    7  C   UNL     1      39.274 -12.005   3.314  1.00  0.00     0.055 C 
HETATM    8  C   UNL     1      38.874 -10.883   4.258  1.00  0.00     0.019 C 
HETATM    9  N   UNL     1      38.542  -9.953   5.041  1.00  0.00    -0.096 N 
HETATM   10  H   UNL     1      39.078 -12.830   0.171  1.00  0.00     0.166 HD
ENDROOT
BRANCH   1  11
HETATM   11  S   UNL     1      37.463 -11.074   1.499  1.00  0.00    -0.102 SA
BRANCH  11  12
HETATM   12  C   UNL     1      37.910 -11.084  -0.274  1.00  0.00     0.184 C 
BRANCH  12  13
HETATM   13  C   UNL     1      38.639  -9.843  -0.738  1.00  0.00     0.231 C 
HETATM   14  N   UNL     1      39.714 -10.098  -1.564  1.00  0.00    -0.327 N 
HETATM   15  H   UNL     1      39.719 -10.997  -2.034  1.00  0.00     0.169 HD
HETATM   16  O   UNL     1      38.313  -8.746  -0.290  1.00  0.00    -0.272 OA
BRANCH  14  17
HETATM   17  C   UNL     1      40.775  -9.219  -1.858  1.00  0.00     0.034 A 
HETATM   18  C   UNL     1      40.831  -8.436  -3.012  1.00  0.00     0.032 A 
HETATM   19  C   UNL     1      41.873  -7.524  -3.196  1.00  0.00     0.039 A 
HETATM   20  C   UNL     1      42.875  -7.380  -2.236  1.00  0.00     0.068 A 
HETATM   21  C   UNL     1      42.837  -8.178  -1.094  1.00  0.00     0.039 A 
HETATM   22  C   UNL     1      41.788  -9.085  -0.903  1.00  0.00     0.032 A 
BRANCH  20  23
HETATM   23  O   UNL     1      43.816  -6.435  -2.531  1.00  0.00    -0.352 OA
BRANCH  23  24
HETATM   24  C   UNL     1      44.147  -5.508  -1.499  1.00  0.00     0.171 C 
HETATM   25  C   UNL     1      43.097  -4.411  -1.505  1.00  0.00     0.034 C 
ENDBRANCH  23  24
ENDBRANCH  20  23
ENDBRANCH  14  17
ENDBRANCH  12  13
ENDBRANCH  11  12
ENDBRANCH   1  11
BRANCH   6  26
HETATM   26  C   UNL     1      41.648 -12.451   4.107  1.00  0.00    -0.042 A 
HETATM   27  C   UNL     1      42.535 -12.052   3.099  1.00  0.00     0.027 A 
HETATM   28  C   UNL     1      43.769 -11.531   3.458  1.00  0.00     0.116 A 
HETATM   29  N   UNL     1      44.185 -11.395   4.734  1.00  0.00    -0.273 NA
HETATM   30  C   UNL     1      43.329 -11.804   5.693  1.00  0.00     0.116 A 
HETATM   31  C   UNL     1      42.071 -12.326   5.436  1.00  0.00     0.027 A 
ENDBRANCH   6  26
BRANCH   5  32
HETATM   32  C   UNL     1      40.737 -15.564   3.358  1.00  0.00     0.255 C 
HETATM   33  N   UNL     1      42.050 -15.922   3.100  1.00  0.00    -0.323 N 
HETATM   34  H   UNL     1      42.609 -15.256   2.585  1.00  0.00     0.169 HD
HETATM   35  O   UNL     1      39.870 -16.256   3.871  1.00  0.00    -0.268 OA
BRANCH  33  36
HETATM   36  C   UNL     1      42.734 -17.089   3.487  1.00  0.00     0.035 A 
HETATM   37  C   UNL     1      43.082 -18.121   2.615  1.00  0.00     0.031 A 
HETATM   38  C   UNL     1      43.760 -19.247   3.096  1.00  0.00     0.026 A 
HETATM   39  C   UNL     1      44.081 -19.349   4.448  1.00  0.00     0.034 A 
HETATM   40 CL   UNL     1      44.908 -20.738   5.035  1.00  0.00    -0.084 Cl
HETATM   41  C   UNL     1      43.734 -18.330   5.328  1.00  0.00     0.026 A 
HETATM   42  C   UNL     1      43.067 -17.201   4.846  1.00  0.00     0.031 A 
ENDBRANCH  33  36
ENDBRANCH   5  32
TORSDOF 9
ENDMDL
MODEL 5
REMARK VINA RESULT:      -8.2      3.729      5.494
REMARK  9 active torsions:
REMARK  status: ('A' for Active; 'I' for Inactive)
REMARK    1  A    between atoms: C_2  and  O_3 
REMARK    2  A    between atoms: O_3  and  C_4 
REMARK    3  A    between atoms: C_7  and  N_8 
REMARK       I    between atoms: N_8  and  C_9 
REMARK    4  A    between atoms: C_9  and  C_10 
REMARK    5  A    between atoms: C_10  and  S_11 
REMARK    6  A    between atoms: S_11  and  C_12 
REMARK    7  A    between atoms: C_16  and  C_17 
REMARK       I    between atoms: C_17  and  N_18 
REMARK    8  A    between atoms: N_18  and  C_19 
REMARK    9  A    between atoms: C_27  and  C_28 
ROOT
HETATM    1  C   UNL     1      40.323 -10.866   6.196  1.00  0.00     0.087 C 
HETATM    2  N   UNL     1      39.996 -12.183   6.471  1.00  0.00    -0.353 N 
HETATM    3  C   UNL     1      40.557 -13.264   5.821  1.00  0.00     0.019 C 
HETATM    4  C   UNL     1      40.319 -14.609   6.461  1.00  0.00     0.069 C 
HETATM    5  C   UNL     1      41.293 -13.038   4.708  1.00  0.00     0.046 C 
HETATM    6  C   UNL     1      41.261 -11.667   4.020  1.00  0.00     0.104 C 
HETATM    7  C   UNL     1      40.866 -10.549   4.994  1.00  0.00     0.055 C 
HETATM    8  C   UNL     1      40.966  -9.102   4.538  1.00  0.00     0.019 C 
HETATM    9  N   UNL     1      41.049  -7.903   4.160  1.00  0.00    -0.096 N 
HETATM   10  H   UNL     1      39.577 -12.343   7.385  1.00  0.00     0.166 HD
ENDROOT
BRANCH   1  11
HETATM   11  S   UNL     1      40.162  -9.677   7.481  1.00  0.00    -0.102 SA
BRANCH  11  12
HETATM   12  C   UNL     1      41.906  -9.770   8.022  1.00  0.00     0.184 C 
BRANCH  12  13
HETATM   13  C   UNL     1      42.223  -8.931   9.240  1.00  0.00     0.231 C 
HETATM   14  N   UNL     1      42.462  -9.666  10.382  1.00  0.00    -0.327 N 
HETATM   15  H   UNL     1      42.725 -10.636  10.248  1.00  0.00     0.169 HD
HETATM   16  O   UNL     1      42.150  -7.705   9.167  1.00  0.00    -0.272 OA
BRANCH  14  17
HETATM   17  C   UNL     1      42.427  -9.191  11.709  1.00  0.00     0.034 A 
HETATM   18  C   UNL     1      43.334  -8.261  12.219  1.00  0.00     0.032 A 
HETATM   19  C   UNL     1      43.187  -7.774  13.521  1.00  0.00     0.039 A 
HETATM   20  C   UNL     1      42.137  -8.206  14.332  1.00  0.00     0.068 A 
HETATM   21  C   UNL     1      41.245  -9.154  13.835  1.00  0.00     0.039 A 
HETATM   22  C   UNL     1      41.385  -9.637  12.528  1.00  0.00     0.032 A 
BRANCH  20  23
HETATM   23  O   UNL     1      42.097  -7.630  15.569  1.00  0.00    -0.352 OA
BRANCH  23  24
HETATM   24  C   UNL     1      40.942  -7.888  16.366  1.00  0.00     0.171 C 
HETATM   25  C   UNL     1      40.401  -6.554  16.848  1.00  0.00     0.034 C 
ENDBRANCH  23  24
ENDBRANCH  20  23
ENDBRANCH  14  17
ENDBRANCH  12  13
ENDBRANCH  11  12
ENDBRANCH   1  11
BRANCH   6  26
HETATM   26  C   UNL     1      40.368 -11.697   2.781  1.00  0.00    -0.042 A 
HETATM   27  C   UNL     1      38.970 -11.727   2.872  1.00  0.00     0.027 A 
HETATM   28  C   UNL     1      38.222 -11.779   1.704  1.00  0.00     0.116 A 
HETATM   29  N   UNL     1      38.761 -11.818   0.469  1.00  0.00    -0.273 NA
HETATM   30  C   UNL     1      40.108 -11.811   0.397  1.00  0.00     0.116 A 
HETATM   31  C   UNL     1      40.940 -11.748   1.505  1.00  0.00     0.027 A 
ENDBRANCH   6  26
BRANCH   5  32
HETATM   32  C   UNL     1      42.273 -14.038   4.185  1.00  0.00     0.255 C 
HETATM   33  N   UNL     1      41.753 -15.322   4.206  1.00  0.00    -0.323 N 
HETATM   34  H   UNL     1      40.812 -15.425   4.558  1.00  0.00     0.169 HD
HETATM   35  O   UNL     1      43.414 -13.708   3.897  1.00  0.00    -0.268 OA
BRANCH  33  36
HETATM   36  C   UNL     1      42.353 -16.519   3.772  1.00  0.00     0.035 A 
HETATM   37  C   UNL     1      43.318 -17.220   4.495  1.00  0.00     0.031 A 
HETATM   38  C   UNL     1      43.861 -18.402   3.978  1.00  0.00     0.026 A 
HETATM   39  C   UNL     1      43.447 -18.879   2.736  1.00  0.00     0.034 A 
HETATM   40 CL   UNL     1      44.122 -20.329   2.102  1.00  0.00    -0.084 Cl
HETATM   41  C   UNL     1      42.490 -18.186   2.004  1.00  0.00     0.026 A 
HETATM   42  C   UNL     1      41.941 -17.012   2.525  1.00  0.00     0.031 A 
ENDBRANCH  33  36
ENDBRANCH   5  32
TORSDOF 9
ENDMDL
MODEL 6
REMARK VINA RESULT:      -8.0      5.852     11.019
REMARK  9 active torsions:
REMARK  status: ('A' for Active; 'I' for Inactive)
REMARK    1  A    between atoms: C_2  and  O_3 
REMARK    2  A    between atoms: O_3  and  C_4 
REMARK    3  A    between atoms: C_7  and  N_8 
REMARK       I    between atoms: N_8  and  C_9 
REMARK    4  A    between atoms: C_9  and  C_10 
REMARK    5  A    between atoms: C_10  and  S_11 
REMARK    6  A    between atoms: S_11  and  C_12 
REMARK    7  A    between atoms: C_16  and  C_17 
REMARK       I    between atoms: C_17  and  N_18 
REMARK    8  A    between atoms: N_18  and  C_19 
REMARK    9  A    between atoms: C_27  and  C_28 
ROOT
HETATM    1  C   UNL     1      41.274 -10.248   6.298  1.00  0.00     0.087 C 
HETATM    2  N   UNL     1      40.185  -9.433   6.557  1.00  0.00    -0.353 N 
HETATM    3  C   UNL     1      40.288  -8.154   7.066  1.00  0.00     0.019 C 
HETATM    4  C   UNL     1      39.037  -7.314   6.986  1.00  0.00     0.069 C 
HETATM    5  C   UNL     1      41.484  -7.746   7.550  1.00  0.00     0.046 C 
HETATM    6  C   UNL     1      42.608  -8.760   7.802  1.00  0.00     0.104 C 
HETATM    7  C   UNL     1      42.450 -10.014   6.933  1.00  0.00     0.055 C 
HETATM    8  C   UNL     1      43.570 -11.042   6.908  1.00  0.00     0.019 C 
HETATM    9  N   UNL     1      44.498 -11.893   6.886  1.00  0.00    -0.096 N 
HETATM   10  H   UNL     1      39.332  -9.678   6.057  1.00  0.00     0.166 HD
ENDROOT
BRANCH   1  11
HETATM   11  S   UNL     1      41.129 -11.462   5.034  1.00  0.00    -0.102 SA
BRANCH  11  12
HETATM   12  C   UNL     1      40.185 -12.656   6.047  1.00  0.00     0.184 C 
BRANCH  12  13
HETATM   13  C   UNL     1      40.823 -14.023   6.149  1.00  0.00     0.231 C 
HETATM   14  N   UNL     1      42.133 -14.066   5.720  1.00  0.00    -0.327 N 
HETATM   15  H   UNL     1      42.630 -13.182   5.699  1.00  0.00     0.169 HD
HETATM   16  O   UNL     1      40.140 -14.987   6.491  1.00  0.00    -0.272 OA
BRANCH  14  17
HETATM   17  C   UNL     1      42.862 -15.216   5.360  1.00  0.00     0.034 A 
HETATM   18  C   UNL     1      43.847 -15.790   6.166  1.00  0.00     0.032 A 
HETATM   19  C   UNL     1      44.470 -16.980   5.780  1.00  0.00     0.039 A 
HETATM   20  C   UNL     1      44.123 -17.614   4.587  1.00  0.00     0.068 A 
HETATM   21  C   UNL     1      43.158 -17.031   3.767  1.00  0.00     0.039 A 
HETATM   22  C   UNL     1      42.526 -15.844   4.156  1.00  0.00     0.032 A 
BRANCH  20  23
HETATM   23  O   UNL     1      44.790 -18.781   4.347  1.00  0.00    -0.352 OA
BRANCH  23  24
HETATM   24  C   UNL     1      43.996 -19.936   4.081  1.00  0.00     0.171 C 
HETATM   25  C   UNL     1      43.971 -20.784   5.340  1.00  0.00     0.034 C 
ENDBRANCH  23  24
ENDBRANCH  20  23
ENDBRANCH  14  17
ENDBRANCH  12  13
ENDBRANCH  11  12
ENDBRANCH   1  11
BRANCH   6  26
HETATM   26  C   UNL     1      42.717  -9.097   9.288  1.00  0.00    -0.042 A 
HETATM   27  C   UNL     1      43.954  -9.186   9.942  1.00  0.00     0.027 A 
HETATM   28  C   UNL     1      43.978  -9.521  11.288  1.00  0.00     0.116 A 
HETATM   29  N   UNL     1      42.875  -9.786  12.017  1.00  0.00    -0.273 NA
HETATM   30  C   UNL     1      41.694  -9.718  11.369  1.00  0.00     0.116 A 
HETATM   31  C   UNL     1      41.565  -9.381  10.030  1.00  0.00     0.027 A 
ENDBRANCH   6  26
BRANCH   5  32
HETATM   32  C   UNL     1      41.823  -6.300   7.720  1.00  0.00     0.255 C 
HETATM   33  N   UNL     1      41.503  -5.846   8.990  1.00  0.00    -0.323 N 
HETATM   34  H   UNL     1      41.096  -6.520   9.624  1.00  0.00     0.169 HD
HETATM   35  O   UNL     1      42.225  -5.634   6.778  1.00  0.00    -0.268 OA
BRANCH  33  36
HETATM   36  C   UNL     1      41.696  -4.564   9.537  1.00  0.00     0.035 A 
HETATM   37  C   UNL     1      40.921  -3.449   9.216  1.00  0.00     0.031 A 
HETATM   38  C   UNL     1      41.192  -2.212   9.812  1.00  0.00     0.026 A 
HETATM   39  C   UNL     1      42.242  -2.085  10.720  1.00  0.00     0.034 A 
HETATM   40 CL   UNL     1      42.575  -0.561  11.444  1.00  0.00    -0.084 Cl
HETATM   41  C   UNL     1      43.024  -3.188  11.043  1.00  0.00     0.026 A 
HETATM   42  C   UNL     1      42.746  -4.425  10.457  1.00  0.00     0.031 A 
ENDBRANCH  33  36
ENDBRANCH   5  32
TORSDOF 9
ENDMDL
MODEL 7
REMARK VINA RESULT:      -8.0      5.051     10.697
REMARK  9 active torsions:
REMARK  status: ('A' for Active; 'I' for Inactive)
REMARK    1  A    between atoms: C_2  and  O_3 
REMARK    2  A    between atoms: O_3  and  C_4 
REMARK    3  A    between atoms: C_7  and  N_8 
REMARK       I    between atoms: N_8  and  C_9 
REMARK    4  A    between atoms: C_9  and  C_10 
REMARK    5  A    between atoms: C_10  and  S_11 
REMARK    6  A    between atoms: S_11  and  C_12 
REMARK    7  A    between atoms: C_16  and  C_17 
REMARK       I    between atoms: C_17  and  N_18 
REMARK    8  A    between atoms: N_18  and  C_19 
REMARK    9  A    between atoms: C_27  and  C_28 
ROOT
HETATM    1  C   UNL     1      41.135  -9.940   6.753  1.00  0.00     0.087 C 
HETATM    2  N   UNL     1      42.292 -10.017   7.509  1.00  0.00    -0.353 N 
HETATM    3  C   UNL     1      42.359  -9.680   8.846  1.00  0.00     0.019 C 
HETATM    4  C   UNL     1      43.606 -10.122   9.571  1.00  0.00     0.069 C 
HETATM    5  C   UNL     1      41.311  -9.028   9.401  1.00  0.00     0.046 C 
HETATM    6  C   UNL     1      40.216  -8.420   8.515  1.00  0.00     0.104 C 
HETATM    7  C   UNL     1      40.129  -9.122   7.153  1.00  0.00     0.055 C 
HETATM    8  C   UNL     1      38.979  -8.782   6.220  1.00  0.00     0.019 C 
HETATM    9  N   UNL     1      38.025  -8.501   5.445  1.00  0.00    -0.096 N 
HETATM   10  H   UNL     1      43.010 -10.638   7.139  1.00  0.00     0.166 HD
ENDROOT
BRANCH   1  11
HETATM   11  S   UNL     1      40.955 -11.027   5.384  1.00  0.00    -0.102 SA
BRANCH  11  12
HETATM   12  C   UNL     1      42.563 -10.611   4.619  1.00  0.00     0.184 C 
BRANCH  12  13
HETATM   13  C   UNL     1      43.180 -11.737   3.820  1.00  0.00     0.231 C 
HETATM   14  N   UNL     1      42.353 -12.828   3.655  1.00  0.00    -0.327 N 
HETATM   15  H   UNL     1      41.359 -12.663   3.774  1.00  0.00     0.169 HD
HETATM   16  O   UNL     1      44.358 -11.659   3.474  1.00  0.00    -0.272 OA
BRANCH  14  17
HETATM   17  C   UNL     1      42.744 -14.131   3.288  1.00  0.00     0.034 A 
HETATM   18  C   UNL     1      42.870 -15.183   4.196  1.00  0.00     0.032 A 
HETATM   19  C   UNL     1      43.182 -16.469   3.746  1.00  0.00     0.039 A 
HETATM   20  C   UNL     1      43.374 -16.725   2.388  1.00  0.00     0.068 A 
HETATM   21  C   UNL     1      43.274 -15.671   1.481  1.00  0.00     0.039 A 
HETATM   22  C   UNL     1      42.952 -14.384   1.928  1.00  0.00     0.032 A 
BRANCH  20  23
HETATM   23  O   UNL     1      43.645 -18.028   2.086  1.00  0.00    -0.352 OA
BRANCH  23  24
HETATM   24  C   UNL     1      44.005 -18.882   3.171  1.00  0.00     0.171 C 
HETATM   25  C   UNL     1      43.694 -20.311   2.762  1.00  0.00     0.034 C 
ENDBRANCH  23  24
ENDBRANCH  20  23
ENDBRANCH  14  17
ENDBRANCH  12  13
ENDBRANCH  11  12
ENDBRANCH   1  11
BRANCH   6  26
HETATM   26  C   UNL     1      40.399  -6.910   8.376  1.00  0.00    -0.042 A 
HETATM   27  C   UNL     1      39.481  -5.996   8.909  1.00  0.00     0.027 A 
HETATM   28  C   UNL     1      39.699  -4.639   8.723  1.00  0.00     0.116 A 
HETATM   29  N   UNL     1      40.745  -4.133   8.039  1.00  0.00    -0.273 NA
HETATM   30  C   UNL     1      41.609  -5.025   7.513  1.00  0.00     0.116 A 
HETATM   31  C   UNL     1      41.484  -6.399   7.654  1.00  0.00     0.027 A 
ENDBRANCH   6  26
BRANCH   5  32
HETATM   32  C   UNL     1      41.086  -8.995  10.879  1.00  0.00     0.255 C 
HETATM   33  N   UNL     1      41.685  -7.891  11.462  1.00  0.00    -0.323 N 
HETATM   34  H   UNL     1      42.180  -7.263  10.844  1.00  0.00     0.169 HD
HETATM   35  O   UNL     1      40.531  -9.922  11.450  1.00  0.00    -0.268 OA
BRANCH  33  36
HETATM   36  C   UNL     1      41.672  -7.498  12.813  1.00  0.00     0.035 A 
HETATM   37  C   UNL     1      40.518  -7.173  13.525  1.00  0.00     0.031 A 
HETATM   38  C   UNL     1      40.606  -6.789  14.869  1.00  0.00     0.026 A 
HETATM   39  C   UNL     1      41.848  -6.720  15.498  1.00  0.00     0.034 A 
HETATM   40 CL   UNL     1      41.952  -6.241  17.147  1.00  0.00    -0.084 Cl
HETATM   41  C   UNL     1      43.006  -7.036  14.797  1.00  0.00     0.026 A 
HETATM   42  C   UNL     1      42.916  -7.430  13.460  1.00  0.00     0.031 A 
ENDBRANCH  33  36
ENDBRANCH   5  32
TORSDOF 9
ENDMDL
MODEL 8
REMARK VINA RESULT:      -7.9      2.770      5.048
REMARK  9 active torsions:
REMARK  status: ('A' for Active; 'I' for Inactive)
REMARK    1  A    between atoms: C_2  and  O_3 
REMARK    2  A    between atoms: O_3  and  C_4 
REMARK    3  A    between atoms: C_7  and  N_8 
REMARK       I    between atoms: N_8  and  C_9 
REMARK    4  A    between atoms: C_9  and  C_10 
REMARK    5  A    between atoms: C_10  and  S_11 
REMARK    6  A    between atoms: S_11  and  C_12 
REMARK    7  A    between atoms: C_16  and  C_17 
REMARK       I    between atoms: C_17  and  N_18 
REMARK    8  A    between atoms: N_18  and  C_19 
REMARK    9  A    between atoms: C_27  and  C_28 
ROOT
HETATM    1  C   UNL     1      38.904 -11.757   1.999  1.00  0.00     0.087 C 
HETATM    2  N   UNL     1      39.592 -12.530   1.080  1.00  0.00    -0.353 N 
HETATM    3  C   UNL     1      40.237 -13.708   1.400  1.00  0.00     0.019 C 
HETATM    4  C   UNL     1      40.658 -14.563   0.230  1.00  0.00     0.069 C 
HETATM    5  C   UNL     1      40.405 -14.019   2.706  1.00  0.00     0.046 C 
HETATM    6  C   UNL     1      40.158 -12.966   3.794  1.00  0.00     0.104 C 
HETATM    7  C   UNL     1      39.192 -11.872   3.320  1.00  0.00     0.055 C 
HETATM    8  C   UNL     1      38.682 -10.851   4.323  1.00  0.00     0.019 C 
HETATM    9  N   UNL     1      38.259 -10.004   5.155  1.00  0.00    -0.096 N 
HETATM   10  H   UNL     1      39.334 -12.379   0.107  1.00  0.00     0.166 HD
ENDROOT
BRANCH   1  11
HETATM   11  S   UNL     1      37.568 -10.767   1.426  1.00  0.00    -0.102 SA
BRANCH  11  12
HETATM   12  C   UNL     1      38.616  -9.397   0.820  1.00  0.00     0.184 C 
BRANCH  12  13
HETATM   13  C   UNL     1      38.943  -8.355   1.866  1.00  0.00     0.231 C 
HETATM   14  N   UNL     1      40.280  -8.293   2.200  1.00  0.00    -0.327 N 
HETATM   15  H   UNL     1      40.932  -8.676   1.524  1.00  0.00     0.169 HD
HETATM   16  O   UNL     1      38.030  -7.732   2.406  1.00  0.00    -0.272 OA
BRANCH  14  17
HETATM   17  C   UNL     1      40.831  -7.706   3.356  1.00  0.00     0.034 A 
HETATM   18  C   UNL     1      40.923  -6.327   3.552  1.00  0.00     0.032 A 
HETATM   19  C   UNL     1      41.405  -5.817   4.760  1.00  0.00     0.039 A 
HETATM   20  C   UNL     1      41.804  -6.672   5.788  1.00  0.00     0.068 A 
HETATM   21  C   UNL     1      41.738  -8.049   5.587  1.00  0.00     0.039 A 
HETATM   22  C   UNL     1      41.246  -8.562   4.380  1.00  0.00     0.032 A 
BRANCH  20  23
HETATM   23  O   UNL     1      42.228  -6.040   6.922  1.00  0.00    -0.352 OA
BRANCH  23  24
HETATM   24  C   UNL     1      41.317  -5.129   7.535  1.00  0.00     0.171 C 
HETATM   25  C   UNL     1      40.605  -5.865   8.656  1.00  0.00     0.034 C 
ENDBRANCH  23  24
ENDBRANCH  20  23
ENDBRANCH  14  17
ENDBRANCH  12  13
ENDBRANCH  11  12
ENDBRANCH   1  11
BRANCH   6  26
HETATM   26  C   UNL     1      41.476 -12.391   4.309  1.00  0.00    -0.042 A 
HETATM   27  C   UNL     1      42.480 -11.938   3.442  1.00  0.00     0.027 A 
HETATM   28  C   UNL     1      43.662 -11.451   3.980  1.00  0.00     0.116 A 
HETATM   29  N   UNL     1      43.919 -11.396   5.303  1.00  0.00    -0.273 NA
HETATM   30  C   UNL     1      42.953 -11.856   6.124  1.00  0.00     0.116 A 
HETATM   31  C   UNL     1      41.734 -12.350   5.684  1.00  0.00     0.027 A 
ENDBRANCH   6  26
BRANCH   5  32
HETATM   32  C   UNL     1      40.687 -15.415   3.162  1.00  0.00     0.255 C 
HETATM   33  N   UNL     1      42.041 -15.622   3.368  1.00  0.00    -0.323 N 
HETATM   34  H   UNL     1      42.652 -14.837   3.193  1.00  0.00     0.169 HD
HETATM   35  O   UNL     1      39.796 -16.249   3.217  1.00  0.00    -0.268 OA
BRANCH  33  36
HETATM   36  C   UNL     1      42.692 -16.784   3.822  1.00  0.00     0.035 A 
HETATM   37  C   UNL     1      42.981 -17.048   5.160  1.00  0.00     0.031 A 
HETATM   38  C   UNL     1      43.637 -18.233   5.516  1.00  0.00     0.026 A 
HETATM   39  C   UNL     1      44.012 -19.149   4.535  1.00  0.00     0.034 A 
HETATM   40 CL   UNL     1      44.823 -20.600   4.976  1.00  0.00    -0.084 Cl
HETATM   41  C   UNL     1      43.733 -18.894   3.197  1.00  0.00     0.026 A 
HETATM   42  C   UNL     1      43.070 -17.716   2.843  1.00  0.00     0.031 A 
ENDBRANCH  33  36
ENDBRANCH   5  32
TORSDOF 9
ENDMDL
MODEL 9
REMARK VINA RESULT:      -7.9      6.091     11.793
REMARK  9 active torsions:
REMARK  status: ('A' for Active; 'I' for Inactive)
REMARK    1  A    between atoms: C_2  and  O_3 
REMARK    2  A    between atoms: O_3  and  C_4 
REMARK    3  A    between atoms: C_7  and  N_8 
REMARK       I    between atoms: N_8  and  C_9 
REMARK    4  A    between atoms: C_9  and  C_10 
REMARK    5  A    between atoms: C_10  and  S_11 
REMARK    6  A    between atoms: S_11  and  C_12 
REMARK    7  A    between atoms: C_16  and  C_17 
REMARK       I    between atoms: C_17  and  N_18 
REMARK    8  A    between atoms: N_18  and  C_19 
REMARK    9  A    between atoms: C_27  and  C_28 
ROOT
HETATM    1  C   UNL     1      41.160  -9.248   8.279  1.00  0.00     0.087 C 
HETATM    2  N   UNL     1      42.112  -9.620   9.212  1.00  0.00    -0.353 N 
HETATM    3  C   UNL     1      41.972  -9.424  10.572  1.00  0.00     0.019 C 
HETATM    4  C   UNL     1      42.952 -10.167  11.446  1.00  0.00     0.069 C 
HETATM    5  C   UNL     1      40.966  -8.632  11.010  1.00  0.00     0.046 C 
HETATM    6  C   UNL     1      40.193  -7.743  10.026  1.00  0.00     0.104 C 
HETATM    7  C   UNL     1      40.255  -8.288   8.594  1.00  0.00     0.055 C 
HETATM    8  C   UNL     1      39.392  -7.645   7.520  1.00  0.00     0.019 C 
HETATM    9  N   UNL     1      38.676  -7.113   6.630  1.00  0.00    -0.096 N 
HETATM   10  H   UNL     1      42.769 -10.334   8.901  1.00  0.00     0.166 HD
ENDROOT
BRANCH   1  11
HETATM   11  S   UNL     1      41.067 -10.151   6.773  1.00  0.00    -0.102 SA
BRANCH  11  12
HETATM   12  C   UNL     1      42.696 -10.962   6.956  1.00  0.00     0.184 C 
BRANCH  12  13
HETATM   13  C   UNL     1      42.928 -12.109   5.999  1.00  0.00     0.231 C 
HETATM   14  N   UNL     1      42.383 -13.307   6.414  1.00  0.00    -0.327 N 
HETATM   15  H   UNL     1      41.637 -13.250   7.098  1.00  0.00     0.169 HD
HETATM   16  O   UNL     1      43.642 -11.940   5.011  1.00  0.00    -0.272 OA
BRANCH  14  17
HETATM   17  C   UNL     1      42.722 -14.591   5.945  1.00  0.00     0.034 A 
HETATM   18  C   UNL     1      42.048 -15.238   4.909  1.00  0.00     0.032 A 
HETATM   19  C   UNL     1      42.494 -16.477   4.441  1.00  0.00     0.039 A 
HETATM   20  C   UNL     1      43.615 -17.090   5.000  1.00  0.00     0.068 A 
HETATM   21  C   UNL     1      44.276 -16.460   6.053  1.00  0.00     0.039 A 
HETATM   22  C   UNL     1      43.837 -15.214   6.517  1.00  0.00     0.032 A 
BRANCH  20  23
HETATM   23  O   UNL     1      43.956 -18.284   4.431  1.00  0.00    -0.352 OA
BRANCH  23  24
HETATM   24  C   UNL     1      44.027 -18.324   3.007  1.00  0.00     0.171 C 
HETATM   25  C   UNL     1      43.484 -19.667   2.551  1.00  0.00     0.034 C 
ENDBRANCH  23  24
ENDBRANCH  20  23
ENDBRANCH  14  17
ENDBRANCH  12  13
ENDBRANCH  11  12
ENDBRANCH   1  11
BRANCH   6  26
HETATM   26  C   UNL     1      40.664  -6.292  10.114  1.00  0.00    -0.042 A 
HETATM   27  C   UNL     1      42.019  -5.944  10.045  1.00  0.00     0.027 A 
HETATM   28  C   UNL     1      42.376  -4.608  10.156  1.00  0.00     0.116 A 
HETATM   29  N   UNL     1      41.491  -3.607  10.345  1.00  0.00    -0.273 NA
HETATM   30  C   UNL     1      40.192  -3.960  10.431  1.00  0.00     0.116 A 
HETATM   31  C   UNL     1      39.736  -5.265  10.320  1.00  0.00     0.027 A 
ENDBRANCH   6  26
BRANCH   5  32
HETATM   32  C   UNL     1      40.461  -8.689  12.416  1.00  0.00     0.255 C 
HETATM   33  N   UNL     1      40.986  -7.666  13.189  1.00  0.00    -0.323 N 
HETATM   34  H   UNL     1      41.620  -7.028  12.728  1.00  0.00     0.169 HD
HETATM   35  O   UNL     1      39.763  -9.617  12.795  1.00  0.00    -0.268 OA
BRANCH  33  36
HETATM   36  C   UNL     1      40.731  -7.368  14.540  1.00  0.00     0.035 A 
HETATM   37  C   UNL     1      39.755  -6.472  14.975  1.00  0.00     0.031 A 
HETATM   38  C   UNL     1      39.577  -6.238  16.344  1.00  0.00     0.026 A 
HETATM   39  C   UNL     1      40.381  -6.890  17.277  1.00  0.00     0.034 A 
HETATM   40 CL   UNL     1      40.164  -6.594  18.958  1.00  0.00    -0.084 Cl
HETATM   41  C   UNL     1      41.362  -7.781  16.855  1.00  0.00     0.026 A 
HETATM   42  C   UNL     1      41.531  -8.023  15.490  1.00  0.00     0.031 A 
ENDBRANCH  33  36
ENDBRANCH   5  32
TORSDOF 9
ENDMDL
MODEL 10
REMARK VINA RESULT:      -7.7      3.791      9.089
REMARK  9 active torsions:
REMARK  status: ('A' for Active; 'I' for Inactive)
REMARK    1  A    between atoms: C_2  and  O_3 
REMARK    2  A    between atoms: O_3  and  C_4 
REMARK    3  A    between atoms: C_7  and  N_8 
REMARK       I    between atoms: N_8  and  C_9 
REMARK    4  A    between atoms: C_9  and  C_10 
REMARK    5  A    between atoms: C_10  and  S_11 
REMARK    6  A    between atoms: S_11  and  C_12 
REMARK    7  A    between atoms: C_16  and  C_17 
REMARK       I    between atoms: C_17  and  N_18 
REMARK    8  A    between atoms: N_18  and  C_19 
REMARK    9  A    between atoms: C_27  and  C_28 
ROOT
HETATM    1  C   UNL     1      40.679 -15.080   2.867  1.00  0.00     0.087 C 
HETATM    2  N   UNL     1      39.912 -14.203   3.614  1.00  0.00    -0.353 N 
HETATM    3  C   UNL     1      40.440 -13.170   4.364  1.00  0.00     0.019 C 
HETATM    4  C   UNL     1      39.450 -12.140   4.849  1.00  0.00     0.069 C 
HETATM    5  C   UNL     1      41.777 -13.138   4.569  1.00  0.00     0.046 C 
HETATM    6  C   UNL     1      42.644 -14.360   4.238  1.00  0.00     0.104 C 
HETATM    7  C   UNL     1      41.989 -15.253   3.176  1.00  0.00     0.055 C 
HETATM    8  C   UNL     1      42.786 -16.405   2.585  1.00  0.00     0.019 C 
HETATM    9  N   UNL     1      43.446 -17.360   2.095  1.00  0.00    -0.096 N 
HETATM   10  H   UNL     1      38.935 -14.136   3.337  1.00  0.00     0.166 HD
ENDROOT
BRANCH   1  11
HETATM   11  S   UNL     1      39.957 -15.820   1.445  1.00  0.00    -0.102 SA
BRANCH  11  12
HETATM   12  C   UNL     1      40.581 -14.572   0.264  1.00  0.00     0.184 C 
BRANCH  12  13
HETATM   13  C   UNL     1      39.859 -13.245   0.325  1.00  0.00     0.231 C 
HETATM   14  N   UNL     1      38.691 -13.206  -0.408  1.00  0.00    -0.327 N 
HETATM   15  H   UNL     1      38.266 -14.101  -0.627  1.00  0.00     0.169 HD
HETATM   16  O   UNL     1      40.382 -12.296   0.907  1.00  0.00    -0.272 OA
BRANCH  14  17
HETATM   17  C   UNL     1      38.005 -12.052  -0.834  1.00  0.00     0.034 A 
HETATM   18  C   UNL     1      37.887 -11.674  -2.173  1.00  0.00     0.032 A 
HETATM   19  C   UNL     1      37.120 -10.562  -2.527  1.00  0.00     0.039 A 
HETATM   20  C   UNL     1      36.461  -9.809  -1.555  1.00  0.00     0.068 A 
HETATM   21  C   UNL     1      36.596 -10.168  -0.215  1.00  0.00     0.039 A 
HETATM   22  C   UNL     1      37.356 -11.288   0.141  1.00  0.00     0.032 A 
BRANCH  20  23
HETATM   23  O   UNL     1      35.726  -8.766  -2.043  1.00  0.00    -0.352 OA
BRANCH  23  24
HETATM   24  C   UNL     1      34.406  -8.608  -1.525  1.00  0.00     0.171 C 
HETATM   25  C   UNL     1      33.495  -9.569  -2.269  1.00  0.00     0.034 C 
ENDBRANCH  23  24
ENDBRANCH  20  23
ENDBRANCH  14  17
ENDBRANCH  12  13
ENDBRANCH  11  12
ENDBRANCH   1  11
BRANCH   6  26
HETATM   26  C   UNL     1      43.002 -15.136   5.504  1.00  0.00    -0.042 A 
HETATM   27  C   UNL     1      42.250 -15.029   6.681  1.00  0.00     0.027 A 
HETATM   28  C   UNL     1      42.649 -15.745   7.800  1.00  0.00     0.116 A 
HETATM   29  N   UNL     1      43.739 -16.537   7.836  1.00  0.00    -0.273 NA
HETATM   30  C   UNL     1      44.466 -16.614   6.702  1.00  0.00     0.116 A 
HETATM   31  C   UNL     1      44.143 -15.947   5.530  1.00  0.00     0.027 A 
ENDBRANCH   6  26
BRANCH   5  32
HETATM   32  C   UNL     1      42.491 -11.889   4.977  1.00  0.00     0.255 C 
HETATM   33  N   UNL     1      42.134 -11.491   6.255  1.00  0.00    -0.323 N 
HETATM   34  H   UNL     1      41.463 -12.070   6.740  1.00  0.00     0.169 HD
HETATM   35  O   UNL     1      43.201 -11.286   4.186  1.00  0.00    -0.268 OA
BRANCH  33  36
HETATM   36  C   UNL     1      42.607 -10.392   6.995  1.00  0.00     0.035 A 
HETATM   37  C   UNL     1      43.815 -10.378   7.693  1.00  0.00     0.031 A 
HETATM   38  C   UNL     1      44.200  -9.236   8.406  1.00  0.00     0.026 A 
HETATM   39  C   UNL     1      43.376  -8.113   8.430  1.00  0.00     0.034 A 
HETATM   40 CL   UNL     1      43.850  -6.715   9.313  1.00  0.00    -0.084 Cl
HETATM   41  C   UNL     1      42.167  -8.117   7.742  1.00  0.00     0.026 A 
HETATM   42  C   UNL     1      41.788  -9.253   7.022  1.00  0.00     0.031 A 
ENDBRANCH  33  36
ENDBRANCH   5  32
TORSDOF 9
ENDMDL
