MODEL 1
REMARK VINA RESULT:      -7.6      0.000      0.000
REMARK  5 active torsions:
REMARK  status: ('A' for Active; 'I' for Inactive)
REMARK    1  A    between atoms: C_2  and  O_3 
REMARK    2  A    between atoms: O_3  and  C_4 
REMARK    3  A    between atoms: C_6  and  C_7 
REMARK    4  A    between atoms: C_7  and  N_8 
REMARK       I    between atoms: N_8  and  C_9 
REMARK       I    between atoms: C_9  and  N_10 
REMARK    5  A    between atoms: N_10  and  C_11 
ROOT
HETATM    1  N   UNL     1      42.063 -13.440   5.812  1.00  0.00    -0.335 N 
HETATM    2  C   UNL     1      42.540 -12.276   6.330  1.00  0.00     0.321 C 
HETATM    3  N   UNL     1      43.550 -12.387   7.241  1.00  0.00    -0.307 N 
HETATM    4  O   UNL     1      42.003 -11.232   5.970  1.00  0.00    -0.247 OA
HETATM    5  H   UNL     1      41.337 -13.240   5.134  1.00  0.00     0.165 HD
HETATM    6  H   UNL     1      43.673 -13.298   7.645  1.00  0.00     0.170 HD
ENDROOT
BRANCH   1   7
HETATM    7  C   UNL     1      42.697 -14.750   5.702  1.00  0.00     0.115 C 
HETATM    8  C   UNL     1      41.883 -15.785   6.478  1.00  0.00     0.037 C 
BRANCH   7   9
HETATM    9  C   UNL     1      42.858 -15.181   4.255  1.00  0.00    -0.033 A 
HETATM   10  C   UNL     1      42.819 -16.535   3.877  1.00  0.00     0.046 A 
HETATM   11  C   UNL     1      43.007 -16.928   2.548  1.00  0.00     0.069 A 
HETATM   12  C   UNL     1      43.254 -15.961   1.577  1.00  0.00     0.037 A 
HETATM   13  C   UNL     1      43.303 -14.611   1.935  1.00  0.00     0.003 A 
HETATM   14  C   UNL     1      43.107 -14.223   3.261  1.00  0.00     0.009 A 
BRANCH  11  15
HETATM   15  O   UNL     1      42.934 -18.278   2.341  1.00  0.00    -0.352 OA
BRANCH  15  16
HETATM   16  C   UNL     1      43.923 -19.089   2.974  1.00  0.00     0.171 C 
HETATM   17  C   UNL     1      43.661 -20.533   2.587  1.00  0.00     0.034 C 
ENDBRANCH  15  16
ENDBRANCH  11  15
ENDBRANCH   7   9
ENDBRANCH   1   7
BRANCH   3  18
HETATM   18  C   UNL     1      44.248 -11.323   7.862  1.00  0.00     0.059 A 
HETATM   19  C   UNL     1      45.426 -10.827   7.269  1.00  0.00    -0.032 A 
HETATM   20  C   UNL     1      45.991 -11.393   5.996  1.00  0.00     0.050 C 
HETATM   21  C   UNL     1      46.105  -9.771   7.895  1.00  0.00     0.028 A 
HETATM   22  C   UNL     1      45.597  -9.242   9.069  1.00  0.00     0.117 A 
HETATM   23  N   UNL     1      44.471  -9.684   9.656  1.00  0.00    -0.271 NA
HETATM   24  C   UNL     1      43.825 -10.710   9.044  1.00  0.00     0.146 A 
ENDBRANCH   3  18
TORSDOF 5
ENDMDL
MODEL 2
REMARK VINA RESULT:      -7.4      3.342      3.960
REMARK  5 active torsions:
REMARK  status: ('A' for Active; 'I' for Inactive)
REMARK    1  A    between atoms: C_2  and  O_3 
REMARK    2  A    between atoms: O_3  and  C_4 
REMARK    3  A    between atoms: C_6  and  C_7 
REMARK    4  A    between atoms: C_7  and  N_8 
REMARK       I    between atoms: N_8  and  C_9 
REMARK       I    between atoms: C_9  and  N_10 
REMARK    5  A    between atoms: N_10  and  C_11 
ROOT
HETATM    1  N   UNL     1      41.739 -14.992   6.362  1.00  0.00    -0.335 N 
HETATM    2  C   UNL     1      40.694 -14.122   6.298  1.00  0.00     0.321 C 
HETATM    3  N   UNL     1      41.001 -12.828   5.991  1.00  0.00    -0.307 N 
HETATM    4  O   UNL     1      39.577 -14.558   6.559  1.00  0.00    -0.247 OA
HETATM    5  H   UNL     1      41.397 -15.922   6.573  1.00  0.00     0.165 HD
HETATM    6  H   UNL     1      41.966 -12.573   6.099  1.00  0.00     0.170 HD
ENDROOT
BRANCH   1   7
HETATM    7  C   UNL     1      43.060 -14.921   5.746  1.00  0.00     0.115 C 
HETATM    8  C   UNL     1      44.034 -15.823   6.504  1.00  0.00     0.037 C 
BRANCH   7   9
HETATM    9  C   UNL     1      43.019 -15.304   4.277  1.00  0.00    -0.033 A 
HETATM   10  C   UNL     1      42.867 -16.640   3.864  1.00  0.00     0.046 A 
HETATM   11  C   UNL     1      42.870 -16.992   2.510  1.00  0.00     0.069 A 
HETATM   12  C   UNL     1      43.042 -16.001   1.547  1.00  0.00     0.037 A 
HETATM   13  C   UNL     1      43.201 -14.669   1.938  1.00  0.00     0.003 A 
HETATM   14  C   UNL     1      43.190 -14.323   3.290  1.00  0.00     0.009 A 
BRANCH  11  15
HETATM   15  O   UNL     1      42.706 -18.329   2.272  1.00  0.00    -0.352 OA
BRANCH  15  16
HETATM   16  C   UNL     1      43.742 -19.202   2.720  1.00  0.00     0.171 C 
HETATM   17  C   UNL     1      43.683 -20.465   1.880  1.00  0.00     0.034 C 
ENDBRANCH  15  16
ENDBRANCH  11  15
ENDBRANCH   7   9
ENDBRANCH   1   7
BRANCH   3  18
HETATM   18  C   UNL     1      40.085 -11.765   5.803  1.00  0.00     0.059 A 
HETATM   19  C   UNL     1      39.674 -11.427   4.499  1.00  0.00    -0.032 A 
HETATM   20  C   UNL     1      40.180 -12.144   3.279  1.00  0.00     0.050 C 
HETATM   21  C   UNL     1      38.764 -10.373   4.330  1.00  0.00     0.028 A 
HETATM   22  C   UNL     1      38.290  -9.702   5.444  1.00  0.00     0.117 A 
HETATM   23  N   UNL     1      38.654 -10.005   6.703  1.00  0.00    -0.271 NA
HETATM   24  C   UNL     1      39.539 -11.024   6.854  1.00  0.00     0.146 A 
ENDBRANCH   3  18
TORSDOF 5
ENDMDL
MODEL 3
REMARK VINA RESULT:      -7.3      1.270      2.248
REMARK  5 active torsions:
REMARK  status: ('A' for Active; 'I' for Inactive)
REMARK    1  A    between atoms: C_2  and  O_3 
REMARK    2  A    between atoms: O_3  and  C_4 
REMARK    3  A    between atoms: C_6  and  C_7 
REMARK    4  A    between atoms: C_7  and  N_8 
REMARK       I    between atoms: N_8  and  C_9 
REMARK       I    between atoms: C_9  and  N_10 
REMARK    5  A    between atoms: N_10  and  C_11 
ROOT
HETATM    1  N   UNL     1      42.485 -13.752   6.070  1.00  0.00    -0.335 N 
HETATM    2  C   UNL     1      42.841 -12.491   6.440  1.00  0.00     0.321 C 
HETATM    3  N   UNL     1      43.755 -12.391   7.448  1.00  0.00    -0.307 N 
HETATM    4  O   UNL     1      42.286 -11.555   5.872  1.00  0.00    -0.247 OA
HETATM    5  H   UNL     1      41.823 -13.709   5.304  1.00  0.00     0.165 HD
HETATM    6  H   UNL     1      43.887 -13.219   7.999  1.00  0.00     0.170 HD
ENDROOT
BRANCH   1   7
HETATM    7  C   UNL     1      43.201 -15.014   6.227  1.00  0.00     0.115 C 
HETATM    8  C   UNL     1      42.544 -15.846   7.329  1.00  0.00     0.037 C 
BRANCH   7   9
HETATM    9  C   UNL     1      43.251 -15.801   4.929  1.00  0.00    -0.033 A 
HETATM   10  C   UNL     1      42.807 -15.251   3.713  1.00  0.00     0.046 A 
HETATM   11  C   UNL     1      42.819 -15.995   2.528  1.00  0.00     0.069 A 
HETATM   12  C   UNL     1      43.267 -17.313   2.553  1.00  0.00     0.037 A 
HETATM   13  C   UNL     1      43.705 -17.878   3.753  1.00  0.00     0.003 A 
HETATM   14  C   UNL     1      43.698 -17.129   4.931  1.00  0.00     0.009 A 
BRANCH  11  15
HETATM   15  O   UNL     1      42.362 -15.319   1.430  1.00  0.00    -0.352 OA
BRANCH  15  16
HETATM   16  C   UNL     1      41.070 -14.721   1.525  1.00  0.00     0.171 C 
HETATM   17  C   UNL     1      40.035 -15.827   1.430  1.00  0.00     0.034 C 
ENDBRANCH  15  16
ENDBRANCH  11  15
ENDBRANCH   7   9
ENDBRANCH   1   7
BRANCH   3  18
HETATM   18  C   UNL     1      44.325 -11.197   7.956  1.00  0.00     0.059 A 
HETATM   19  C   UNL     1      45.511 -10.697   7.383  1.00  0.00    -0.032 A 
HETATM   20  C   UNL     1      46.218 -11.388   6.251  1.00  0.00     0.050 C 
HETATM   21  C   UNL     1      46.061  -9.513   7.896  1.00  0.00     0.028 A 
HETATM   22  C   UNL     1      45.422  -8.867   8.940  1.00  0.00     0.117 A 
HETATM   23  N   UNL     1      44.284  -9.311   9.503  1.00  0.00    -0.271 NA
HETATM   24  C   UNL     1      43.764 -10.461   9.002  1.00  0.00     0.146 A 
ENDBRANCH   3  18
TORSDOF 5
ENDMDL
MODEL 4
REMARK VINA RESULT:      -7.3      2.212      8.052
REMARK  5 active torsions:
REMARK  status: ('A' for Active; 'I' for Inactive)
REMARK    1  A    between atoms: C_2  and  O_3 
REMARK    2  A    between atoms: O_3  and  C_4 
REMARK    3  A    between atoms: C_6  and  C_7 
REMARK    4  A    between atoms: C_7  and  N_8 
REMARK       I    between atoms: N_8  and  C_9 
REMARK       I    between atoms: C_9  and  N_10 
REMARK    5  A    between atoms: N_10  and  C_11 
ROOT
HETATM    1  N   UNL     1      42.637 -13.279   5.757  1.00  0.00    -0.335 N 
HETATM    2  C   UNL     1      42.616 -14.625   5.549  1.00  0.00     0.321 C 
HETATM    3  N   UNL     1      43.313 -15.082   4.468  1.00  0.00    -0.307 N 
HETATM    4  O   UNL     1      41.944 -15.307   6.317  1.00  0.00    -0.247 OA
HETATM    5  H   UNL     1      42.110 -13.055   6.592  1.00  0.00     0.165 HD
HETATM    6  H   UNL     1      43.555 -14.389   3.783  1.00  0.00     0.170 HD
ENDROOT
BRANCH   1   7
HETATM    7  C   UNL     1      43.605 -12.277   5.322  1.00  0.00     0.115 C 
HETATM    8  C   UNL     1      42.904 -11.222   4.465  1.00  0.00     0.037 C 
BRANCH   7   9
HETATM    9  C   UNL     1      44.308 -11.622   6.497  1.00  0.00    -0.033 A 
HETATM   10  C   UNL     1      43.605 -11.209   7.644  1.00  0.00     0.046 A 
HETATM   11  C   UNL     1      44.252 -10.570   8.707  1.00  0.00     0.069 A 
HETATM   12  C   UNL     1      45.620 -10.323   8.625  1.00  0.00     0.037 A 
HETATM   13  C   UNL     1      46.334 -10.719   7.491  1.00  0.00     0.003 A 
HETATM   14  C   UNL     1      45.684 -11.364   6.436  1.00  0.00     0.009 A 
BRANCH  11  15
HETATM   15  O   UNL     1      43.433 -10.237   9.750  1.00  0.00    -0.352 OA
BRANCH  15  16
HETATM   16  C   UNL     1      44.009 -10.234  11.055  1.00  0.00     0.171 C 
HETATM   17  C   UNL     1      43.614  -8.937  11.737  1.00  0.00     0.034 C 
ENDBRANCH  15  16
ENDBRANCH  11  15
ENDBRANCH   7   9
ENDBRANCH   1   7
BRANCH   3  18
HETATM   18  C   UNL     1      43.491 -16.435   4.089  1.00  0.00     0.059 A 
HETATM   19  C   UNL     1      43.067 -16.858   2.814  1.00  0.00    -0.032 A 
HETATM   20  C   UNL     1      42.411 -15.931   1.829  1.00  0.00     0.050 C 
HETATM   21  C   UNL     1      43.254 -18.200   2.452  1.00  0.00     0.028 A 
HETATM   22  C   UNL     1      43.854 -19.066   3.350  1.00  0.00     0.117 A 
HETATM   23  N   UNL     1      44.279 -18.693   4.570  1.00  0.00    -0.271 NA
HETATM   24  C   UNL     1      44.089 -17.392   4.911  1.00  0.00     0.146 A 
ENDBRANCH   3  18
TORSDOF 5
ENDMDL
MODEL 5
REMARK VINA RESULT:      -7.3      3.846      7.309
REMARK  5 active torsions:
REMARK  status: ('A' for Active; 'I' for Inactive)
REMARK    1  A    between atoms: C_2  and  O_3 
REMARK    2  A    between atoms: O_3  and  C_4 
REMARK    3  A    between atoms: C_6  and  C_7 
REMARK    4  A    between atoms: C_7  and  N_8 
REMARK       I    between atoms: N_8  and  C_9 
REMARK       I    between atoms: C_9  and  N_10 
REMARK    5  A    between atoms: N_10  and  C_11 
ROOT
HETATM    1  N   UNL     1      41.740 -12.230   2.577  1.00  0.00    -0.335 N 
HETATM    2  C   UNL     1      40.816 -12.428   1.598  1.00  0.00     0.321 C 
HETATM    3  N   UNL     1      41.292 -12.864   0.395  1.00  0.00    -0.307 N 
HETATM    4  O   UNL     1      39.646 -12.161   1.858  1.00  0.00    -0.247 OA
HETATM    5  H   UNL     1      41.277 -11.930   3.427  1.00  0.00     0.165 HD
HETATM    6  H   UNL     1      42.279 -12.750   0.252  1.00  0.00     0.170 HD
ENDROOT
BRANCH   1   7
HETATM    7  C   UNL     1      43.072 -12.802   2.741  1.00  0.00     0.115 C 
HETATM    8  C   UNL     1      43.938 -11.862   3.582  1.00  0.00     0.037 C 
BRANCH   7   9
HETATM    9  C   UNL     1      43.021 -14.181   3.374  1.00  0.00    -0.033 A 
HETATM   10  C   UNL     1      43.174 -15.352   2.609  1.00  0.00     0.046 A 
HETATM   11  C   UNL     1      43.086 -16.621   3.192  1.00  0.00     0.069 A 
HETATM   12  C   UNL     1      42.829 -16.731   4.556  1.00  0.00     0.037 A 
HETATM   13  C   UNL     1      42.668 -15.580   5.330  1.00  0.00     0.003 A 
HETATM   14  C   UNL     1      42.764 -14.315   4.745  1.00  0.00     0.009 A 
BRANCH  11  15
HETATM   15  O   UNL     1      43.262 -17.659   2.318  1.00  0.00    -0.352 OA
BRANCH  15  16
HETATM   16  C   UNL     1      43.814 -18.865   2.842  1.00  0.00     0.171 C 
HETATM   17  C   UNL     1      43.311 -20.017   1.989  1.00  0.00     0.034 C 
ENDBRANCH  15  16
ENDBRANCH  11  15
ENDBRANCH   7   9
ENDBRANCH   1   7
BRANCH   3  18
HETATM   18  C   UNL     1      40.523 -13.202  -0.745  1.00  0.00     0.059 A 
HETATM   19  C   UNL     1      39.830 -14.427  -0.775  1.00  0.00    -0.032 A 
HETATM   20  C   UNL     1      39.879 -15.414   0.357  1.00  0.00     0.050 C 
HETATM   21  C   UNL     1      39.070 -14.746  -1.911  1.00  0.00     0.028 A 
HETATM   22  C   UNL     1      39.017 -13.848  -2.963  1.00  0.00     0.117 A 
HETATM   23  N   UNL     1      39.658 -12.665  -2.963  1.00  0.00    -0.271 NA
HETATM   24  C   UNL     1      40.394 -12.371  -1.860  1.00  0.00     0.146 A 
ENDBRANCH   3  18
TORSDOF 5
ENDMDL
MODEL 6
REMARK VINA RESULT:      -7.3      2.807      6.041
REMARK  5 active torsions:
REMARK  status: ('A' for Active; 'I' for Inactive)
REMARK    1  A    between atoms: C_2  and  O_3 
REMARK    2  A    between atoms: O_3  and  C_4 
REMARK    3  A    between atoms: C_6  and  C_7 
REMARK    4  A    between atoms: C_7  and  N_8 
REMARK       I    between atoms: N_8  and  C_9 
REMARK       I    between atoms: C_9  and  N_10 
REMARK    5  A    between atoms: N_10  and  C_11 
ROOT
HETATM    1  N   UNL     1      41.838 -13.565   5.387  1.00  0.00    -0.335 N 
HETATM    2  C   UNL     1      41.016 -13.565   4.302  1.00  0.00     0.321 C 
HETATM    3  N   UNL     1      41.625 -13.536   3.081  1.00  0.00    -0.307 N 
HETATM    4  O   UNL     1      39.806 -13.549   4.507  1.00  0.00    -0.247 OA
HETATM    5  H   UNL     1      41.285 -13.610   6.235  1.00  0.00     0.165 HD
HETATM    6  H   UNL     1      42.588 -13.255   3.082  1.00  0.00     0.170 HD
ENDROOT
BRANCH   1   7
HETATM    7  C   UNL     1      43.232 -13.980   5.510  1.00  0.00     0.115 C 
HETATM    8  C   UNL     1      43.857 -13.331   6.745  1.00  0.00     0.037 C 
BRANCH   7   9
HETATM    9  C   UNL     1      43.368 -15.491   5.580  1.00  0.00    -0.033 A 
HETATM   10  C   UNL     1      43.580 -16.269   4.427  1.00  0.00     0.046 A 
HETATM   11  C   UNL     1      43.664 -17.664   4.493  1.00  0.00     0.069 A 
HETATM   12  C   UNL     1      43.522 -18.300   5.724  1.00  0.00     0.037 A 
HETATM   13  C   UNL     1      43.303 -17.544   6.878  1.00  0.00     0.003 A 
HETATM   14  C   UNL     1      43.228 -16.151   6.808  1.00  0.00     0.009 A 
BRANCH  11  15
HETATM   15  O   UNL     1      43.879 -18.275   3.288  1.00  0.00    -0.352 OA
BRANCH  15  16
HETATM   16  C   UNL     1      43.943 -19.700   3.284  1.00  0.00     0.171 C 
HETATM   17  C   UNL     1      43.232 -20.196   2.037  1.00  0.00     0.034 C 
ENDBRANCH  15  16
ENDBRANCH  11  15
ENDBRANCH   7   9
ENDBRANCH   1   7
BRANCH   3  18
HETATM   18  C   UNL     1      40.987 -13.596   1.818  1.00  0.00     0.059 A 
HETATM   19  C   UNL     1      40.619 -14.848   1.287  1.00  0.00    -0.032 A 
HETATM   20  C   UNL     1      40.888 -16.142   2.003  1.00  0.00     0.050 C 
HETATM   21  C   UNL     1      39.985 -14.891   0.036  1.00  0.00     0.028 A 
HETATM   22  C   UNL     1      39.733 -13.707  -0.636  1.00  0.00     0.117 A 
HETATM   23  N   UNL     1      40.062 -12.496  -0.154  1.00  0.00    -0.271 NA
HETATM   24  C   UNL     1      40.679 -12.467   1.056  1.00  0.00     0.146 A 
ENDBRANCH   3  18
TORSDOF 5
ENDMDL
MODEL 7
REMARK VINA RESULT:      -7.0     16.118     17.789
REMARK  5 active torsions:
REMARK  status: ('A' for Active; 'I' for Inactive)
REMARK    1  A    between atoms: C_2  and  O_3 
REMARK    2  A    between atoms: O_3  and  C_4 
REMARK    3  A    between atoms: C_6  and  C_7 
REMARK    4  A    between atoms: C_7  and  N_8 
REMARK       I    between atoms: N_8  and  C_9 
REMARK       I    between atoms: C_9  and  N_10 
REMARK    5  A    between atoms: N_10  and  C_11 
ROOT
HETATM    1  N   UNL     1      45.099 -28.741   1.236  1.00  0.00    -0.335 N 
HETATM    2  C   UNL     1      46.456 -28.819   1.304  1.00  0.00     0.321 C 
HETATM    3  N   UNL     1      47.019 -29.979   0.856  1.00  0.00    -0.307 N 
HETATM    4  O   UNL     1      47.055 -27.867   1.795  1.00  0.00    -0.247 OA
HETATM    5  H   UNL     1      44.792 -27.835   1.570  1.00  0.00     0.165 HD
HETATM    6  H   UNL     1      46.394 -30.759   0.766  1.00  0.00     0.170 HD
ENDROOT
BRANCH   1   7
HETATM    7  C   UNL     1      44.158 -29.461   0.383  1.00  0.00     0.115 C 
HETATM    8  C   UNL     1      42.725 -29.095   0.772  1.00  0.00     0.037 C 
BRANCH   7   9
HETATM    9  C   UNL     1      44.396 -29.174  -1.089  1.00  0.00    -0.033 A 
HETATM   10  C   UNL     1      44.107 -30.126  -2.084  1.00  0.00     0.046 A 
HETATM   11  C   UNL     1      44.366 -29.871  -3.435  1.00  0.00     0.069 A 
HETATM   12  C   UNL     1      44.935 -28.655  -3.805  1.00  0.00     0.037 A 
HETATM   13  C   UNL     1      45.235 -27.700  -2.830  1.00  0.00     0.003 A 
HETATM   14  C   UNL     1      44.968 -27.957  -1.484  1.00  0.00     0.009 A 
BRANCH  11  15
HETATM   15  O   UNL     1      44.024 -30.892  -4.279  1.00  0.00    -0.352 OA
BRANCH  15  16
HETATM   16  C   UNL     1      44.278 -30.700  -5.670  1.00  0.00     0.171 C 
HETATM   17  C   UNL     1      45.518 -31.497  -6.033  1.00  0.00     0.034 C 
ENDBRANCH  15  16
ENDBRANCH  11  15
ENDBRANCH   7   9
ENDBRANCH   1   7
BRANCH   3  18
HETATM   18  C   UNL     1      48.403 -30.266   0.766  1.00  0.00     0.059 A 
HETATM   19  C   UNL     1      49.090 -29.994  -0.433  1.00  0.00    -0.032 A 
HETATM   20  C   UNL     1      48.410 -29.418  -1.644  1.00  0.00     0.050 C 
HETATM   21  C   UNL     1      50.461 -30.281  -0.506  1.00  0.00     0.028 A 
HETATM   22  C   UNL     1      51.101 -30.813   0.600  1.00  0.00     0.117 A 
HETATM   23  N   UNL     1      50.477 -31.076   1.763  1.00  0.00    -0.271 NA
HETATM   24  C   UNL     1      49.149 -30.798   1.819  1.00  0.00     0.146 A 
ENDBRANCH   3  18
TORSDOF 5
ENDMDL
MODEL 8
REMARK VINA RESULT:      -7.0      2.068      3.571
REMARK  5 active torsions:
REMARK  status: ('A' for Active; 'I' for Inactive)
REMARK    1  A    between atoms: C_2  and  O_3 
REMARK    2  A    between atoms: O_3  and  C_4 
REMARK    3  A    between atoms: C_6  and  C_7 
REMARK    4  A    between atoms: C_7  and  N_8 
REMARK       I    between atoms: N_8  and  C_9 
REMARK       I    between atoms: C_9  and  N_10 
REMARK    5  A    between atoms: N_10  and  C_11 
ROOT
HETATM    1  N   UNL     1      42.025 -14.165   2.686  1.00  0.00    -0.335 N 
HETATM    2  C   UNL     1      42.672 -13.273   3.486  1.00  0.00     0.321 C 
HETATM    3  N   UNL     1      42.238 -13.192   4.778  1.00  0.00    -0.307 N 
HETATM    4  O   UNL     1      43.557 -12.591   2.977  1.00  0.00    -0.247 OA
HETATM    5  H   UNL     1      42.441 -14.158   1.763  1.00  0.00     0.165 HD
HETATM    6  H   UNL     1      41.332 -13.587   4.957  1.00  0.00     0.170 HD
ENDROOT
BRANCH   1   7
HETATM    7  C   UNL     1      41.260 -15.357   3.036  1.00  0.00     0.115 C 
HETATM    8  C   UNL     1      40.267 -15.679   1.918  1.00  0.00     0.037 C 
BRANCH   7   9
HETATM    9  C   UNL     1      42.162 -16.550   3.301  1.00  0.00    -0.033 A 
HETATM   10  C   UNL     1      42.557 -16.903   4.604  1.00  0.00     0.046 A 
HETATM   11  C   UNL     1      43.420 -17.979   4.839  1.00  0.00     0.069 A 
HETATM   12  C   UNL     1      43.911 -18.710   3.761  1.00  0.00     0.037 A 
HETATM   13  C   UNL     1      43.534 -18.370   2.459  1.00  0.00     0.003 A 
HETATM   14  C   UNL     1      42.667 -17.300   2.230  1.00  0.00     0.009 A 
BRANCH  11  15
HETATM   15  O   UNL     1      43.705 -18.198   6.159  1.00  0.00    -0.352 OA
BRANCH  15  16
HETATM   16  C   UNL     1      43.663 -17.069   7.030  1.00  0.00     0.171 C 
HETATM   17  C   UNL     1      44.928 -16.259   6.807  1.00  0.00     0.034 C 
ENDBRANCH  15  16
ENDBRANCH  11  15
ENDBRANCH   7   9
ENDBRANCH   1   7
BRANCH   3  18
HETATM   18  C   UNL     1      42.793 -12.393   5.807  1.00  0.00     0.059 A 
HETATM   19  C   UNL     1      42.206 -11.149   6.110  1.00  0.00    -0.032 A 
HETATM   20  C   UNL     1      41.010 -10.615   5.373  1.00  0.00     0.050 C 
HETATM   21  C   UNL     1      42.766 -10.370   7.135  1.00  0.00     0.028 A 
HETATM   22  C   UNL     1      43.869 -10.848   7.822  1.00  0.00     0.117 A 
HETATM   23  N   UNL     1      44.447 -12.035   7.564  1.00  0.00    -0.271 NA
HETATM   24  C   UNL     1      43.900 -12.777   6.567  1.00  0.00     0.146 A 
ENDBRANCH   3  18
TORSDOF 5
ENDMDL
MODEL 9
REMARK VINA RESULT:      -7.0      4.623      7.715
REMARK  5 active torsions:
REMARK  status: ('A' for Active; 'I' for Inactive)
REMARK    1  A    between atoms: C_2  and  O_3 
REMARK    2  A    between atoms: O_3  and  C_4 
REMARK    3  A    between atoms: C_6  and  C_7 
REMARK    4  A    between atoms: C_7  and  N_8 
REMARK       I    between atoms: N_8  and  C_9 
REMARK       I    between atoms: C_9  and  N_10 
REMARK    5  A    between atoms: N_10  and  C_11 
ROOT
HETATM    1  N   UNL     1      41.372 -15.638   1.638  1.00  0.00    -0.335 N 
HETATM    2  C   UNL     1      40.616 -15.065   0.661  1.00  0.00     0.321 C 
HETATM    3  N   UNL     1      41.151 -13.971   0.045  1.00  0.00    -0.307 N 
HETATM    4  O   UNL     1      39.509 -15.548   0.444  1.00  0.00    -0.247 OA
HETATM    5  H   UNL     1      40.892 -16.450   2.009  1.00  0.00     0.165 HD
HETATM    6  H   UNL     1      41.913 -13.530   0.528  1.00  0.00     0.170 HD
ENDROOT
BRANCH   1   7
HETATM    7  C   UNL     1      42.813 -15.590   1.860  1.00  0.00     0.115 C 
HETATM    8  C   UNL     1      43.203 -14.226   2.429  1.00  0.00     0.037 C 
BRANCH   7   9
HETATM    9  C   UNL     1      43.280 -16.701   2.784  1.00  0.00    -0.033 A 
HETATM   10  C   UNL     1      43.619 -16.454   4.126  1.00  0.00     0.046 A 
HETATM   11  C   UNL     1      44.086 -17.475   4.962  1.00  0.00     0.069 A 
HETATM   12  C   UNL     1      44.234 -18.762   4.451  1.00  0.00     0.037 A 
HETATM   13  C   UNL     1      43.908 -19.025   3.118  1.00  0.00     0.003 A 
HETATM   14  C   UNL     1      43.435 -18.005   2.291  1.00  0.00     0.009 A 
BRANCH  11  15
HETATM   15  O   UNL     1      44.368 -17.076   6.240  1.00  0.00    -0.352 OA
BRANCH  15  16
HETATM   16  C   UNL     1      43.310 -17.154   7.193  1.00  0.00     0.171 C 
HETATM   17  C   UNL     1      43.030 -15.749   7.695  1.00  0.00     0.034 C 
ENDBRANCH  15  16
ENDBRANCH  11  15
ENDBRANCH   7   9
ENDBRANCH   1   7
BRANCH   3  18
HETATM   18  C   UNL     1      40.587 -13.250  -1.036  1.00  0.00     0.059 A 
HETATM   19  C   UNL     1      40.378 -11.864  -0.910  1.00  0.00    -0.032 A 
HETATM   20  C   UNL     1      40.716 -11.104   0.342  1.00  0.00     0.050 C 
HETATM   21  C   UNL     1      39.821 -11.163  -1.991  1.00  0.00     0.028 A 
HETATM   22  C   UNL     1      39.503 -11.851  -3.150  1.00  0.00     0.117 A 
HETATM   23  N   UNL     1      39.699 -13.172  -3.307  1.00  0.00    -0.271 NA
HETATM   24  C   UNL     1      40.233 -13.839  -2.252  1.00  0.00     0.146 A 
ENDBRANCH   3  18
TORSDOF 5
ENDMDL
MODEL 10
REMARK VINA RESULT:      -6.9      2.531      7.840
REMARK  5 active torsions:
REMARK  status: ('A' for Active; 'I' for Inactive)
REMARK    1  A    between atoms: C_2  and  O_3 
REMARK    2  A    between atoms: O_3  and  C_4 
REMARK    3  A    between atoms: C_6  and  C_7 
REMARK    4  A    between atoms: C_7  and  N_8 
REMARK       I    between atoms: N_8  and  C_9 
REMARK       I    between atoms: C_9  and  N_10 
REMARK    5  A    between atoms: N_10  and  C_11 
ROOT
HETATM    1  N   UNL     1      41.906 -13.978   4.180  1.00  0.00    -0.335 N 
HETATM    2  C   UNL     1      41.937 -15.338   4.129  1.00  0.00     0.321 C 
HETATM    3  N   UNL     1      43.028 -15.898   3.532  1.00  0.00    -0.307 N 
HETATM    4  O   UNL     1      40.971 -15.945   4.583  1.00  0.00    -0.247 OA
HETATM    5  H   UNL     1      41.068 -13.673   4.661  1.00  0.00     0.165 HD
HETATM    6  H   UNL     1      43.574 -15.281   2.958  1.00  0.00     0.170 HD
ENDROOT
BRANCH   1   7
HETATM    7  C   UNL     1      42.998 -13.011   4.120  1.00  0.00     0.115 C 
HETATM    8  C   UNL     1      42.927 -12.235   2.805  1.00  0.00     0.037 C 
BRANCH   7   9
HETATM    9  C   UNL     1      42.973 -12.056   5.300  1.00  0.00    -0.033 A 
HETATM   10  C   UNL     1      43.986 -12.059   6.276  1.00  0.00     0.046 A 
HETATM   11  C   UNL     1      43.937 -11.204   7.382  1.00  0.00     0.069 A 
HETATM   12  C   UNL     1      42.855 -10.339   7.530  1.00  0.00     0.037 A 
HETATM   13  C   UNL     1      41.836 -10.327   6.575  1.00  0.00     0.003 A 
HETATM   14  C   UNL     1      41.894 -11.177   5.468  1.00  0.00     0.009 A 
BRANCH  11  15
HETATM   15  O   UNL     1      44.998 -11.323   8.237  1.00  0.00    -0.352 OA
BRANCH  15  16
HETATM   16  C   UNL     1      45.403 -10.150   8.940  1.00  0.00     0.171 C 
HETATM   17  C   UNL     1      46.337  -9.364   8.038  1.00  0.00     0.034 C 
ENDBRANCH  15  16
ENDBRANCH  11  15
ENDBRANCH   7   9
ENDBRANCH   1   7
BRANCH   3  18
HETATM   18  C   UNL     1      43.314 -17.281   3.420  1.00  0.00     0.059 A 
HETATM   19  C   UNL     1      44.000 -17.933   4.463  1.00  0.00    -0.032 A 
HETATM   20  C   UNL     1      44.462 -17.217   5.700  1.00  0.00     0.050 C 
HETATM   21  C   UNL     1      44.273 -19.303   4.338  1.00  0.00     0.028 A 
HETATM   22  C   UNL     1      43.855 -19.976   3.203  1.00  0.00     0.117 A 
HETATM   23  N   UNL     1      43.190 -19.386   2.193  1.00  0.00    -0.271 NA
HETATM   24  C   UNL     1      42.936 -18.059   2.323  1.00  0.00     0.146 A 
ENDBRANCH   3  18
TORSDOF 5
ENDMDL
