MODEL 1
REMARK VINA RESULT:      -9.1      0.000      0.000
REMARK  3 active torsions:
REMARK  status: ('A' for Active; 'I' for Inactive)
REMARK    1  A    between atoms: C_3  and  C_4 
REMARK       I    between atoms: C_4  and  N_5 
REMARK    2  A    between atoms: N_5  and  C_6 
REMARK    3  A    between atoms: C_13  and  C_14 
REMARK       I    between atoms: C_14  and  N_15 
ROOT
HETATM    1  C   UNL     1      42.905 -12.980   5.529  1.00  0.00     0.035 A 
HETATM    2  C   UNL     1      43.843 -12.291   6.314  1.00  0.00     0.046 A 
HETATM    3  C   UNL     1      43.498 -11.049   6.885  1.00  0.00     0.030 A 
HETATM    4  C   UNL     1      42.242 -10.519   6.625  1.00  0.00     0.063 A 
HETATM    5  N   UNL     1      42.207  -9.326   7.291  1.00  0.00    -0.277 N 
HETATM    6  H   UNL     1      41.442  -8.661   7.319  1.00  0.00     0.189 HD
HETATM    7  N   UNL     1      43.324  -9.044   7.986  1.00  0.00    -0.168 NA
HETATM    8  C   UNL     1      44.130 -10.102   7.745  1.00  0.00     0.156 A 
HETATM    9  C   UNL     1      41.293 -11.167   5.832  1.00  0.00     0.034 A 
HETATM   10  C   UNL     1      41.649 -12.415   5.297  1.00  0.00     0.032 A 
ENDROOT
BRANCH   1  11
HETATM   11  N   UNL     1      43.306 -14.227   5.016  1.00  0.00    -0.325 N 
HETATM   12  C   UNL     1      43.146 -15.478   5.589  1.00  0.00     0.252 C 
HETATM   13  O   UNL     1      42.636 -15.721   6.680  1.00  0.00    -0.270 OA
HETATM   14  H   UNL     1      43.801 -14.219   4.128  1.00  0.00     0.169 HD
BRANCH  12  15
HETATM   15  C   UNL     1      43.781 -16.595   4.755  1.00  0.00     0.229 C 
HETATM   16  C   UNL     1      43.073 -16.843   3.404  1.00  0.00     0.056 C 
HETATM   17  C   UNL     1      41.563 -16.613   3.383  1.00  0.00     0.018 C 
HETATM   18  C   UNL     1      43.384 -18.294   3.272  1.00  0.00    -0.018 A 
HETATM   19  C   UNL     1      43.784 -18.793   4.503  1.00  0.00     0.076 A 
HETATM   20  C   UNL     1      43.280 -19.127   2.172  1.00  0.00     0.010 A 
HETATM   21  O   UNL     1      43.816 -17.846   5.492  1.00  0.00    -0.335 OA
HETATM   22  C   UNL     1      44.085 -20.125   4.692  1.00  0.00     0.037 A 
HETATM   23  C   UNL     1      43.993 -20.976   3.590  1.00  0.00     0.003 A 
HETATM   24  C   UNL     1      43.593 -20.480   2.337  1.00  0.00     0.001 A 
ENDBRANCH  12  15
ENDBRANCH   1  11
BRANCH   8  25
HETATM   25  C   UNL     1      45.467 -10.202   8.345  1.00  0.00     0.270 C 
HETATM   26  N   UNL     1      46.435  -9.508   7.674  1.00  0.00    -0.365 N 
HETATM   27  H   UNL     1      46.170  -8.980   6.851  1.00  0.00     0.159 HD
HETATM   28  H   UNL     1      47.379  -9.492   8.029  1.00  0.00     0.159 HD
HETATM   29  O   UNL     1      45.723 -10.836   9.364  1.00  0.00    -0.266 OA
ENDBRANCH   8  25
TORSDOF 3
ENDMDL
MODEL 2
REMARK VINA RESULT:      -8.6      4.739      7.923
REMARK  3 active torsions:
REMARK  status: ('A' for Active; 'I' for Inactive)
REMARK    1  A    between atoms: C_3  and  C_4 
REMARK       I    between atoms: C_4  and  N_5 
REMARK    2  A    between atoms: N_5  and  C_6 
REMARK    3  A    between atoms: C_13  and  C_14 
REMARK       I    between atoms: C_14  and  N_15 
ROOT
HETATM    1  C   UNL     1      42.548 -16.402   2.455  1.00  0.00     0.035 A 
HETATM    2  C   UNL     1      42.338 -16.195   3.828  1.00  0.00     0.046 A 
HETATM    3  C   UNL     1      42.873 -17.106   4.761  1.00  0.00     0.030 A 
HETATM    4  C   UNL     1      43.571 -18.211   4.293  1.00  0.00     0.063 A 
HETATM    5  N   UNL     1      43.949 -18.901   5.410  1.00  0.00    -0.277 N 
HETATM    6  H   UNL     1      44.472 -19.769   5.448  1.00  0.00     0.189 HD
HETATM    7  N   UNL     1      43.580 -18.327   6.570  1.00  0.00    -0.168 NA
HETATM    8  C   UNL     1      42.915 -17.216   6.183  1.00  0.00     0.156 A 
HETATM    9  C   UNL     1      43.781 -18.457   2.935  1.00  0.00     0.034 A 
HETATM   10  C   UNL     1      43.263 -17.522   2.025  1.00  0.00     0.032 A 
ENDROOT
BRANCH   1  11
HETATM   11  N   UNL     1      42.011 -15.437   1.583  1.00  0.00    -0.325 N 
HETATM   12  C   UNL     1      40.707 -15.328   1.130  1.00  0.00     0.252 C 
HETATM   13  O   UNL     1      39.775 -16.082   1.397  1.00  0.00    -0.270 OA
HETATM   14  H   UNL     1      42.657 -14.747   1.210  1.00  0.00     0.169 HD
BRANCH  12  15
HETATM   15  C   UNL     1      40.523 -14.182   0.129  1.00  0.00     0.229 C 
HETATM   16  C   UNL     1      40.244 -12.815   0.793  1.00  0.00     0.056 C 
HETATM   17  C   UNL     1      39.448 -12.850   2.097  1.00  0.00     0.018 C 
HETATM   18  C   UNL     1      39.430 -12.217  -0.302  1.00  0.00    -0.018 A 
HETATM   19  C   UNL     1      39.003 -13.221  -1.159  1.00  0.00     0.076 A 
HETATM   20  C   UNL     1      39.048 -10.903  -0.508  1.00  0.00     0.010 A 
HETATM   21  O   UNL     1      39.450 -14.467  -0.806  1.00  0.00    -0.335 OA
HETATM   22  C   UNL     1      38.184 -12.966  -2.239  1.00  0.00     0.037 A 
HETATM   23  C   UNL     1      37.798 -11.644  -2.465  1.00  0.00     0.003 A 
HETATM   24  C   UNL     1      38.228 -10.619  -1.604  1.00  0.00     0.001 A 
ENDBRANCH  12  15
ENDBRANCH   1  11
BRANCH   8  25
HETATM   25  C   UNL     1      42.353 -16.276   7.162  1.00  0.00     0.270 C 
HETATM   26  N   UNL     1      43.199 -15.969   8.192  1.00  0.00    -0.365 N 
HETATM   27  H   UNL     1      44.124 -16.382   8.199  1.00  0.00     0.159 HD
HETATM   28  H   UNL     1      42.912 -15.308   8.897  1.00  0.00     0.159 HD
HETATM   29  O   UNL     1      41.232 -15.784   7.087  1.00  0.00    -0.266 OA
ENDBRANCH   8  25
TORSDOF 3
ENDMDL
MODEL 3
REMARK VINA RESULT:      -8.6      5.535      6.847
REMARK  3 active torsions:
REMARK  status: ('A' for Active; 'I' for Inactive)
REMARK    1  A    between atoms: C_3  and  C_4 
REMARK       I    between atoms: C_4  and  N_5 
REMARK    2  A    between atoms: N_5  and  C_6 
REMARK    3  A    between atoms: C_13  and  C_14 
REMARK       I    between atoms: C_14  and  N_15 
ROOT
HETATM    1  C   UNL     1      40.246 -13.777  -0.335  1.00  0.00     0.035 A 
HETATM    2  C   UNL     1      40.911 -12.542  -0.292  1.00  0.00     0.046 A 
HETATM    3  C   UNL     1      40.602 -11.549  -1.244  1.00  0.00     0.030 A 
HETATM    4  C   UNL     1      39.664 -11.834  -2.226  1.00  0.00     0.063 A 
HETATM    5  N   UNL     1      39.588 -10.705  -2.993  1.00  0.00    -0.277 N 
HETATM    6  H   UNL     1      39.006 -10.555  -3.810  1.00  0.00     0.189 HD
HETATM    7  N   UNL     1      40.377  -9.696  -2.578  1.00  0.00    -0.168 NA
HETATM    8  C   UNL     1      41.008 -10.205  -1.497  1.00  0.00     0.156 A 
HETATM    9  C   UNL     1      38.999 -13.058  -2.310  1.00  0.00     0.034 A 
HETATM   10  C   UNL     1      39.303 -14.022  -1.336  1.00  0.00     0.032 A 
ENDROOT
BRANCH   1  11
HETATM   11  N   UNL     1      40.583 -14.710   0.663  1.00  0.00    -0.325 N 
HETATM   12  C   UNL     1      40.172 -14.732   1.986  1.00  0.00     0.252 C 
HETATM   13  O   UNL     1      39.444 -13.910   2.538  1.00  0.00    -0.270 OA
HETATM   14  H   UNL     1      41.230 -15.448   0.400  1.00  0.00     0.169 HD
BRANCH  12  15
HETATM   15  C   UNL     1      40.812 -15.872   2.785  1.00  0.00     0.229 C 
HETATM   16  C   UNL     1      41.870 -15.398   3.806  1.00  0.00     0.056 C 
HETATM   17  C   UNL     1      42.684 -14.168   3.412  1.00  0.00     0.018 C 
HETATM   18  C   UNL     1      42.725 -16.618   3.797  1.00  0.00    -0.018 A 
HETATM   19  C   UNL     1      42.425 -17.383   2.678  1.00  0.00     0.076 A 
HETATM   20  C   UNL     1      43.725 -17.009   4.670  1.00  0.00     0.010 A 
HETATM   21  O   UNL     1      41.427 -16.850   1.905  1.00  0.00    -0.335 OA
HETATM   22  C   UNL     1      43.100 -18.547   2.381  1.00  0.00     0.037 A 
HETATM   23  C   UNL     1      44.106 -18.958   3.258  1.00  0.00     0.003 A 
HETATM   24  C   UNL     1      44.416 -18.193   4.396  1.00  0.00     0.001 A 
ENDBRANCH  12  15
ENDBRANCH   1  11
BRANCH   8  25
HETATM   25  C   UNL     1      41.964  -9.406  -0.719  1.00  0.00     0.270 C 
HETATM   26  N   UNL     1      41.568  -9.155   0.566  1.00  0.00    -0.365 N 
HETATM   27  H   UNL     1      40.686  -9.537   0.885  1.00  0.00     0.159 HD
HETATM   28  H   UNL     1      42.173  -8.640   1.187  1.00  0.00     0.159 HD
HETATM   29  O   UNL     1      43.036  -8.992  -1.150  1.00  0.00    -0.266 OA
ENDBRANCH   8  25
TORSDOF 3
ENDMDL
MODEL 4
REMARK VINA RESULT:      -8.6      1.703      3.002
REMARK  3 active torsions:
REMARK  status: ('A' for Active; 'I' for Inactive)
REMARK    1  A    between atoms: C_3  and  C_4 
REMARK       I    between atoms: C_4  and  N_5 
REMARK    2  A    between atoms: N_5  and  C_6 
REMARK    3  A    between atoms: C_13  and  C_14 
REMARK       I    between atoms: C_14  and  N_15 
ROOT
HETATM    1  C   UNL     1      43.357 -12.985   6.006  1.00  0.00     0.035 A 
HETATM    2  C   UNL     1      42.022 -12.557   5.932  1.00  0.00     0.046 A 
HETATM    3  C   UNL     1      41.653 -11.320   6.495  1.00  0.00     0.030 A 
HETATM    4  C   UNL     1      42.620 -10.564   7.143  1.00  0.00     0.063 A 
HETATM    5  N   UNL     1      41.970  -9.446   7.586  1.00  0.00    -0.277 N 
HETATM    6  H   UNL     1      42.366  -8.674   8.110  1.00  0.00     0.189 HD
HETATM    7  N   UNL     1      40.666  -9.394   7.259  1.00  0.00    -0.168 NA
HETATM    8  C   UNL     1      40.457 -10.546   6.583  1.00  0.00     0.156 A 
HETATM    9  C   UNL     1      43.952 -10.968   7.252  1.00  0.00     0.034 A 
HETATM   10  C   UNL     1      44.302 -12.191   6.661  1.00  0.00     0.032 A 
ENDROOT
BRANCH   1  11
HETATM   11  N   UNL     1      43.661 -14.216   5.396  1.00  0.00    -0.325 N 
HETATM   12  C   UNL     1      43.429 -15.491   5.886  1.00  0.00     0.252 C 
HETATM   13  O   UNL     1      42.929 -15.777   6.971  1.00  0.00    -0.270 OA
HETATM   14  H   UNL     1      44.134 -14.178   4.498  1.00  0.00     0.169 HD
BRANCH  12  15
HETATM   15  C   UNL     1      43.967 -16.586   4.959  1.00  0.00     0.229 C 
HETATM   16  C   UNL     1      43.171 -16.734   3.643  1.00  0.00     0.056 C 
HETATM   17  C   UNL     1      41.674 -16.445   3.725  1.00  0.00     0.018 C 
HETATM   18  C   UNL     1      43.414 -18.186   3.418  1.00  0.00    -0.018 A 
HETATM   19  C   UNL     1      43.863 -18.766   4.595  1.00  0.00     0.076 A 
HETATM   20  C   UNL     1      43.211 -18.955   2.285  1.00  0.00     0.010 A 
HETATM   21  O   UNL     1      43.992 -17.875   5.628  1.00  0.00    -0.335 OA
HETATM   22  C   UNL     1      44.119 -20.117   4.698  1.00  0.00     0.037 A 
HETATM   23  C   UNL     1      43.927 -20.904   3.561  1.00  0.00     0.003 A 
HETATM   24  C   UNL     1      43.476 -20.326   2.362  1.00  0.00     0.001 A 
ENDBRANCH  12  15
ENDBRANCH   1  11
BRANCH   8  25
HETATM   25  C   UNL     1      39.141 -10.879   6.021  1.00  0.00     0.270 C 
HETATM   26  N   UNL     1      39.093 -10.854   4.655  1.00  0.00    -0.365 N 
HETATM   27  H   UNL     1      39.940 -10.632   4.144  1.00  0.00     0.159 HD
HETATM   28  H   UNL     1      38.240 -11.099   4.178  1.00  0.00     0.159 HD
HETATM   29  O   UNL     1      38.155 -11.169   6.690  1.00  0.00    -0.266 OA
ENDBRANCH   8  25
TORSDOF 3
ENDMDL
MODEL 5
REMARK VINA RESULT:      -8.0      3.202      9.276
REMARK  3 active torsions:
REMARK  status: ('A' for Active; 'I' for Inactive)
REMARK    1  A    between atoms: C_3  and  C_4 
REMARK       I    between atoms: C_4  and  N_5 
REMARK    2  A    between atoms: N_5  and  C_6 
REMARK    3  A    between atoms: C_13  and  C_14 
REMARK       I    between atoms: C_14  and  N_15 
ROOT
HETATM    1  C   UNL     1      43.539 -11.401   6.718  1.00  0.00     0.035 A 
HETATM    2  C   UNL     1      43.416 -12.725   7.170  1.00  0.00     0.046 A 
HETATM    3  C   UNL     1      43.231 -13.767   6.240  1.00  0.00     0.030 A 
HETATM    4  C   UNL     1      43.142 -13.451   4.891  1.00  0.00     0.063 A 
HETATM    5  N   UNL     1      42.955 -14.644   4.251  1.00  0.00    -0.277 N 
HETATM    6  H   UNL     1      42.841 -14.794   3.255  1.00  0.00     0.189 HD
HETATM    7  N   UNL     1      42.943 -15.716   5.064  1.00  0.00    -0.168 NA
HETATM    8  C   UNL     1      43.114 -15.187   6.296  1.00  0.00     0.156 A 
HETATM    9  C   UNL     1      43.239 -12.144   4.409  1.00  0.00     0.034 A 
HETATM   10  C   UNL     1      43.450 -11.126   5.352  1.00  0.00     0.032 A 
ENDROOT
BRANCH   1  11
HETATM   11  N   UNL     1      43.750 -10.416   7.700  1.00  0.00    -0.325 N 
HETATM   12  C   UNL     1      44.860 -10.242   8.510  1.00  0.00     0.252 C 
HETATM   13  O   UNL     1      45.867 -10.947   8.531  1.00  0.00    -0.270 OA
HETATM   14  H   UNL     1      42.990  -9.762   7.863  1.00  0.00     0.169 HD
BRANCH  12  15
HETATM   15  C   UNL     1      44.688  -9.094   9.510  1.00  0.00     0.229 C 
HETATM   16  C   UNL     1      44.474  -9.565  10.966  1.00  0.00     0.056 C 
HETATM   17  C   UNL     1      43.715 -10.878  11.145  1.00  0.00     0.018 C 
HETATM   18  C   UNL     1      43.650  -8.415  11.435  1.00  0.00    -0.018 A 
HETATM   19  C   UNL     1      43.166  -7.718  10.337  1.00  0.00     0.076 A 
HETATM   20  C   UNL     1      43.308  -8.033  12.720  1.00  0.00     0.010 A 
HETATM   21  O   UNL     1      43.580  -8.234   9.137  1.00  0.00    -0.335 OA
HETATM   22  C   UNL     1      42.327  -6.632  10.468  1.00  0.00     0.037 A 
HETATM   23  C   UNL     1      41.980  -6.231  11.759  1.00  0.00     0.003 A 
HETATM   24  C   UNL     1      42.468  -6.927  12.879  1.00  0.00     0.001 A 
ENDBRANCH  12  15
ENDBRANCH   1  11
BRANCH   8  25
HETATM   25  C   UNL     1      43.181 -16.036   7.494  1.00  0.00     0.270 C 
HETATM   26  N   UNL     1      43.203 -17.377   7.228  1.00  0.00    -0.365 N 
HETATM   27  H   UNL     1      43.188 -17.680   6.261  1.00  0.00     0.159 HD
HETATM   28  H   UNL     1      43.280 -18.038   7.986  1.00  0.00     0.159 HD
HETATM   29  O   UNL     1      43.226 -15.611   8.644  1.00  0.00    -0.266 OA
ENDBRANCH   8  25
TORSDOF 3
ENDMDL
MODEL 6
REMARK VINA RESULT:      -8.0      5.770      7.852
REMARK  3 active torsions:
REMARK  status: ('A' for Active; 'I' for Inactive)
REMARK    1  A    between atoms: C_3  and  C_4 
REMARK       I    between atoms: C_4  and  N_5 
REMARK    2  A    between atoms: N_5  and  C_6 
REMARK    3  A    between atoms: C_13  and  C_14 
REMARK       I    between atoms: C_14  and  N_15 
ROOT
HETATM    1  C   UNL     1      39.891 -13.886   0.082  1.00  0.00     0.035 A 
HETATM    2  C   UNL     1      39.177 -12.677   0.060  1.00  0.00     0.046 A 
HETATM    3  C   UNL     1      38.356 -12.370  -1.043  1.00  0.00     0.030 A 
HETATM    4  C   UNL     1      38.299 -13.264  -2.104  1.00  0.00     0.063 A 
HETATM    5  N   UNL     1      37.448 -12.696  -3.010  1.00  0.00    -0.277 N 
HETATM    6  H   UNL     1      37.175 -13.069  -3.912  1.00  0.00     0.189 HD
HETATM    7  N   UNL     1      36.921 -11.521  -2.619  1.00  0.00    -0.168 NA
HETATM    8  C   UNL     1      37.474 -11.309  -1.404  1.00  0.00     0.156 A 
HETATM    9  C   UNL     1      39.011 -14.464  -2.124  1.00  0.00     0.034 A 
HETATM   10  C   UNL     1      39.801 -14.761  -1.003  1.00  0.00     0.032 A 
ENDROOT
BRANCH   1  11
HETATM   11  N   UNL     1      40.667 -14.141   1.227  1.00  0.00    -0.325 N 
HETATM   12  C   UNL     1      40.408 -15.034   2.254  1.00  0.00     0.252 C 
HETATM   13  O   UNL     1      39.421 -15.759   2.359  1.00  0.00    -0.270 OA
HETATM   14  H   UNL     1      41.512 -13.587   1.340  1.00  0.00     0.169 HD
BRANCH  12  15
HETATM   15  C   UNL     1      41.458 -14.975   3.368  1.00  0.00     0.229 C 
HETATM   16  C   UNL     1      42.660 -15.918   3.140  1.00  0.00     0.056 C 
HETATM   17  C   UNL     1      42.360 -17.229   2.417  1.00  0.00     0.018 C 
HETATM   18  C   UNL     1      42.996 -16.172   4.569  1.00  0.00    -0.018 A 
HETATM   19  C   UNL     1      41.924 -15.799   5.367  1.00  0.00     0.076 A 
HETATM   20  C   UNL     1      44.132 -16.731   5.128  1.00  0.00     0.010 A 
HETATM   21  O   UNL     1      40.871 -15.282   4.660  1.00  0.00    -0.335 OA
HETATM   22  C   UNL     1      41.932 -15.972   6.735  1.00  0.00     0.037 A 
HETATM   23  C   UNL     1      43.075 -16.527   7.314  1.00  0.00     0.003 A 
HETATM   24  C   UNL     1      44.168 -16.904   6.515  1.00  0.00     0.001 A 
ENDBRANCH  12  15
ENDBRANCH   1  11
BRANCH   8  25
HETATM   25  C   UNL     1      37.142 -10.120  -0.607  1.00  0.00     0.270 C 
HETATM   26  N   UNL     1      37.898  -9.020  -0.901  1.00  0.00    -0.365 N 
HETATM   27  H   UNL     1      38.596  -9.093  -1.632  1.00  0.00     0.159 HD
HETATM   28  H   UNL     1      37.722  -8.148  -0.427  1.00  0.00     0.159 HD
HETATM   29  O   UNL     1      36.263 -10.082   0.248  1.00  0.00    -0.266 OA
ENDBRANCH   8  25
TORSDOF 3
ENDMDL
MODEL 7
REMARK VINA RESULT:      -7.7      6.051      7.661
REMARK  3 active torsions:
REMARK  status: ('A' for Active; 'I' for Inactive)
REMARK    1  A    between atoms: C_3  and  C_4 
REMARK       I    between atoms: C_4  and  N_5 
REMARK    2  A    between atoms: N_5  and  C_6 
REMARK    3  A    between atoms: C_13  and  C_14 
REMARK       I    between atoms: C_14  and  N_15 
ROOT
HETATM    1  C   UNL     1      40.556 -13.554  -0.520  1.00  0.00     0.035 A 
HETATM    2  C   UNL     1      40.798 -12.248  -0.976  1.00  0.00     0.046 A 
HETATM    3  C   UNL     1      39.950 -11.678  -1.947  1.00  0.00     0.030 A 
HETATM    4  C   UNL     1      38.907 -12.441  -2.454  1.00  0.00     0.063 A 
HETATM    5  N   UNL     1      38.282 -11.638  -3.366  1.00  0.00    -0.277 N 
HETATM    6  H   UNL     1      37.478 -11.871  -3.939  1.00  0.00     0.189 HD
HETATM    7  N   UNL     1      38.810 -10.406  -3.478  1.00  0.00    -0.168 NA
HETATM    8  C   UNL     1      39.841 -10.417  -2.604  1.00  0.00     0.156 A 
HETATM    9  C   UNL     1      38.650 -13.749  -2.038  1.00  0.00     0.034 A 
HETATM   10  C   UNL     1      39.492 -14.286  -1.052  1.00  0.00     0.032 A 
ENDROOT
BRANCH   1  11
HETATM   11  N   UNL     1      41.425 -14.048   0.470  1.00  0.00    -0.325 N 
HETATM   12  C   UNL     1      41.347 -13.868   1.841  1.00  0.00     0.252 C 
HETATM   13  O   UNL     1      40.502 -13.213   2.445  1.00  0.00    -0.270 OA
HETATM   14  H   UNL     1      42.228 -14.581   0.149  1.00  0.00     0.169 HD
BRANCH  12  15
HETATM   15  C   UNL     1      42.524 -14.505   2.588  1.00  0.00     0.229 C 
HETATM   16  C   UNL     1      42.584 -16.044   2.458  1.00  0.00     0.056 C 
HETATM   17  C   UNL     1      41.241 -16.764   2.356  1.00  0.00     0.018 C 
HETATM   18  C   UNL     1      43.237 -16.335   3.765  1.00  0.00    -0.018 A 
HETATM   19  C   UNL     1      43.133 -15.224   4.590  1.00  0.00     0.076 A 
HETATM   20  C   UNL     1      43.835 -17.498   4.219  1.00  0.00     0.010 A 
HETATM   21  O   UNL     1      42.498 -14.163   3.999  1.00  0.00    -0.335 OA
HETATM   22  C   UNL     1      43.604 -15.225   5.885  1.00  0.00     0.037 A 
HETATM   23  C   UNL     1      44.216 -16.388   6.354  1.00  0.00     0.003 A 
HETATM   24  C   UNL     1      44.331 -17.518   5.526  1.00  0.00     0.001 A 
ENDBRANCH  12  15
ENDBRANCH   1  11
BRANCH   8  25
HETATM   25  C   UNL     1      40.687  -9.233  -2.398  1.00  0.00     0.270 C 
HETATM   26  N   UNL     1      41.260  -8.749  -3.541  1.00  0.00    -0.365 N 
HETATM   27  H   UNL     1      41.057  -9.213  -4.419  1.00  0.00     0.159 HD
HETATM   28  H   UNL     1      41.832  -7.920  -3.504  1.00  0.00     0.159 HD
HETATM   29  O   UNL     1      40.874  -8.696  -1.311  1.00  0.00    -0.266 OA
ENDBRANCH   8  25
TORSDOF 3
ENDMDL
MODEL 8
REMARK VINA RESULT:      -7.7      2.823      8.797
REMARK  3 active torsions:
REMARK  status: ('A' for Active; 'I' for Inactive)
REMARK    1  A    between atoms: C_3  and  C_4 
REMARK       I    between atoms: C_4  and  N_5 
REMARK    2  A    between atoms: N_5  and  C_6 
REMARK    3  A    between atoms: C_13  and  C_14 
REMARK       I    between atoms: C_14  and  N_15 
ROOT
HETATM    1  C   UNL     1      43.417 -14.634   6.101  1.00  0.00     0.035 A 
HETATM    2  C   UNL     1      42.858 -14.763   4.820  1.00  0.00     0.046 A 
HETATM    3  C   UNL     1      43.010 -15.971   4.110  1.00  0.00     0.030 A 
HETATM    4  C   UNL     1      43.742 -16.999   4.688  1.00  0.00     0.063 A 
HETATM    5  N   UNL     1      43.724 -18.015   3.775  1.00  0.00    -0.277 N 
HETATM    6  H   UNL     1      44.166 -18.924   3.858  1.00  0.00     0.189 HD
HETATM    7  N   UNL     1      43.018 -17.749   2.660  1.00  0.00    -0.168 NA
HETATM    8  C   UNL     1      42.571 -16.489   2.855  1.00  0.00     0.156 A 
HETATM    9  C   UNL     1      44.328 -16.897   5.951  1.00  0.00     0.034 A 
HETATM   10  C   UNL     1      44.141 -15.695   6.650  1.00  0.00     0.032 A 
ENDROOT
BRANCH   1  11
HETATM   11  N   UNL     1      43.201 -13.411   6.763  1.00  0.00    -0.325 N 
HETATM   12  C   UNL     1      44.063 -12.332   6.865  1.00  0.00     0.252 C 
HETATM   13  O   UNL     1      45.201 -12.260   6.406  1.00  0.00    -0.270 OA
HETATM   14  H   UNL     1      42.318 -13.307   7.254  1.00  0.00     0.169 HD
BRANCH  12  15
HETATM   15  C   UNL     1      43.496 -11.203   7.732  1.00  0.00     0.229 C 
HETATM   16  C   UNL     1      42.372 -10.396   7.045  1.00  0.00     0.056 C 
HETATM   17  C   UNL     1      42.486 -10.237   5.530  1.00  0.00     0.018 C 
HETATM   18  C   UNL     1      42.606  -9.093   7.728  1.00  0.00    -0.018 A 
HETATM   19  C   UNL     1      43.864  -9.100   8.313  1.00  0.00     0.076 A 
HETATM   20  C   UNL     1      41.804  -7.968   7.793  1.00  0.00     0.010 A 
HETATM   21  O   UNL     1      44.540 -10.280   8.142  1.00  0.00    -0.335 OA
HETATM   22  C   UNL     1      44.374  -8.002   8.972  1.00  0.00     0.037 A 
HETATM   23  C   UNL     1      43.572  -6.862   9.053  1.00  0.00     0.003 A 
HETATM   24  C   UNL     1      42.295  -6.845   8.467  1.00  0.00     0.001 A 
ENDBRANCH  12  15
ENDBRANCH   1  11
BRANCH   8  25
HETATM   25  C   UNL     1      41.725 -15.812   1.863  1.00  0.00     0.270 C 
HETATM   26  N   UNL     1      42.387 -14.894   1.096  1.00  0.00    -0.365 N 
HETATM   27  H   UNL     1      43.380 -14.762   1.248  1.00  0.00     0.159 HD
HETATM   28  H   UNL     1      41.896 -14.401   0.367  1.00  0.00     0.159 HD
HETATM   29  O   UNL     1      40.529 -16.034   1.704  1.00  0.00    -0.266 OA
ENDBRANCH   8  25
TORSDOF 3
ENDMDL
MODEL 9
REMARK VINA RESULT:      -7.7      4.193      8.644
REMARK  3 active torsions:
REMARK  status: ('A' for Active; 'I' for Inactive)
REMARK    1  A    between atoms: C_3  and  C_4 
REMARK       I    between atoms: C_4  and  N_5 
REMARK    2  A    between atoms: N_5  and  C_6 
REMARK    3  A    between atoms: C_13  and  C_14 
REMARK       I    between atoms: C_14  and  N_15 
ROOT
HETATM    1  C   UNL     1      41.607 -13.379   2.798  1.00  0.00     0.035 A 
HETATM    2  C   UNL     1      41.452 -12.925   1.479  1.00  0.00     0.046 A 
HETATM    3  C   UNL     1      40.679 -13.675   0.569  1.00  0.00     0.030 A 
HETATM    4  C   UNL     1      40.115 -14.869   0.996  1.00  0.00     0.063 A 
HETATM    5  N   UNL     1      39.449 -15.363  -0.091  1.00  0.00    -0.277 N 
HETATM    6  H   UNL     1      38.924 -16.229  -0.147  1.00  0.00     0.189 HD
HETATM    7  N   UNL     1      39.507 -14.580  -1.183  1.00  0.00    -0.168 NA
HETATM    8  C   UNL     1      40.264 -13.532  -0.788  1.00  0.00     0.156 A 
HETATM    9  C   UNL     1      40.266 -15.359   2.294  1.00  0.00     0.034 A 
HETATM   10  C   UNL     1      41.016 -14.583   3.190  1.00  0.00     0.032 A 
ENDROOT
BRANCH   1  11
HETATM   11  N   UNL     1      42.366 -12.566   3.660  1.00  0.00    -0.325 N 
HETATM   12  C   UNL     1      42.008 -12.073   4.904  1.00  0.00     0.252 C 
HETATM   13  O   UNL     1      40.934 -12.242   5.476  1.00  0.00    -0.270 OA
HETATM   14  H   UNL     1      43.281 -12.275   3.327  1.00  0.00     0.169 HD
BRANCH  12  15
HETATM   15  C   UNL     1      43.081 -11.161   5.509  1.00  0.00     0.229 C 
HETATM   16  C   UNL     1      44.268 -11.927   6.134  1.00  0.00     0.056 C 
HETATM   17  C   UNL     1      43.939 -13.275   6.771  1.00  0.00     0.018 C 
HETATM   18  C   UNL     1      44.630 -10.928   7.179  1.00  0.00    -0.018 A 
HETATM   19  C   UNL     1      43.578 -10.039   7.350  1.00  0.00     0.076 A 
HETATM   20  C   UNL     1      45.770 -10.830   7.957  1.00  0.00     0.010 A 
HETATM   21  O   UNL     1      42.516 -10.283   6.518  1.00  0.00    -0.335 OA
HETATM   22  C   UNL     1      43.611  -9.035   8.294  1.00  0.00     0.037 A 
HETATM   23  C   UNL     1      44.758  -8.919   9.080  1.00  0.00     0.003 A 
HETATM   24  C   UNL     1      45.831  -9.811   8.912  1.00  0.00     0.001 A 
ENDBRANCH  12  15
ENDBRANCH   1  11
BRANCH   8  25
HETATM   25  C   UNL     1      40.561 -12.415  -1.694  1.00  0.00     0.270 C 
HETATM   26  N   UNL     1      41.324 -12.758  -2.776  1.00  0.00    -0.365 N 
HETATM   27  H   UNL     1      41.607 -13.725  -2.882  1.00  0.00     0.159 HD
HETATM   28  H   UNL     1      41.553 -12.064  -3.470  1.00  0.00     0.159 HD
HETATM   29  O   UNL     1      40.166 -11.265  -1.530  1.00  0.00    -0.266 OA
ENDBRANCH   8  25
TORSDOF 3
ENDMDL
MODEL 10
REMARK VINA RESULT:      -7.6      6.897      8.172
REMARK  3 active torsions:
REMARK  status: ('A' for Active; 'I' for Inactive)
REMARK    1  A    between atoms: C_3  and  C_4 
REMARK       I    between atoms: C_4  and  N_5 
REMARK    2  A    between atoms: N_5  and  C_6 
REMARK    3  A    between atoms: C_13  and  C_14 
REMARK       I    between atoms: C_14  and  N_15 
ROOT
HETATM    1  C   UNL     1      40.308 -12.543  -1.258  1.00  0.00     0.035 A 
HETATM    2  C   UNL     1      40.854 -11.377  -1.816  1.00  0.00     0.046 A 
HETATM    3  C   UNL     1      40.094 -10.618  -2.729  1.00  0.00     0.030 A 
HETATM    4  C   UNL     1      38.828 -11.066  -3.080  1.00  0.00     0.063 A 
HETATM    5  N   UNL     1      38.353 -10.146  -3.972  1.00  0.00    -0.277 N 
HETATM    6  H   UNL     1      37.456 -10.156  -4.446  1.00  0.00     0.189 HD
HETATM    7  N   UNL     1      39.190  -9.121  -4.214  1.00  0.00    -0.168 NA
HETATM    8  C   UNL     1      40.270  -9.400  -3.450  1.00  0.00     0.156 A 
HETATM    9  C   UNL     1      38.263 -12.232  -2.560  1.00  0.00     0.034 A 
HETATM   10  C   UNL     1      39.027 -12.956  -1.632  1.00  0.00     0.032 A 
ENDROOT
BRANCH   1  11
HETATM   11  N   UNL     1      41.111 -13.235  -0.332  1.00  0.00    -0.325 N 
HETATM   12  C   UNL     1      41.038 -13.205   1.051  1.00  0.00     0.252 C 
HETATM   13  O   UNL     1      40.259 -12.538   1.727  1.00  0.00    -0.270 OA
HETATM   14  H   UNL     1      41.858 -13.809  -0.713  1.00  0.00     0.169 HD
BRANCH  12  15
HETATM   15  C   UNL     1      42.134 -14.042   1.719  1.00  0.00     0.229 C 
HETATM   16  C   UNL     1      41.926 -15.566   1.577  1.00  0.00     0.056 C 
HETATM   17  C   UNL     1      40.478 -16.049   1.557  1.00  0.00     0.018 C 
HETATM   18  C   UNL     1      42.601 -15.983   2.839  1.00  0.00    -0.018 A 
HETATM   19  C   UNL     1      42.736 -14.884   3.674  1.00  0.00     0.076 A 
HETATM   20  C   UNL     1      43.021 -17.237   3.248  1.00  0.00     0.010 A 
HETATM   21  O   UNL     1      42.254 -13.722   3.130  1.00  0.00    -0.335 OA
HETATM   22  C   UNL     1      43.279 -14.983   4.937  1.00  0.00     0.037 A 
HETATM   23  C   UNL     1      43.715 -16.240   5.361  1.00  0.00     0.003 A 
HETATM   24  C   UNL     1      43.587 -17.360   4.521  1.00  0.00     0.001 A 
ENDBRANCH  12  15
ENDBRANCH   1  11
BRANCH   8  25
HETATM   25  C   UNL     1      41.431  -8.502  -3.405  1.00  0.00     0.270 C 
HETATM   26  N   UNL     1      41.909  -8.142  -4.635  1.00  0.00    -0.365 N 
HETATM   27  H   UNL     1      41.437  -8.493  -5.460  1.00  0.00     0.159 HD
HETATM   28  H   UNL     1      42.686  -7.503  -4.705  1.00  0.00     0.159 HD
HETATM   29  O   UNL     1      41.945  -8.084  -2.372  1.00  0.00    -0.266 OA
ENDBRANCH   8  25
TORSDOF 3
ENDMDL
