MODEL 1
REMARK VINA RESULT:      -9.6      0.000      0.000
REMARK  8 active torsions:
REMARK  status: ('A' for Active; 'I' for Inactive)
REMARK    1  A    between atoms: N_2  and  C_4 
REMARK    2  A    between atoms: N_2  and  C_32 
REMARK    3  A    between atoms: C_4  and  C_5 
REMARK    4  A    between atoms: N_8  and  C_9 
REMARK    5  A    between atoms: C_12  and  N_13 
REMARK       I    between atoms: N_13  and  C_14 
REMARK       I    between atoms: C_14  and  N_15 
REMARK    6  A    between atoms: N_15  and  C_16 
REMARK    7  A    between atoms: C_18  and  C_19 
REMARK    8  A    between atoms: C_32  and  C_33 
ROOT
HETATM    1  C   UNL     1      40.062  -9.616   6.013  1.00  0.00     0.161 C 
HETATM    2  C   UNL     1      40.400 -11.051   6.384  1.00  0.00     0.179 C 
HETATM    3  C   UNL     1      41.316 -11.523   5.264  1.00  0.00     0.177 C 
HETATM    4  C   UNL     1      40.449 -12.487   4.469  1.00  0.00     0.141 C 
HETATM    5  C   UNL     1      39.455 -12.980   5.518  1.00  0.00     0.196 C 
HETATM    6  O   UNL     1      39.217 -11.865   6.398  1.00  0.00    -0.379 OA
HETATM    7  O   UNL     1      41.685 -10.374   4.482  1.00  0.00    -0.379 OA
HETATM    8  C   UNL     1      41.298  -9.208   5.230  1.00  0.00     0.198 C 
ENDROOT
BRANCH   1   9
HETATM    9  N   UNL     1      39.733  -8.803   7.159  1.00  0.00    -0.274 N 
HETATM   10  N   UNL     1      38.596  -8.087   7.223  1.00  0.00     0.005 NA
HETATM   11  N   UNL     1      38.579  -7.449   8.382  1.00  0.00    -0.161 NA
HETATM   12  C   UNL     1      39.722  -7.773   9.064  1.00  0.00     0.095 A 
HETATM   13  C   UNL     1      40.464  -8.650   8.308  1.00  0.00     0.139 A 
BRANCH  12  14
HETATM   14  C   UNL     1      39.995  -7.152  10.383  1.00  0.00     0.296 C 
BRANCH  14  15
HETATM   15  N   UNL     1      41.065  -7.893  11.161  1.00  0.00    -0.066 N 
HETATM   16  C   UNL     1      40.622  -8.245  12.553  1.00  0.00     0.270 C 
HETATM   17  H   UNL     1      41.180  -8.789  10.665  1.00  0.00     0.280 HD
BRANCH  15  18
HETATM   18  C   UNL     1      42.388  -7.180  11.117  1.00  0.00     0.273 C 
BRANCH  18  19
HETATM   19  C   UNL     1      43.481  -7.983  10.466  1.00  0.00    -0.033 A 
HETATM   20  C   UNL     1      43.970  -7.625   9.200  1.00  0.00     0.009 A 
HETATM   21  C   UNL     1      44.961  -8.390   8.584  1.00  0.00     0.001 A 
HETATM   22  C   UNL     1      45.473  -9.516   9.225  1.00  0.00     0.000 A 
HETATM   23  C   UNL     1      44.998  -9.879  10.483  1.00  0.00     0.001 A 
HETATM   24  C   UNL     1      44.007  -9.117  11.104  1.00  0.00     0.009 A 
ENDBRANCH  18  19
ENDBRANCH  15  18
ENDBRANCH  14  15
ENDBRANCH  12  14
ENDBRANCH   1   9
BRANCH   4  25
HETATM   25  N   UNL     1      41.175 -13.517   3.737  1.00  0.00    -0.334 N 
HETATM   26  C   UNL     1      41.852 -14.538   4.374  1.00  0.00     0.321 C 
HETATM   27  N   UNL     1      42.405 -15.406   3.461  1.00  0.00    -0.309 N 
HETATM   28  O   UNL     1      41.885 -14.631   5.593  1.00  0.00    -0.247 OA
HETATM   29  H   UNL     1      42.251 -15.182   2.490  1.00  0.00     0.170 HD
HETATM   30  H   UNL     1      41.560 -13.228   2.848  1.00  0.00     0.164 HD
BRANCH  27  31
HETATM   31  C   UNL     1      43.068 -16.624   3.717  1.00  0.00     0.037 A 
HETATM   32  C   UNL     1      42.917 -17.775   2.941  1.00  0.00     0.045 A 
HETATM   33  C   UNL     1      43.645 -18.944   3.231  1.00  0.00     0.050 A 
HETATM   34  C   UNL     1      44.511 -18.953   4.333  1.00  0.00     0.016 A 
HETATM   35  C   UNL     1      44.660 -17.812   5.119  1.00  0.00     0.003 A 
HETATM   36  C   UNL     1      43.944 -16.655   4.809  1.00  0.00     0.029 A 
BRANCH  33  37
HETATM   37  C   UNL     1      43.478 -20.184   2.386  1.00  0.00     0.417 C 
HETATM   38  F   UNL     1      44.385 -20.279   1.375  1.00  0.00    -0.166 F 
HETATM   39  F   UNL     1      43.606 -21.334   3.106  1.00  0.00    -0.166 F 
HETATM   40  F   UNL     1      42.253 -20.246   1.797  1.00  0.00    -0.166 F 
ENDBRANCH  33  37
ENDBRANCH  27  31
ENDBRANCH   4  25
TORSDOF 8
ENDMDL
MODEL 2
REMARK VINA RESULT:      -9.4      6.106     10.953
REMARK  8 active torsions:
REMARK  status: ('A' for Active; 'I' for Inactive)
REMARK    1  A    between atoms: N_2  and  C_4 
REMARK    2  A    between atoms: N_2  and  C_32 
REMARK    3  A    between atoms: C_4  and  C_5 
REMARK    4  A    between atoms: N_8  and  C_9 
REMARK    5  A    between atoms: C_12  and  N_13 
REMARK       I    between atoms: N_13  and  C_14 
REMARK       I    between atoms: C_14  and  N_15 
REMARK    6  A    between atoms: N_15  and  C_16 
REMARK    7  A    between atoms: C_18  and  C_19 
REMARK    8  A    between atoms: C_32  and  C_33 
ROOT
HETATM    1  C   UNL     1      41.517 -10.388   4.162  1.00  0.00     0.161 C 
HETATM    2  C   UNL     1      42.287 -11.412   4.980  1.00  0.00     0.179 C 
HETATM    3  C   UNL     1      41.848 -11.155   6.414  1.00  0.00     0.177 C 
HETATM    4  C   UNL     1      43.065 -10.506   7.056  1.00  0.00     0.141 C 
HETATM    5  C   UNL     1      44.215 -11.055   6.214  1.00  0.00     0.196 C 
HETATM    6  O   UNL     1      43.701 -11.189   4.874  1.00  0.00    -0.379 OA
HETATM    7  O   UNL     1      40.725 -10.257   6.379  1.00  0.00    -0.379 OA
HETATM    8  C   UNL     1      40.274 -10.195   5.013  1.00  0.00     0.198 C 
ENDROOT
BRANCH   1   9
HETATM    9  N   UNL     1      41.301 -10.807   2.799  1.00  0.00    -0.274 N 
HETATM   10  N   UNL     1      42.122 -10.435   1.800  1.00  0.00     0.005 NA
HETATM   11  N   UNL     1      41.665 -10.967   0.677  1.00  0.00    -0.161 NA
HETATM   12  C   UNL     1      40.542 -11.692   0.973  1.00  0.00     0.095 A 
HETATM   13  C   UNL     1      40.302 -11.616   2.325  1.00  0.00     0.139 A 
BRANCH  12  14
HETATM   14  C   UNL     1      39.784 -12.357  -0.114  1.00  0.00     0.296 C 
BRANCH  14  15
HETATM   15  N   UNL     1      40.396 -13.683  -0.518  1.00  0.00    -0.066 N 
HETATM   16  C   UNL     1      40.183 -13.994  -1.973  1.00  0.00     0.270 C 
HETATM   17  H   UNL     1      41.412 -13.553  -0.402  1.00  0.00     0.280 HD
BRANCH  15  18
HETATM   18  C   UNL     1      39.976 -14.800   0.399  1.00  0.00     0.273 C 
BRANCH  18  19
HETATM   19  C   UNL     1      41.106 -15.359   1.218  1.00  0.00    -0.033 A 
HETATM   20  C   UNL     1      40.871 -16.383   2.149  1.00  0.00     0.009 A 
HETATM   21  C   UNL     1      41.916 -16.880   2.930  1.00  0.00     0.001 A 
HETATM   22  C   UNL     1      43.201 -16.360   2.790  1.00  0.00     0.000 A 
HETATM   23  C   UNL     1      43.446 -15.347   1.867  1.00  0.00     0.001 A 
HETATM   24  C   UNL     1      42.406 -14.848   1.082  1.00  0.00     0.009 A 
ENDBRANCH  18  19
ENDBRANCH  15  18
ENDBRANCH  14  15
ENDBRANCH  12  14
ENDBRANCH   1   9
BRANCH   4  25
HETATM   25  N   UNL     1      43.179 -10.686   8.497  1.00  0.00    -0.334 N 
HETATM   26  C   UNL     1      42.605  -9.811   9.398  1.00  0.00     0.321 C 
HETATM   27  N   UNL     1      42.812 -10.234  10.692  1.00  0.00    -0.309 N 
HETATM   28  O   UNL     1      41.973  -8.830   9.035  1.00  0.00    -0.247 OA
HETATM   29  H   UNL     1      43.338 -11.087  10.799  1.00  0.00     0.170 HD
HETATM   30  H   UNL     1      44.024 -11.143   8.811  1.00  0.00     0.164 HD
BRANCH  27  31
HETATM   31  C   UNL     1      42.287  -9.677  11.876  1.00  0.00     0.037 A 
HETATM   32  C   UNL     1      42.882  -8.625  12.577  1.00  0.00     0.045 A 
HETATM   33  C   UNL     1      42.277  -8.090  13.730  1.00  0.00     0.050 A 
HETATM   34  C   UNL     1      41.075  -8.646  14.191  1.00  0.00     0.016 A 
HETATM   35  C   UNL     1      40.481  -9.702  13.504  1.00  0.00     0.003 A 
HETATM   36  C   UNL     1      41.083 -10.211  12.352  1.00  0.00     0.029 A 
BRANCH  33  37
HETATM   37  C   UNL     1      42.925  -6.952  14.480  1.00  0.00     0.417 C 
HETATM   38  F   UNL     1      42.396  -5.733  14.182  1.00  0.00    -0.166 F 
HETATM   39  F   UNL     1      42.815  -7.082  15.832  1.00  0.00    -0.166 F 
HETATM   40  F   UNL     1      44.258  -6.855  14.222  1.00  0.00    -0.166 F 
ENDBRANCH  33  37
ENDBRANCH  27  31
ENDBRANCH   4  25
TORSDOF 8
ENDMDL
MODEL 3
REMARK VINA RESULT:      -9.3      1.600      2.270
REMARK  8 active torsions:
REMARK  status: ('A' for Active; 'I' for Inactive)
REMARK    1  A    between atoms: N_2  and  C_4 
REMARK    2  A    between atoms: N_2  and  C_32 
REMARK    3  A    between atoms: C_4  and  C_5 
REMARK    4  A    between atoms: N_8  and  C_9 
REMARK    5  A    between atoms: C_12  and  N_13 
REMARK       I    between atoms: N_13  and  C_14 
REMARK       I    between atoms: C_14  and  N_15 
REMARK    6  A    between atoms: N_15  and  C_16 
REMARK    7  A    between atoms: C_18  and  C_19 
REMARK    8  A    between atoms: C_32  and  C_33 
ROOT
HETATM    1  C   UNL     1      40.051 -10.766   6.491  1.00  0.00     0.161 C 
HETATM    2  C   UNL     1      41.443 -10.816   5.882  1.00  0.00     0.179 C 
HETATM    3  C   UNL     1      41.358 -11.923   4.842  1.00  0.00     0.177 C 
HETATM    4  C   UNL     1      42.158 -13.061   5.456  1.00  0.00     0.141 C 
HETATM    5  C   UNL     1      43.132 -12.324   6.373  1.00  0.00     0.196 C 
HETATM    6  O   UNL     1      42.419 -11.176   6.872  1.00  0.00    -0.379 OA
HETATM    7  O   UNL     1      39.973 -12.275   4.682  1.00  0.00    -0.379 OA
HETATM    8  C   UNL     1      39.197 -11.252   5.333  1.00  0.00     0.198 C 
ENDROOT
BRANCH   1   9
HETATM    9  N   UNL     1      39.721  -9.468   7.029  1.00  0.00    -0.274 N 
HETATM   10  N   UNL     1      38.677  -8.752   6.575  1.00  0.00     0.005 NA
HETATM   11  N   UNL     1      38.634  -7.617   7.253  1.00  0.00    -0.161 NA
HETATM   12  C   UNL     1      39.664  -7.619   8.155  1.00  0.00     0.095 A 
HETATM   13  C   UNL     1      40.360  -8.800   8.040  1.00  0.00     0.139 A 
BRANCH  12  14
HETATM   14  C   UNL     1      39.892  -6.436   9.020  1.00  0.00     0.296 C 
BRANCH  14  15
HETATM   15  N   UNL     1      41.086  -6.609   9.936  1.00  0.00    -0.066 N 
HETATM   16  C   UNL     1      41.007  -5.732  11.154  1.00  0.00     0.270 C 
HETATM   17  H   UNL     1      41.018  -7.578  10.279  1.00  0.00     0.280 HD
BRANCH  15  18
HETATM   18  C   UNL     1      42.388  -6.484   9.193  1.00  0.00     0.273 C 
BRANCH  18  19
HETATM   19  C   UNL     1      43.369  -7.578   9.513  1.00  0.00    -0.033 A 
HETATM   20  C   UNL     1      43.249  -8.316  10.701  1.00  0.00     0.009 A 
HETATM   21  C   UNL     1      44.178  -9.310  11.012  1.00  0.00     0.001 A 
HETATM   22  C   UNL     1      45.232  -9.577  10.141  1.00  0.00     0.000 A 
HETATM   23  C   UNL     1      45.359  -8.854   8.958  1.00  0.00     0.001 A 
HETATM   24  C   UNL     1      44.433  -7.860   8.642  1.00  0.00     0.009 A 
ENDBRANCH  18  19
ENDBRANCH  15  18
ENDBRANCH  14  15
ENDBRANCH  12  14
ENDBRANCH   1   9
BRANCH   4  25
HETATM   25  N   UNL     1      42.751 -13.991   4.504  1.00  0.00    -0.334 N 
HETATM   26  C   UNL     1      42.785 -15.354   4.726  1.00  0.00     0.321 C 
HETATM   27  N   UNL     1      43.346 -16.012   3.655  1.00  0.00    -0.309 N 
HETATM   28  O   UNL     1      42.324 -15.857   5.741  1.00  0.00    -0.247 OA
HETATM   29  H   UNL     1      43.647 -15.431   2.889  1.00  0.00     0.170 HD
HETATM   30  H   UNL     1      43.512 -13.621   3.952  1.00  0.00     0.164 HD
BRANCH  27  31
HETATM   31  C   UNL     1      43.451 -17.404   3.455  1.00  0.00     0.037 A 
HETATM   32  C   UNL     1      43.750 -18.319   4.467  1.00  0.00     0.045 A 
HETATM   33  C   UNL     1      43.795 -19.701   4.203  1.00  0.00     0.050 A 
HETATM   34  C   UNL     1      43.562 -20.155   2.897  1.00  0.00     0.016 A 
HETATM   35  C   UNL     1      43.273 -19.247   1.880  1.00  0.00     0.003 A 
HETATM   36  C   UNL     1      43.215 -17.881   2.160  1.00  0.00     0.029 A 
BRANCH  33  37
HETATM   37  C   UNL     1      44.117 -20.684   5.302  1.00  0.00     0.417 C 
HETATM   38  F   UNL     1      45.423 -21.069   5.321  1.00  0.00    -0.166 F 
HETATM   39  F   UNL     1      43.862 -20.187   6.545  1.00  0.00    -0.166 F 
HETATM   40  F   UNL     1      43.390 -21.830   5.201  1.00  0.00    -0.166 F 
ENDBRANCH  33  37
ENDBRANCH  27  31
ENDBRANCH   4  25
TORSDOF 8
ENDMDL
MODEL 4
REMARK VINA RESULT:      -9.2      6.393     11.788
REMARK  8 active torsions:
REMARK  status: ('A' for Active; 'I' for Inactive)
REMARK    1  A    between atoms: N_2  and  C_4 
REMARK    2  A    between atoms: N_2  and  C_32 
REMARK    3  A    between atoms: C_4  and  C_5 
REMARK    4  A    between atoms: N_8  and  C_9 
REMARK    5  A    between atoms: C_12  and  N_13 
REMARK       I    between atoms: N_13  and  C_14 
REMARK       I    between atoms: C_14  and  N_15 
REMARK    6  A    between atoms: N_15  and  C_16 
REMARK    7  A    between atoms: C_18  and  C_19 
REMARK    8  A    between atoms: C_32  and  C_33 
ROOT
HETATM    1  C   UNL     1      42.678 -11.111   6.463  1.00  0.00     0.161 C 
HETATM    2  C   UNL     1      41.827  -9.852   6.468  1.00  0.00     0.179 C 
HETATM    3  C   UNL     1      42.252  -9.115   7.729  1.00  0.00     0.177 C 
HETATM    4  C   UNL     1      41.067  -9.288   8.668  1.00  0.00     0.141 C 
HETATM    5  C   UNL     1      39.901  -9.469   7.698  1.00  0.00     0.196 C 
HETATM    6  O   UNL     1      40.432 -10.181   6.563  1.00  0.00    -0.379 OA
HETATM    7  O   UNL     1      43.431  -9.760   8.242  1.00  0.00    -0.379 OA
HETATM    8  C   UNL     1      43.914 -10.642   7.212  1.00  0.00     0.198 C 
ENDROOT
BRANCH   1   9
HETATM    9  N   UNL     1      42.895 -11.636   5.136  1.00  0.00    -0.274 N 
HETATM   10  N   UNL     1      43.135 -10.834   4.083  1.00  0.00     0.005 NA
HETATM   11  N   UNL     1      43.286 -11.600   3.013  1.00  0.00    -0.161 NA
HETATM   12  C   UNL     1      43.145 -12.906   3.400  1.00  0.00     0.095 A 
HETATM   13  C   UNL     1      42.911 -12.952   4.755  1.00  0.00     0.139 A 
BRANCH  12  14
HETATM   14  C   UNL     1      43.211 -13.987   2.387  1.00  0.00     0.296 C 
BRANCH  14  15
HETATM   15  N   UNL     1      41.894 -14.722   2.238  1.00  0.00    -0.066 N 
HETATM   16  C   UNL     1      40.748 -13.793   1.948  1.00  0.00     0.270 C 
HETATM   17  H   UNL     1      42.008 -15.302   1.394  1.00  0.00     0.280 HD
BRANCH  15  18
HETATM   18  C   UNL     1      41.633 -15.650   3.393  1.00  0.00     0.273 C 
BRANCH  18  19
HETATM   19  C   UNL     1      42.485 -16.889   3.370  1.00  0.00    -0.033 A 
HETATM   20  C   UNL     1      42.439 -17.765   2.274  1.00  0.00     0.009 A 
HETATM   21  C   UNL     1      43.206 -18.930   2.268  1.00  0.00     0.001 A 
HETATM   22  C   UNL     1      44.026 -19.231   3.354  1.00  0.00     0.000 A 
HETATM   23  C   UNL     1      44.084 -18.369   4.445  1.00  0.00     0.001 A 
HETATM   24  C   UNL     1      43.319 -17.201   4.455  1.00  0.00     0.009 A 
ENDBRANCH  18  19
ENDBRANCH  15  18
ENDBRANCH  14  15
ENDBRANCH  12  14
ENDBRANCH   1   9
BRANCH   4  25
HETATM   25  N   UNL     1      40.911  -8.245   9.673  1.00  0.00    -0.334 N 
HETATM   26  C   UNL     1      41.167  -8.466  11.012  1.00  0.00     0.321 C 
HETATM   27  N   UNL     1      40.998  -7.311  11.741  1.00  0.00    -0.309 N 
HETATM   28  O   UNL     1      41.533  -9.555  11.431  1.00  0.00    -0.247 OA
HETATM   29  H   UNL     1      40.716  -6.496  11.218  1.00  0.00     0.170 HD
HETATM   30  H   UNL     1      40.203  -7.553   9.473  1.00  0.00     0.164 HD
BRANCH  27  31
HETATM   31  C   UNL     1      41.273  -7.104  13.108  1.00  0.00     0.037 A 
HETATM   32  C   UNL     1      40.303  -6.796  14.064  1.00  0.00     0.045 A 
HETATM   33  C   UNL     1      40.645  -6.647  15.422  1.00  0.00     0.050 A 
HETATM   34  C   UNL     1      41.986  -6.784  15.806  1.00  0.00     0.016 A 
HETATM   35  C   UNL     1      42.962  -7.081  14.857  1.00  0.00     0.003 A 
HETATM   36  C   UNL     1      42.605  -7.244  13.518  1.00  0.00     0.029 A 
BRANCH  33  37
HETATM   37  C   UNL     1      39.590  -6.315  16.448  1.00  0.00     0.417 C 
HETATM   38  F   UNL     1      39.561  -7.182  17.498  1.00  0.00    -0.166 F 
HETATM   39  F   UNL     1      39.759  -5.079  16.997  1.00  0.00    -0.166 F 
HETATM   40  F   UNL     1      38.335  -6.321  15.922  1.00  0.00    -0.166 F 
ENDBRANCH  33  37
ENDBRANCH  27  31
ENDBRANCH   4  25
TORSDOF 8
ENDMDL
MODEL 5
REMARK VINA RESULT:      -9.2      7.288     12.566
REMARK  8 active torsions:
REMARK  status: ('A' for Active; 'I' for Inactive)
REMARK    1  A    between atoms: N_2  and  C_4 
REMARK    2  A    between atoms: N_2  and  C_32 
REMARK    3  A    between atoms: C_4  and  C_5 
REMARK    4  A    between atoms: N_8  and  C_9 
REMARK    5  A    between atoms: C_12  and  N_13 
REMARK       I    between atoms: N_13  and  C_14 
REMARK       I    between atoms: C_14  and  N_15 
REMARK    6  A    between atoms: N_15  and  C_16 
REMARK    7  A    between atoms: C_18  and  C_19 
REMARK    8  A    between atoms: C_32  and  C_33 
ROOT
HETATM    1  C   UNL     1      43.494 -10.223   9.809  1.00  0.00     0.161 C 
HETATM    2  C   UNL     1      42.595  -8.999   9.762  1.00  0.00     0.179 C 
HETATM    3  C   UNL     1      42.816  -8.318  11.104  1.00  0.00     0.177 C 
HETATM    4  C   UNL     1      41.526  -8.585  11.865  1.00  0.00     0.141 C 
HETATM    5  C   UNL     1      40.508  -8.756  10.739  1.00  0.00     0.196 C 
HETATM    6  O   UNL     1      41.216  -9.384   9.653  1.00  0.00    -0.379 OA
HETATM    7  O   UNL     1      43.945  -8.945  11.738  1.00  0.00    -0.379 OA
HETATM    8  C   UNL     1      44.598  -9.751  10.740  1.00  0.00     0.198 C 
ENDROOT
BRANCH   1   9
HETATM    9  N   UNL     1      43.907 -10.666   8.500  1.00  0.00    -0.274 N 
HETATM   10  N   UNL     1      45.125 -11.193   8.276  1.00  0.00     0.005 NA
HETATM   11  N   UNL     1      45.209 -11.496   6.990  1.00  0.00    -0.161 NA
HETATM   12  C   UNL     1      44.022 -11.162   6.394  1.00  0.00     0.095 A 
HETATM   13  C   UNL     1      43.172 -10.646   7.344  1.00  0.00     0.139 A 
BRANCH  12  14
HETATM   14  C   UNL     1      43.854 -11.344   4.932  1.00  0.00     0.296 C 
BRANCH  14  15
HETATM   15  N   UNL     1      42.756 -12.332   4.595  1.00  0.00    -0.066 N 
HETATM   16  C   UNL     1      41.391 -11.822   4.966  1.00  0.00     0.270 C 
HETATM   17  H   UNL     1      42.764 -12.396   3.566  1.00  0.00     0.280 HD
BRANCH  15  18
HETATM   18  C   UNL     1      43.048 -13.705   5.136  1.00  0.00     0.273 C 
BRANCH  18  19
HETATM   19  C   UNL     1      43.096 -14.769   4.075  1.00  0.00    -0.033 A 
HETATM   20  C   UNL     1      43.103 -16.127   4.428  1.00  0.00     0.009 A 
HETATM   21  C   UNL     1      43.179 -17.113   3.443  1.00  0.00     0.001 A 
HETATM   22  C   UNL     1      43.248 -16.753   2.099  1.00  0.00     0.000 A 
HETATM   23  C   UNL     1      43.238 -15.409   1.736  1.00  0.00     0.001 A 
HETATM   24  C   UNL     1      43.161 -14.419   2.717  1.00  0.00     0.009 A 
ENDBRANCH  18  19
ENDBRANCH  15  18
ENDBRANCH  14  15
ENDBRANCH  12  14
ENDBRANCH   1   9
BRANCH   4  25
HETATM   25  N   UNL     1      41.193  -7.605  12.890  1.00  0.00    -0.334 N 
HETATM   26  C   UNL     1      41.217  -7.909  14.237  1.00  0.00     0.321 C 
HETATM   27  N   UNL     1      40.917  -6.801  14.996  1.00  0.00    -0.309 N 
HETATM   28  O   UNL     1      41.513  -9.023  14.645  1.00  0.00    -0.247 OA
HETATM   29  H   UNL     1      40.724  -5.954  14.483  1.00  0.00     0.170 HD
HETATM   30  H   UNL     1      40.525  -6.900  12.615  1.00  0.00     0.164 HD
BRANCH  27  31
HETATM   31  C   UNL     1      40.953  -6.679  16.400  1.00  0.00     0.037 A 
HETATM   32  C   UNL     1      40.296  -7.546  17.277  1.00  0.00     0.045 A 
HETATM   33  C   UNL     1      40.413  -7.390  18.671  1.00  0.00     0.050 A 
HETATM   34  C   UNL     1      41.178  -6.330  19.178  1.00  0.00     0.016 A 
HETATM   35  C   UNL     1      41.827  -5.455  18.310  1.00  0.00     0.003 A 
HETATM   36  C   UNL     1      41.717  -5.633  16.930  1.00  0.00     0.029 A 
BRANCH  33  37
HETATM   37  C   UNL     1      39.701  -8.331  19.612  1.00  0.00     0.417 C 
HETATM   38  F   UNL     1      38.499  -8.764  19.142  1.00  0.00    -0.166 F 
HETATM   39  F   UNL     1      40.422  -9.458  19.875  1.00  0.00    -0.166 F 
HETATM   40  F   UNL     1      39.447  -7.760  20.821  1.00  0.00    -0.166 F 
ENDBRANCH  33  37
ENDBRANCH  27  31
ENDBRANCH   4  25
TORSDOF 8
ENDMDL
MODEL 6
REMARK VINA RESULT:      -9.2      6.838     12.401
REMARK  8 active torsions:
REMARK  status: ('A' for Active; 'I' for Inactive)
REMARK    1  A    between atoms: N_2  and  C_4 
REMARK    2  A    between atoms: N_2  and  C_32 
REMARK    3  A    between atoms: C_4  and  C_5 
REMARK    4  A    between atoms: N_8  and  C_9 
REMARK    5  A    between atoms: C_12  and  N_13 
REMARK       I    between atoms: N_13  and  C_14 
REMARK       I    between atoms: C_14  and  N_15 
REMARK    6  A    between atoms: N_15  and  C_16 
REMARK    7  A    between atoms: C_18  and  C_19 
REMARK    8  A    between atoms: C_32  and  C_33 
ROOT
HETATM    1  C   UNL     1      44.032 -10.179   8.372  1.00  0.00     0.161 C 
HETATM    2  C   UNL     1      43.120 -10.307   9.581  1.00  0.00     0.179 C 
HETATM    3  C   UNL     1      43.109  -8.915  10.193  1.00  0.00     0.177 C 
HETATM    4  C   UNL     1      43.936  -9.068  11.460  1.00  0.00     0.141 C 
HETATM    5  C   UNL     1      43.755 -10.547  11.796  1.00  0.00     0.196 C 
HETATM    6  O   UNL     1      43.663 -11.235  10.533  1.00  0.00    -0.379 OA
HETATM    7  O   UNL     1      43.733  -8.016   9.259  1.00  0.00    -0.379 OA
HETATM    8  C   UNL     1      43.846  -8.717   8.007  1.00  0.00     0.198 C 
ENDROOT
BRANCH   1   9
HETATM    9  N   UNL     1      43.732 -11.140   7.339  1.00  0.00    -0.274 N 
HETATM   10  N   UNL     1      44.541 -12.182   7.077  1.00  0.00     0.005 NA
HETATM   11  N   UNL     1      44.007 -12.875   6.083  1.00  0.00    -0.161 NA
HETATM   12  C   UNL     1      42.838 -12.264   5.717  1.00  0.00     0.095 A 
HETATM   13  C   UNL     1      42.635 -11.164   6.518  1.00  0.00     0.139 A 
BRANCH  12  14
HETATM   14  C   UNL     1      42.049 -12.799   4.581  1.00  0.00     0.296 C 
BRANCH  14  15
HETATM   15  N   UNL     1      42.711 -13.997   3.931  1.00  0.00    -0.066 N 
HETATM   16  C   UNL     1      43.193 -13.701   2.538  1.00  0.00     0.270 C 
HETATM   17  H   UNL     1      43.557 -14.170   4.493  1.00  0.00     0.280 HD
BRANCH  15  18
HETATM   18  C   UNL     1      41.852 -15.230   4.016  1.00  0.00     0.273 C 
BRANCH  18  19
HETATM   19  C   UNL     1      42.600 -16.502   3.728  1.00  0.00    -0.033 A 
HETATM   20  C   UNL     1      42.332 -17.237   2.563  1.00  0.00     0.009 A 
HETATM   21  C   UNL     1      43.005 -18.434   2.313  1.00  0.00     0.001 A 
HETATM   22  C   UNL     1      43.950 -18.907   3.221  1.00  0.00     0.000 A 
HETATM   23  C   UNL     1      44.227 -18.184   4.379  1.00  0.00     0.001 A 
HETATM   24  C   UNL     1      43.558 -16.986   4.633  1.00  0.00     0.009 A 
ENDBRANCH  18  19
ENDBRANCH  15  18
ENDBRANCH  14  15
ENDBRANCH  12  14
ENDBRANCH   1   9
BRANCH   4  25
HETATM   25  N   UNL     1      43.625  -8.125  12.526  1.00  0.00    -0.334 N 
HETATM   26  C   UNL     1      42.382  -8.074  13.127  1.00  0.00     0.321 C 
HETATM   27  N   UNL     1      42.363  -7.138  14.137  1.00  0.00    -0.309 N 
HETATM   28  O   UNL     1      41.470  -8.817  12.794  1.00  0.00    -0.247 OA
HETATM   29  H   UNL     1      43.224  -6.635  14.288  1.00  0.00     0.170 HD
HETATM   30  H   UNL     1      44.127  -7.249  12.490  1.00  0.00     0.164 HD
BRANCH  27  31
HETATM   31  C   UNL     1      41.324  -6.876  15.051  1.00  0.00     0.037 A 
HETATM   32  C   UNL     1      41.263  -7.409  16.341  1.00  0.00     0.045 A 
HETATM   33  C   UNL     1      40.215  -7.067  17.217  1.00  0.00     0.050 A 
HETATM   34  C   UNL     1      39.208  -6.200  16.771  1.00  0.00     0.016 A 
HETATM   35  C   UNL     1      39.256  -5.671  15.483  1.00  0.00     0.003 A 
HETATM   36  C   UNL     1      40.310  -6.005  14.631  1.00  0.00     0.029 A 
BRANCH  33  37
HETATM   37  C   UNL     1      40.157  -7.647  18.610  1.00  0.00     0.417 C 
HETATM   38  F   UNL     1      40.133  -6.703  19.591  1.00  0.00    -0.166 F 
HETATM   39  F   UNL     1      39.054  -8.420  18.813  1.00  0.00    -0.166 F 
HETATM   40  F   UNL     1      41.227  -8.443  18.883  1.00  0.00    -0.166 F 
ENDBRANCH  33  37
ENDBRANCH  27  31
ENDBRANCH   4  25
TORSDOF 8
ENDMDL
MODEL 7
REMARK VINA RESULT:      -9.1      7.260     10.870
REMARK  8 active torsions:
REMARK  status: ('A' for Active; 'I' for Inactive)
REMARK    1  A    between atoms: N_2  and  C_4 
REMARK    2  A    between atoms: N_2  and  C_32 
REMARK    3  A    between atoms: C_4  and  C_5 
REMARK    4  A    between atoms: N_8  and  C_9 
REMARK    5  A    between atoms: C_12  and  N_13 
REMARK       I    between atoms: N_13  and  C_14 
REMARK       I    between atoms: C_14  and  N_15 
REMARK    6  A    between atoms: N_15  and  C_16 
REMARK    7  A    between atoms: C_18  and  C_19 
REMARK    8  A    between atoms: C_32  and  C_33 
ROOT
HETATM    1  C   UNL     1      40.401 -13.759   2.313  1.00  0.00     0.161 C 
HETATM    2  C   UNL     1      40.867 -14.297   0.970  1.00  0.00     0.179 C 
HETATM    3  C   UNL     1      41.056 -13.055   0.112  1.00  0.00     0.177 C 
HETATM    4  C   UNL     1      39.890 -13.108  -0.865  1.00  0.00     0.141 C 
HETATM    5  C   UNL     1      39.587 -14.603  -0.937  1.00  0.00     0.196 C 
HETATM    6  O   UNL     1      39.858 -15.129   0.377  1.00  0.00    -0.379 OA
HETATM    7  O   UNL     1      40.973 -11.906   0.973  1.00  0.00    -0.379 OA
HETATM    8  C   UNL     1      41.048 -12.385   2.328  1.00  0.00     0.198 C 
ENDROOT
BRANCH   1   9
HETATM    9  N   UNL     1      40.729 -14.633   3.412  1.00  0.00    -0.274 N 
HETATM   10  N   UNL     1      40.217 -15.873   3.516  1.00  0.00     0.005 NA
HETATM   11  N   UNL     1      40.695 -16.422   4.621  1.00  0.00    -0.161 NA
HETATM   12  C   UNL     1      41.529 -15.517   5.221  1.00  0.00     0.095 A 
HETATM   13  C   UNL     1      41.578 -14.374   4.456  1.00  0.00     0.139 A 
BRANCH  12  14
HETATM   14  C   UNL     1      42.168 -15.848   6.518  1.00  0.00     0.296 C 
BRANCH  14  15
HETATM   15  N   UNL     1      43.117 -17.025   6.411  1.00  0.00    -0.066 N 
HETATM   16  C   UNL     1      43.929 -17.222   7.661  1.00  0.00     0.270 C 
HETATM   17  H   UNL     1      42.507 -17.851   6.337  1.00  0.00     0.280 HD
BRANCH  15  18
HETATM   18  C   UNL     1      43.951 -16.964   5.160  1.00  0.00     0.273 C 
BRANCH  18  19
HETATM   19  C   UNL     1      43.856 -18.206   4.317  1.00  0.00    -0.033 A 
HETATM   20  C   UNL     1      43.473 -18.124   2.970  1.00  0.00     0.009 A 
HETATM   21  C   UNL     1      43.355 -19.280   2.197  1.00  0.00     0.001 A 
HETATM   22  C   UNL     1      43.619 -20.526   2.761  1.00  0.00     0.000 A 
HETATM   23  C   UNL     1      44.004 -20.620   4.096  1.00  0.00     0.001 A 
HETATM   24  C   UNL     1      44.124 -19.467   4.873  1.00  0.00     0.009 A 
ENDBRANCH  18  19
ENDBRANCH  15  18
ENDBRANCH  14  15
ENDBRANCH  12  14
ENDBRANCH   1   9
BRANCH   4  25
HETATM   25  N   UNL     1      40.114 -12.436  -2.138  1.00  0.00    -0.334 N 
HETATM   26  C   UNL     1      39.941 -11.074  -2.294  1.00  0.00     0.321 C 
HETATM   27  N   UNL     1      40.267 -10.681  -3.572  1.00  0.00    -0.309 N 
HETATM   28  O   UNL     1      39.584 -10.357  -1.371  1.00  0.00    -0.247 OA
HETATM   29  H   UNL     1      40.570 -11.413  -4.195  1.00  0.00     0.170 HD
HETATM   30  H   UNL     1      39.935 -12.994  -2.961  1.00  0.00     0.164 HD
BRANCH  27  31
HETATM   31  C   UNL     1      40.332  -9.369  -4.082  1.00  0.00     0.037 A 
HETATM   32  C   UNL     1      41.454  -8.542  -3.975  1.00  0.00     0.045 A 
HETATM   33  C   UNL     1      41.462  -7.256  -4.548  1.00  0.00     0.050 A 
HETATM   34  C   UNL     1      40.315  -6.796  -5.210  1.00  0.00     0.016 A 
HETATM   35  C   UNL     1      39.189  -7.610  -5.311  1.00  0.00     0.003 A 
HETATM   36  C   UNL     1      39.201  -8.889  -4.753  1.00  0.00     0.029 A 
BRANCH  33  37
HETATM   37  C   UNL     1      42.678  -6.370  -4.430  1.00  0.00     0.417 C 
HETATM   38  F   UNL     1      43.422  -6.614  -3.316  1.00  0.00    -0.166 F 
HETATM   39  F   UNL     1      43.534  -6.506  -5.482  1.00  0.00    -0.166 F 
HETATM   40  F   UNL     1      42.353  -5.050  -4.382  1.00  0.00    -0.166 F 
ENDBRANCH  33  37
ENDBRANCH  27  31
ENDBRANCH   4  25
TORSDOF 8
ENDMDL
MODEL 8
REMARK VINA RESULT:      -9.1      6.779      9.588
REMARK  8 active torsions:
REMARK  status: ('A' for Active; 'I' for Inactive)
REMARK    1  A    between atoms: N_2  and  C_4 
REMARK    2  A    between atoms: N_2  and  C_32 
REMARK    3  A    between atoms: C_4  and  C_5 
REMARK    4  A    between atoms: N_8  and  C_9 
REMARK    5  A    between atoms: C_12  and  N_13 
REMARK       I    between atoms: N_13  and  C_14 
REMARK       I    between atoms: C_14  and  N_15 
REMARK    6  A    between atoms: N_15  and  C_16 
REMARK    7  A    between atoms: C_18  and  C_19 
REMARK    8  A    between atoms: C_32  and  C_33 
ROOT
HETATM    1  C   UNL     1      38.586 -12.054  -2.004  1.00  0.00     0.161 C 
HETATM    2  C   UNL     1      39.815 -11.504  -1.298  1.00  0.00     0.179 C 
HETATM    3  C   UNL     1      40.718 -12.715  -1.117  1.00  0.00     0.177 C 
HETATM    4  C   UNL     1      40.640 -13.006   0.374  1.00  0.00     0.141 C 
HETATM    5  C   UNL     1      40.308 -11.637   0.962  1.00  0.00     0.196 C 
HETATM    6  O   UNL     1      39.468 -10.979  -0.007  1.00  0.00    -0.379 OA
HETATM    7  O   UNL     1      40.173 -13.794  -1.897  1.00  0.00    -0.379 OA
HETATM    8  C   UNL     1      39.176 -13.227  -2.767  1.00  0.00     0.198 C 
ENDROOT
BRANCH   1   9
HETATM    9  N   UNL     1      37.899 -11.059  -2.791  1.00  0.00    -0.274 N 
HETATM   10  N   UNL     1      36.557 -11.007  -2.860  1.00  0.00     0.005 NA
HETATM   11  N   UNL     1      36.227 -10.001  -3.655  1.00  0.00    -0.161 NA
HETATM   12  C   UNL     1      37.381  -9.404  -4.088  1.00  0.00     0.095 A 
HETATM   13  C   UNL     1      38.459 -10.054  -3.535  1.00  0.00     0.139 A 
BRANCH  12  14
HETATM   14  C   UNL     1      37.313  -8.272  -5.044  1.00  0.00     0.296 C 
BRANCH  14  15
HETATM   15  N   UNL     1      37.980  -7.021  -4.508  1.00  0.00    -0.066 N 
HETATM   16  C   UNL     1      37.026  -5.866  -4.390  1.00  0.00     0.270 C 
HETATM   17  H   UNL     1      38.257  -7.260  -3.545  1.00  0.00     0.280 HD
BRANCH  15  18
HETATM   18  C   UNL     1      39.235  -6.684  -5.268  1.00  0.00     0.273 C 
BRANCH  18  19
HETATM   19  C   UNL     1      40.490  -6.858  -4.458  1.00  0.00    -0.033 A 
HETATM   20  C   UNL     1      41.741  -6.932  -5.091  1.00  0.00     0.009 A 
HETATM   21  C   UNL     1      42.901  -7.126  -4.340  1.00  0.00     0.001 A 
HETATM   22  C   UNL     1      42.825  -7.246  -2.954  1.00  0.00     0.000 A 
HETATM   23  C   UNL     1      41.590  -7.170  -2.315  1.00  0.00     0.001 A 
HETATM   24  C   UNL     1      40.426  -6.976  -3.061  1.00  0.00     0.009 A 
ENDBRANCH  18  19
ENDBRANCH  15  18
ENDBRANCH  14  15
ENDBRANCH  12  14
ENDBRANCH   1   9
BRANCH   4  25
HETATM   25  N   UNL     1      41.801 -13.683   0.937  1.00  0.00    -0.334 N 
HETATM   26  C   UNL     1      41.686 -14.801   1.741  1.00  0.00     0.321 C 
HETATM   27  N   UNL     1      42.927 -15.280   2.096  1.00  0.00    -0.309 N 
HETATM   28  O   UNL     1      40.600 -15.282   2.030  1.00  0.00    -0.247 OA
HETATM   29  H   UNL     1      43.717 -14.765   1.740  1.00  0.00     0.170 HD
HETATM   30  H   UNL     1      42.599 -13.093   1.125  1.00  0.00     0.164 HD
BRANCH  27  31
HETATM   31  C   UNL     1      43.226 -16.460   2.807  1.00  0.00     0.037 A 
HETATM   32  C   UNL     1      43.173 -17.742   2.253  1.00  0.00     0.045 A 
HETATM   33  C   UNL     1      43.529 -18.873   3.011  1.00  0.00     0.050 A 
HETATM   34  C   UNL     1      43.914 -18.705   4.348  1.00  0.00     0.016 A 
HETATM   35  C   UNL     1      43.960 -17.431   4.911  1.00  0.00     0.003 A 
HETATM   36  C   UNL     1      43.621 -16.317   4.142  1.00  0.00     0.029 A 
BRANCH  33  37
HETATM   37  C   UNL     1      43.470 -20.254   2.405  1.00  0.00     0.417 C 
HETATM   38  F   UNL     1      44.426 -20.475   1.460  1.00  0.00    -0.166 F 
HETATM   39  F   UNL     1      43.629 -21.242   3.329  1.00  0.00    -0.166 F 
HETATM   40  F   UNL     1      42.278 -20.501   1.796  1.00  0.00    -0.166 F 
ENDBRANCH  33  37
ENDBRANCH  27  31
ENDBRANCH   4  25
TORSDOF 8
ENDMDL
MODEL 9
REMARK VINA RESULT:      -8.9      6.704      9.879
REMARK  8 active torsions:
REMARK  status: ('A' for Active; 'I' for Inactive)
REMARK    1  A    between atoms: N_2  and  C_4 
REMARK    2  A    between atoms: N_2  and  C_32 
REMARK    3  A    between atoms: C_4  and  C_5 
REMARK    4  A    between atoms: N_8  and  C_9 
REMARK    5  A    between atoms: C_12  and  N_13 
REMARK       I    between atoms: N_13  and  C_14 
REMARK       I    between atoms: C_14  and  N_15 
REMARK    6  A    between atoms: N_15  and  C_16 
REMARK    7  A    between atoms: C_18  and  C_19 
REMARK    8  A    between atoms: C_32  and  C_33 
ROOT
HETATM    1  C   UNL     1      38.607 -12.288  -1.951  1.00  0.00     0.161 C 
HETATM    2  C   UNL     1      39.463 -11.669  -0.859  1.00  0.00     0.179 C 
HETATM    3  C   UNL     1      40.609 -12.653  -0.676  1.00  0.00     0.177 C 
HETATM    4  C   UNL     1      40.311 -13.314   0.661  1.00  0.00     0.141 C 
HETATM    5  C   UNL     1      39.498 -12.243   1.386  1.00  0.00     0.196 C 
HETATM    6  O   UNL     1      38.727 -11.571   0.370  1.00  0.00    -0.379 OA
HETATM    7  O   UNL     1      40.557 -13.599  -1.758  1.00  0.00    -0.379 OA
HETATM    8  C   UNL     1      39.643 -13.073  -2.738  1.00  0.00     0.198 C 
ENDROOT
BRANCH   1   9
HETATM    9  N   UNL     1      37.848 -11.309  -2.692  1.00  0.00    -0.274 N 
HETATM   10  N   UNL     1      38.443 -10.357  -3.433  1.00  0.00     0.005 NA
HETATM   11  N   UNL     1      37.495  -9.615  -3.982  1.00  0.00    -0.161 NA
HETATM   12  C   UNL     1      36.281 -10.112  -3.587  1.00  0.00     0.095 A 
HETATM   13  C   UNL     1      36.485 -11.204  -2.776  1.00  0.00     0.139 A 
BRANCH  12  14
HETATM   14  C   UNL     1      35.032  -9.434  -4.012  1.00  0.00     0.296 C 
BRANCH  14  15
HETATM   15  N   UNL     1      33.817  -9.935  -3.258  1.00  0.00    -0.066 N 
HETATM   16  C   UNL     1      33.039 -10.958  -4.038  1.00  0.00     0.270 C 
HETATM   17  H   UNL     1      34.199 -10.433  -2.440  1.00  0.00     0.280 HD
BRANCH  15  18
HETATM   18  C   UNL     1      32.968  -8.805  -2.743  1.00  0.00     0.273 C 
BRANCH  18  19
HETATM   19  C   UNL     1      32.977  -8.684  -1.244  1.00  0.00    -0.033 A 
HETATM   20  C   UNL     1      31.812  -8.316  -0.553  1.00  0.00     0.009 A 
HETATM   21  C   UNL     1      31.830  -8.174   0.836  1.00  0.00     0.001 A 
HETATM   22  C   UNL     1      33.008  -8.399   1.545  1.00  0.00     0.000 A 
HETATM   23  C   UNL     1      34.169  -8.768   0.871  1.00  0.00     0.001 A 
HETATM   24  C   UNL     1      34.156  -8.912  -0.517  1.00  0.00     0.009 A 
ENDBRANCH  18  19
ENDBRANCH  15  18
ENDBRANCH  14  15
ENDBRANCH  12  14
ENDBRANCH   1   9
BRANCH   4  25
HETATM   25  N   UNL     1      41.472 -13.831   1.373  1.00  0.00    -0.334 N 
HETATM   26  C   UNL     1      41.481 -15.081   1.961  1.00  0.00     0.321 C 
HETATM   27  N   UNL     1      42.710 -15.352   2.519  1.00  0.00    -0.309 N 
HETATM   28  O   UNL     1      40.510 -15.823   1.921  1.00  0.00    -0.247 OA
HETATM   29  H   UNL     1      43.404 -14.627   2.431  1.00  0.00     0.170 HD
HETATM   30  H   UNL     1      42.051 -13.135   1.822  1.00  0.00     0.164 HD
BRANCH  27  31
HETATM   31  C   UNL     1      43.146 -16.559   3.103  1.00  0.00     0.037 A 
HETATM   32  C   UNL     1      43.101 -17.799   2.462  1.00  0.00     0.045 A 
HETATM   33  C   UNL     1      43.596 -18.957   3.091  1.00  0.00     0.050 A 
HETATM   34  C   UNL     1      44.114 -18.860   4.390  1.00  0.00     0.016 A 
HETATM   35  C   UNL     1      44.153 -17.628   5.040  1.00  0.00     0.003 A 
HETATM   36  C   UNL     1      43.675 -16.485   4.397  1.00  0.00     0.029 A 
BRANCH  33  37
HETATM   37  C   UNL     1      43.545 -20.293   2.392  1.00  0.00     0.417 C 
HETATM   38  F   UNL     1      44.475 -20.427   1.405  1.00  0.00    -0.166 F 
HETATM   39  F   UNL     1      43.754 -21.340   3.239  1.00  0.00    -0.166 F 
HETATM   40  F   UNL     1      42.340 -20.524   1.804  1.00  0.00    -0.166 F 
ENDBRANCH  33  37
ENDBRANCH  27  31
ENDBRANCH   4  25
TORSDOF 8
ENDMDL
MODEL 10
REMARK VINA RESULT:      -8.7      7.794     11.131
REMARK  8 active torsions:
REMARK  status: ('A' for Active; 'I' for Inactive)
REMARK    1  A    between atoms: N_2  and  C_4 
REMARK    2  A    between atoms: N_2  and  C_32 
REMARK    3  A    between atoms: C_4  and  C_5 
REMARK    4  A    between atoms: N_8  and  C_9 
REMARK    5  A    between atoms: C_12  and  N_13 
REMARK       I    between atoms: N_13  and  C_14 
REMARK       I    between atoms: C_14  and  N_15 
REMARK    6  A    between atoms: N_15  and  C_16 
REMARK    7  A    between atoms: C_18  and  C_19 
REMARK    8  A    between atoms: C_32  and  C_33 
ROOT
HETATM    1  C   UNL     1      37.723 -12.005  -1.119  1.00  0.00     0.161 C 
HETATM    2  C   UNL     1      39.129 -11.535  -0.783  1.00  0.00     0.179 C 
HETATM    3  C   UNL     1      39.959 -12.810  -0.771  1.00  0.00     0.177 C 
HETATM    4  C   UNL     1      40.250 -13.041   0.704  1.00  0.00     0.141 C 
HETATM    5  C   UNL     1      40.180 -11.628   1.280  1.00  0.00     0.196 C 
HETATM    6  O   UNL     1      39.167 -10.938   0.523  1.00  0.00    -0.379 OA
HETATM    7  O   UNL     1      39.154 -13.866  -1.324  1.00  0.00    -0.379 OA
HETATM    8  C   UNL     1      38.009 -13.250  -1.941  1.00  0.00     0.198 C 
ENDROOT
BRANCH   1   9
HETATM    9  N   UNL     1      36.928 -10.984  -1.758  1.00  0.00    -0.274 N 
HETATM   10  N   UNL     1      36.469  -9.913  -1.087  1.00  0.00     0.005 NA
HETATM   11  N   UNL     1      35.777  -9.166  -1.933  1.00  0.00    -0.161 NA
HETATM   12  C   UNL     1      35.805  -9.774  -3.160  1.00  0.00     0.095 A 
HETATM   13  C   UNL     1      36.549 -10.927  -3.074  1.00  0.00     0.139 A 
BRANCH  12  14
HETATM   14  C   UNL     1      35.058  -9.180  -4.295  1.00  0.00     0.296 C 
BRANCH  14  15
HETATM   15  N   UNL     1      33.730  -9.869  -4.537  1.00  0.00    -0.066 N 
HETATM   16  C   UNL     1      33.779 -10.816  -5.704  1.00  0.00     0.270 C 
HETATM   17  H   UNL     1      33.579 -10.455  -3.703  1.00  0.00     0.280 HD
BRANCH  15  18
HETATM   18  C   UNL     1      32.592  -8.888  -4.612  1.00  0.00     0.273 C 
BRANCH  18  19
HETATM   19  C   UNL     1      31.325  -9.391  -3.978  1.00  0.00    -0.033 A 
HETATM   20  C   UNL     1      30.079  -9.121  -4.565  1.00  0.00     0.009 A 
HETATM   21  C   UNL     1      28.902  -9.562  -3.959  1.00  0.00     0.001 A 
HETATM   22  C   UNL     1      28.957 -10.276  -2.763  1.00  0.00     0.000 A 
HETATM   23  C   UNL     1      30.188 -10.553  -2.173  1.00  0.00     0.001 A 
HETATM   24  C   UNL     1      31.368 -10.115  -2.776  1.00  0.00     0.009 A 
ENDBRANCH  18  19
ENDBRANCH  15  18
ENDBRANCH  14  15
ENDBRANCH  12  14
ENDBRANCH   1   9
BRANCH   4  25
HETATM   25  N   UNL     1      41.465 -13.792   0.989  1.00  0.00    -0.334 N 
HETATM   26  C   UNL     1      41.503 -14.810   1.922  1.00  0.00     0.321 C 
HETATM   27  N   UNL     1      42.748 -15.393   1.962  1.00  0.00    -0.309 N 
HETATM   28  O   UNL     1      40.516 -15.133   2.568  1.00  0.00    -0.247 OA
HETATM   29  H   UNL     1      43.436 -15.009   1.333  1.00  0.00     0.170 HD
HETATM   30  H   UNL     1      42.329 -13.283   0.865  1.00  0.00     0.164 HD
BRANCH  27  31
HETATM   31  C   UNL     1      43.147 -16.529   2.696  1.00  0.00     0.037 A 
HETATM   32  C   UNL     1      43.104 -17.835   2.202  1.00  0.00     0.045 A 
HETATM   33  C   UNL     1      43.561 -18.918   2.977  1.00  0.00     0.050 A 
HETATM   34  C   UNL     1      44.037 -18.676   4.273  1.00  0.00     0.016 A 
HETATM   35  C   UNL     1      44.073 -17.378   4.777  1.00  0.00     0.003 A 
HETATM   36  C   UNL     1      43.634 -16.312   3.991  1.00  0.00     0.029 A 
BRANCH  33  37
HETATM   37  C   UNL     1      43.513 -20.325   2.435  1.00  0.00     0.417 C 
HETATM   38  F   UNL     1      44.452 -20.573   1.480  1.00  0.00    -0.166 F 
HETATM   39  F   UNL     1      43.709 -21.268   3.398  1.00  0.00    -0.166 F 
HETATM   40  F   UNL     1      42.313 -20.619   1.864  1.00  0.00    -0.166 F 
ENDBRANCH  33  37
ENDBRANCH  27  31
ENDBRANCH   4  25
TORSDOF 8
ENDMDL
