MODEL 1
REMARK VINA RESULT:      -8.6      0.000      0.000
REMARK  3 active torsions:
REMARK  status: ('A' for Active; 'I' for Inactive)
REMARK    1  A    between atoms: C_6  and  C_7 
REMARK       I    between atoms: C_7  and  N_8 
REMARK    2  A    between atoms: N_8  and  C_9 
REMARK    3  A    between atoms: N_12  and  C_13 
ROOT
HETATM    1  C   UNL     1      42.913 -12.552   4.580  1.00  0.00     0.177 C 
HETATM    2  C   UNL     1      43.570 -12.262   5.953  1.00  0.00     0.248 C 
HETATM    3  O   UNL     1      44.466 -13.022   6.340  1.00  0.00    -0.271 OA
HETATM    4  N   UNL     1      43.118 -11.109   6.617  1.00  0.00    -0.299 N 
HETATM    5  C   UNL     1      41.743 -10.643   6.426  1.00  0.00     0.134 C 
HETATM    6  C   UNL     1      41.198 -10.839   5.023  1.00  0.00     0.023 C 
HETATM    7  C   UNL     1      41.417 -12.274   4.593  1.00  0.00     0.036 C 
ENDROOT
BRANCH   1   8
HETATM    8  N   UNL     1      43.215 -13.939   4.232  1.00  0.00    -0.344 N 
HETATM    9  C   UNL     1      42.457 -15.005   4.649  1.00  0.00     0.253 C 
HETATM   10  O   UNL     1      41.522 -14.913   5.435  1.00  0.00    -0.268 OA
HETATM   11  H   UNL     1      43.811 -14.057   3.414  1.00  0.00     0.163 HD
BRANCH   9  12
HETATM   12  C   UNL     1      42.821 -16.319   4.045  1.00  0.00     0.043 A 
HETATM   13  C   UNL     1      43.784 -17.153   4.656  1.00  0.00    -0.045 A 
HETATM   14  C   UNL     1      44.112 -18.375   4.042  1.00  0.00     0.014 A 
HETATM   15  C   UNL     1      44.486 -16.791   5.937  1.00  0.00     0.049 C 
HETATM   16  C   UNL     1      43.481 -18.789   2.865  1.00  0.00    -0.061 A 
HETATM   17  C   UNL     1      43.803 -20.119   2.249  1.00  0.00     0.048 C 
HETATM   18  C   UNL     1      42.497 -17.972   2.297  1.00  0.00     0.014 A 
HETATM   19  C   UNL     1      42.166 -16.731   2.864  1.00  0.00    -0.045 A 
HETATM   20  C   UNL     1      41.099 -15.897   2.205  1.00  0.00     0.049 C 
ENDBRANCH   9  12
ENDBRANCH   1   8
BRANCH   4  21
HETATM   21  C   UNL     1      43.870 -10.610   7.697  1.00  0.00     0.154 A 
HETATM   22  N   UNL     1      43.383 -10.423   8.928  1.00  0.00    -0.155 NA
HETATM   23  N   UNL     1      44.402  -9.929   9.641  1.00  0.00    -0.283 N 
HETATM   24  C   UNL     1      44.196  -9.568  11.023  1.00  0.00     0.179 C 
HETATM   25  C   UNL     1      45.564  -9.845   8.942  1.00  0.00     0.115 A 
HETATM   26  C   UNL     1      45.258 -10.286   7.677  1.00  0.00     0.071 A 
ENDBRANCH   4  21
TORSDOF 3
ENDMDL
MODEL 2
REMARK VINA RESULT:      -8.4      2.832      4.831
REMARK  3 active torsions:
REMARK  status: ('A' for Active; 'I' for Inactive)
REMARK    1  A    between atoms: C_6  and  C_7 
REMARK       I    between atoms: C_7  and  N_8 
REMARK    2  A    between atoms: N_8  and  C_9 
REMARK    3  A    between atoms: N_12  and  C_13 
ROOT
HETATM    1  C   UNL     1      42.160 -13.072   4.431  1.00  0.00     0.177 C 
HETATM    2  C   UNL     1      41.912 -12.310   3.106  1.00  0.00     0.248 C 
HETATM    3  O   UNL     1      41.822 -12.973   2.065  1.00  0.00    -0.271 OA
HETATM    4  N   UNL     1      41.755 -10.918   3.218  1.00  0.00    -0.299 N 
HETATM    5  C   UNL     1      42.436 -10.186   4.288  1.00  0.00     0.134 C 
HETATM    6  C   UNL     1      42.535 -10.937   5.604  1.00  0.00     0.023 C 
HETATM    7  C   UNL     1      43.106 -12.317   5.355  1.00  0.00     0.036 C 
ENDROOT
BRANCH   1   8
HETATM    8  N   UNL     1      42.665 -14.400   4.089  1.00  0.00    -0.344 N 
HETATM    9  C   UNL     1      42.092 -15.565   4.537  1.00  0.00     0.253 C 
HETATM   10  O   UNL     1      41.175 -15.607   5.348  1.00  0.00    -0.268 OA
HETATM   11  H   UNL     1      43.250 -14.436   3.256  1.00  0.00     0.163 HD
BRANCH   9  12
HETATM   12  C   UNL     1      42.640 -16.815   3.937  1.00  0.00     0.043 A 
HETATM   13  C   UNL     1      43.615 -17.577   4.619  1.00  0.00    -0.045 A 
HETATM   14  C   UNL     1      44.119 -18.739   4.008  1.00  0.00     0.014 A 
HETATM   15  C   UNL     1      44.147 -17.200   5.975  1.00  0.00     0.049 C 
HETATM   16  C   UNL     1      43.651 -19.165   2.761  1.00  0.00    -0.061 A 
HETATM   17  C   UNL     1      44.160 -20.435   2.144  1.00  0.00     0.048 C 
HETATM   18  C   UNL     1      42.654 -18.423   2.118  1.00  0.00     0.014 A 
HETATM   19  C   UNL     1      42.148 -17.241   2.684  1.00  0.00    -0.045 A 
HETATM   20  C   UNL     1      41.076 -16.486   1.943  1.00  0.00     0.049 C 
ENDBRANCH   9  12
ENDBRANCH   1   8
BRANCH   4  21
HETATM   21  C   UNL     1      41.223 -10.206   2.127  1.00  0.00     0.154 A 
HETATM   22  N   UNL     1      41.903  -9.923   1.011  1.00  0.00    -0.155 NA
HETATM   23  N   UNL     1      41.053  -9.230   0.244  1.00  0.00    -0.283 N 
HETATM   24  C   UNL     1      41.496  -8.727  -1.034  1.00  0.00     0.179 C 
HETATM   25  C   UNL     1      39.814  -9.102   0.785  1.00  0.00     0.115 A 
HETATM   26  C   UNL     1      39.884  -9.730   2.006  1.00  0.00     0.071 A 
ENDBRANCH   4  21
TORSDOF 3
ENDMDL
MODEL 3
REMARK VINA RESULT:      -8.3      4.217      6.455
REMARK  3 active torsions:
REMARK  status: ('A' for Active; 'I' for Inactive)
REMARK    1  A    between atoms: C_6  and  C_7 
REMARK       I    between atoms: C_7  and  N_8 
REMARK    2  A    between atoms: N_8  and  C_9 
REMARK    3  A    between atoms: N_12  and  C_13 
ROOT
HETATM    1  C   UNL     1      40.190 -14.277   3.346  1.00  0.00     0.177 C 
HETATM    2  C   UNL     1      40.331 -13.931   1.843  1.00  0.00     0.248 C 
HETATM    3  O   UNL     1      40.714 -14.823   1.076  1.00  0.00    -0.271 OA
HETATM    4  N   UNL     1      39.951 -12.629   1.475  1.00  0.00    -0.299 N 
HETATM    5  C   UNL     1      40.094 -11.526   2.428  1.00  0.00     0.134 C 
HETATM    6  C   UNL     1      39.817 -11.899   3.873  1.00  0.00     0.023 C 
HETATM    7  C   UNL     1      40.626 -13.125   4.241  1.00  0.00     0.036 C 
ENDROOT
BRANCH   1   8
HETATM    8  N   UNL     1      40.964 -15.492   3.593  1.00  0.00    -0.344 N 
HETATM    9  C   UNL     1      42.293 -15.485   3.938  1.00  0.00     0.253 C 
HETATM   10  O   UNL     1      42.985 -14.475   3.969  1.00  0.00    -0.268 OA
HETATM   11  H   UNL     1      40.409 -16.318   3.815  1.00  0.00     0.163 HD
BRANCH   9  12
HETATM   12  C   UNL     1      42.857 -16.811   4.322  1.00  0.00     0.043 A 
HETATM   13  C   UNL     1      42.854 -17.235   5.670  1.00  0.00    -0.045 A 
HETATM   14  C   UNL     1      43.414 -18.485   5.990  1.00  0.00     0.014 A 
HETATM   15  C   UNL     1      42.281 -16.406   6.787  1.00  0.00     0.049 C 
HETATM   16  C   UNL     1      43.940 -19.320   5.001  1.00  0.00    -0.061 A 
HETATM   17  C   UNL     1      44.487 -20.673   5.350  1.00  0.00     0.048 C 
HETATM   18  C   UNL     1      43.896 -18.904   3.665  1.00  0.00     0.014 A 
HETATM   19  C   UNL     1      43.373 -17.650   3.310  1.00  0.00    -0.045 A 
HETATM   20  C   UNL     1      43.354 -17.260   1.856  1.00  0.00     0.049 C 
ENDBRANCH   9  12
ENDBRANCH   1   8
BRANCH   4  21
HETATM   21  C   UNL     1      39.753 -12.340   0.112  1.00  0.00     0.154 A 
HETATM   22  N   UNL     1      40.740 -12.091  -0.754  1.00  0.00    -0.155 NA
HETATM   23  N   UNL     1      40.134 -11.853  -1.924  1.00  0.00    -0.283 N 
HETATM   24  C   UNL     1      40.926 -11.500  -3.077  1.00  0.00     0.179 C 
HETATM   25  C   UNL     1      38.784 -12.001  -1.875  1.00  0.00     0.115 A 
HETATM   26  C   UNL     1      38.501 -12.325  -0.570  1.00  0.00     0.071 A 
ENDBRANCH   4  21
TORSDOF 3
ENDMDL
MODEL 4
REMARK VINA RESULT:      -8.3      2.614      4.913
REMARK  3 active torsions:
REMARK  status: ('A' for Active; 'I' for Inactive)
REMARK    1  A    between atoms: C_6  and  C_7 
REMARK       I    between atoms: C_7  and  N_8 
REMARK    2  A    between atoms: N_8  and  C_9 
REMARK    3  A    between atoms: N_12  and  C_13 
ROOT
HETATM    1  C   UNL     1      42.363 -13.098   4.869  1.00  0.00     0.177 C 
HETATM    2  C   UNL     1      41.643 -12.375   3.703  1.00  0.00     0.248 C 
HETATM    3  O   UNL     1      41.232 -13.061   2.760  1.00  0.00    -0.271 OA
HETATM    4  N   UNL     1      41.472 -10.988   3.855  1.00  0.00    -0.299 N 
HETATM    5  C   UNL     1      42.446 -10.207   4.622  1.00  0.00     0.134 C 
HETATM    6  C   UNL     1      43.021 -10.926   5.829  1.00  0.00     0.023 C 
HETATM    7  C   UNL     1      43.533 -12.288   5.408  1.00  0.00     0.036 C 
ENDROOT
BRANCH   1   8
HETATM    8  N   UNL     1      42.778 -14.412   4.382  1.00  0.00    -0.344 N 
HETATM    9  C   UNL     1      42.158 -15.583   4.746  1.00  0.00     0.253 C 
HETATM   10  O   UNL     1      41.273 -15.655   5.589  1.00  0.00    -0.268 OA
HETATM   11  H   UNL     1      43.327 -14.399   3.524  1.00  0.00     0.163 HD
BRANCH   9  12
HETATM   12  C   UNL     1      42.611 -16.797   4.007  1.00  0.00     0.043 A 
HETATM   13  C   UNL     1      42.023 -17.153   2.773  1.00  0.00    -0.045 A 
HETATM   14  C   UNL     1      42.466 -18.317   2.120  1.00  0.00     0.014 A 
HETATM   15  C   UNL     1      40.933 -16.345   2.122  1.00  0.00     0.049 C 
HETATM   16  C   UNL     1      43.493 -19.102   2.652  1.00  0.00    -0.061 A 
HETATM   17  C   UNL     1      43.992 -20.312   1.918  1.00  0.00     0.048 C 
HETATM   18  C   UNL     1      44.096 -18.712   3.852  1.00  0.00     0.014 A 
HETATM   19  C   UNL     1      43.659 -17.573   4.549  1.00  0.00    -0.045 A 
HETATM   20  C   UNL     1      44.347 -17.205   5.837  1.00  0.00     0.049 C 
ENDBRANCH   9  12
ENDBRANCH   1   8
BRANCH   4  21
HETATM   21  C   UNL     1      40.569 -10.319   3.007  1.00  0.00     0.154 A 
HETATM   22  N   UNL     1      40.926  -9.655   1.904  1.00  0.00    -0.155 NA
HETATM   23  N   UNL     1      39.787  -9.160   1.403  1.00  0.00    -0.283 N 
HETATM   24  C   UNL     1      39.828  -8.340   0.217  1.00  0.00     0.179 C 
HETATM   25  C   UNL     1      38.682  -9.530   2.102  1.00  0.00     0.115 A 
HETATM   26  C   UNL     1      39.151 -10.291   3.147  1.00  0.00     0.071 A 
ENDBRANCH   4  21
TORSDOF 3
ENDMDL
MODEL 5
REMARK VINA RESULT:      -8.1      4.177      6.526
REMARK  3 active torsions:
REMARK  status: ('A' for Active; 'I' for Inactive)
REMARK    1  A    between atoms: C_6  and  C_7 
REMARK       I    between atoms: C_7  and  N_8 
REMARK    2  A    between atoms: N_8  and  C_9 
REMARK    3  A    between atoms: N_12  and  C_13 
ROOT
HETATM    1  C   UNL     1      40.188 -14.234   3.420  1.00  0.00     0.177 C 
HETATM    2  C   UNL     1      40.315 -13.835   1.929  1.00  0.00     0.248 C 
HETATM    3  O   UNL     1      40.693 -14.698   1.128  1.00  0.00    -0.271 OA
HETATM    4  N   UNL     1      39.928 -12.522   1.610  1.00  0.00    -0.299 N 
HETATM    5  C   UNL     1      40.075 -11.452   2.600  1.00  0.00     0.134 C 
HETATM    6  C   UNL     1      39.812 -11.877   4.034  1.00  0.00     0.023 C 
HETATM    7  C   UNL     1      40.628 -13.112   4.351  1.00  0.00     0.036 C 
ENDROOT
BRANCH   1   8
HETATM    8  N   UNL     1      40.967 -15.454   3.617  1.00  0.00    -0.344 N 
HETATM    9  C   UNL     1      42.286 -15.455   4.001  1.00  0.00     0.253 C 
HETATM   10  O   UNL     1      42.966 -14.442   4.112  1.00  0.00    -0.268 OA
HETATM   11  H   UNL     1      40.416 -16.296   3.773  1.00  0.00     0.163 HD
BRANCH   9  12
HETATM   12  C   UNL     1      42.854 -16.796   4.322  1.00  0.00     0.043 A 
HETATM   13  C   UNL     1      43.391 -17.615   3.304  1.00  0.00    -0.045 A 
HETATM   14  C   UNL     1      43.899 -18.881   3.648  1.00  0.00     0.014 A 
HETATM   15  C   UNL     1      43.442 -17.198   1.859  1.00  0.00     0.049 C 
HETATM   16  C   UNL     1      43.909 -19.324   4.973  1.00  0.00    -0.061 A 
HETATM   17  C   UNL     1      44.501 -20.655   5.333  1.00  0.00     0.048 C 
HETATM   18  C   UNL     1      43.414 -18.482   5.976  1.00  0.00     0.014 A 
HETATM   19  C   UNL     1      42.871 -17.225   5.667  1.00  0.00    -0.045 A 
HETATM   20  C   UNL     1      42.353 -16.365   6.790  1.00  0.00     0.049 C 
ENDBRANCH   9  12
ENDBRANCH   1   8
BRANCH   4  21
HETATM   21  C   UNL     1      39.717 -12.185   0.260  1.00  0.00     0.154 A 
HETATM   22  N   UNL     1      38.535 -12.272  -0.360  1.00  0.00    -0.155 NA
HETATM   23  N   UNL     1      38.766 -11.879  -1.619  1.00  0.00    -0.283 N 
HETATM   24  C   UNL     1      37.689 -11.899  -2.579  1.00  0.00     0.179 C 
HETATM   25  C   UNL     1      40.044 -11.474  -1.835  1.00  0.00     0.115 A 
HETATM   26  C   UNL     1      40.690 -11.651  -0.634  1.00  0.00     0.071 A 
ENDBRANCH   4  21
TORSDOF 3
ENDMDL
MODEL 6
REMARK VINA RESULT:      -8.0      2.662      3.045
REMARK  3 active torsions:
REMARK  status: ('A' for Active; 'I' for Inactive)
REMARK    1  A    between atoms: C_6  and  C_7 
REMARK       I    between atoms: C_7  and  N_8 
REMARK    2  A    between atoms: N_8  and  C_9 
REMARK    3  A    between atoms: N_12  and  C_13 
ROOT
HETATM    1  C   UNL     1      40.932 -12.700   3.719  1.00  0.00     0.177 C 
HETATM    2  C   UNL     1      40.812 -12.142   5.159  1.00  0.00     0.248 C 
HETATM    3  O   UNL     1      41.463 -12.698   6.052  1.00  0.00    -0.271 OA
HETATM    4  N   UNL     1      40.004 -11.002   5.309  1.00  0.00    -0.299 N 
HETATM    5  C   UNL     1      38.863 -10.787   4.415  1.00  0.00     0.134 C 
HETATM    6  C   UNL     1      39.089 -11.239   2.984  1.00  0.00     0.023 C 
HETATM    7  C   UNL     1      39.602 -12.663   2.979  1.00  0.00     0.036 C 
ENDROOT
BRANCH   1   8
HETATM    8  N   UNL     1      41.475 -14.054   3.815  1.00  0.00    -0.344 N 
HETATM    9  C   UNL     1      42.779 -14.368   3.519  1.00  0.00     0.253 C 
HETATM   10  O   UNL     1      43.583 -13.574   3.048  1.00  0.00    -0.268 OA
HETATM   11  H   UNL     1      40.945 -14.688   4.411  1.00  0.00     0.163 HD
BRANCH   9  12
HETATM   12  C   UNL     1      43.186 -15.764   3.849  1.00  0.00     0.043 A 
HETATM   13  C   UNL     1      43.604 -16.106   5.155  1.00  0.00    -0.045 A 
HETATM   14  C   UNL     1      43.998 -17.429   5.419  1.00  0.00     0.014 A 
HETATM   15  C   UNL     1      43.653 -15.112   6.285  1.00  0.00     0.049 C 
HETATM   16  C   UNL     1      43.953 -18.411   4.425  1.00  0.00    -0.061 A 
HETATM   17  C   UNL     1      44.327 -19.832   4.733  1.00  0.00     0.048 C 
HETATM   18  C   UNL     1      43.494 -18.068   3.148  1.00  0.00     0.014 A 
HETATM   19  C   UNL     1      43.122 -16.749   2.840  1.00  0.00    -0.045 A 
HETATM   20  C   UNL     1      42.638 -16.441   1.448  1.00  0.00     0.049 C 
ENDBRANCH   9  12
ENDBRANCH   1   8
BRANCH   4  21
HETATM   21  C   UNL     1      40.092 -10.261   6.503  1.00  0.00     0.154 A 
HETATM   22  N   UNL     1      39.311 -10.460   7.570  1.00  0.00    -0.155 NA
HETATM   23  N   UNL     1      39.703  -9.551   8.470  1.00  0.00    -0.283 N 
HETATM   24  C   UNL     1      39.021  -9.465   9.738  1.00  0.00     0.179 C 
HETATM   25  C   UNL     1      40.760  -8.802   8.061  1.00  0.00     0.115 A 
HETATM   26  C   UNL     1      41.045  -9.241   6.790  1.00  0.00     0.071 A 
ENDBRANCH   4  21
TORSDOF 3
ENDMDL
MODEL 7
REMARK VINA RESULT:      -8.0      2.653      3.406
REMARK  3 active torsions:
REMARK  status: ('A' for Active; 'I' for Inactive)
REMARK    1  A    between atoms: C_6  and  C_7 
REMARK       I    between atoms: C_7  and  N_8 
REMARK    2  A    between atoms: N_8  and  C_9 
REMARK    3  A    between atoms: N_12  and  C_13 
ROOT
HETATM    1  C   UNL     1      40.918 -12.571   3.724  1.00  0.00     0.177 C 
HETATM    2  C   UNL     1      40.799 -12.052   5.178  1.00  0.00     0.248 C 
HETATM    3  O   UNL     1      41.444 -12.636   6.057  1.00  0.00    -0.271 OA
HETATM    4  N   UNL     1      39.998 -10.912   5.358  1.00  0.00    -0.299 N 
HETATM    5  C   UNL     1      38.860 -10.665   4.469  1.00  0.00     0.134 C 
HETATM    6  C   UNL     1      39.085 -11.079   3.026  1.00  0.00     0.023 C 
HETATM    7  C   UNL     1      39.589 -12.506   2.984  1.00  0.00     0.036 C 
ENDROOT
BRANCH   1   8
HETATM    8  N   UNL     1      41.451 -13.931   3.784  1.00  0.00    -0.344 N 
HETATM    9  C   UNL     1      42.763 -14.241   3.521  1.00  0.00     0.253 C 
HETATM   10  O   UNL     1      43.586 -13.433   3.110  1.00  0.00    -0.268 OA
HETATM   11  H   UNL     1      40.899 -14.585   4.336  1.00  0.00     0.163 HD
BRANCH   9  12
HETATM   12  C   UNL     1      43.153 -15.651   3.809  1.00  0.00     0.043 A 
HETATM   13  C   UNL     1      43.173 -16.619   2.779  1.00  0.00    -0.045 A 
HETATM   14  C   UNL     1      43.527 -17.942   3.098  1.00  0.00     0.014 A 
HETATM   15  C   UNL     1      42.824 -16.302   1.350  1.00  0.00     0.049 C 
HETATM   16  C   UNL     1      43.889 -18.304   4.399  1.00  0.00    -0.061 A 
HETATM   17  C   UNL     1      44.316 -19.708   4.714  1.00  0.00     0.048 C 
HETATM   18  C   UNL     1      43.907 -17.324   5.398  1.00  0.00     0.014 A 
HETATM   19  C   UNL     1      43.529 -16.000   5.124  1.00  0.00    -0.045 A 
HETATM   20  C   UNL     1      43.568 -14.991   6.241  1.00  0.00     0.049 C 
ENDBRANCH   9  12
ENDBRANCH   1   8
BRANCH   4  21
HETATM   21  C   UNL     1      40.088 -10.203   6.571  1.00  0.00     0.154 A 
HETATM   22  N   UNL     1      39.286 -10.406   7.621  1.00  0.00    -0.155 NA
HETATM   23  N   UNL     1      39.690  -9.532   8.551  1.00  0.00    -0.283 N 
HETATM   24  C   UNL     1      38.991  -9.458   9.810  1.00  0.00     0.179 C 
HETATM   25  C   UNL     1      40.774  -8.804   8.176  1.00  0.00     0.115 A 
HETATM   26  C   UNL     1      41.066  -9.218   6.898  1.00  0.00     0.071 A 
ENDBRANCH   4  21
TORSDOF 3
ENDMDL
MODEL 8
REMARK VINA RESULT:      -7.9      4.251      6.633
REMARK  3 active torsions:
REMARK  status: ('A' for Active; 'I' for Inactive)
REMARK    1  A    between atoms: C_6  and  C_7 
REMARK       I    between atoms: C_7  and  N_8 
REMARK    2  A    between atoms: N_8  and  C_9 
REMARK    3  A    between atoms: N_12  and  C_13 
ROOT
HETATM    1  C   UNL     1      41.180 -14.500   0.608  1.00  0.00     0.177 C 
HETATM    2  C   UNL     1      41.118 -12.960   0.768  1.00  0.00     0.248 C 
HETATM    3  O   UNL     1      41.723 -12.451   1.719  1.00  0.00    -0.271 OA
HETATM    4  N   UNL     1      40.414 -12.268  -0.232  1.00  0.00    -0.299 N 
HETATM    5  C   UNL     1      39.292 -12.911  -0.920  1.00  0.00     0.134 C 
HETATM    6  C   UNL     1      39.468 -14.399  -1.162  1.00  0.00     0.023 C 
HETATM    7  C   UNL     1      39.853 -15.079   0.135  1.00  0.00     0.036 C 
ENDROOT
BRANCH   1   8
HETATM    8  N   UNL     1      41.601 -15.059   1.891  1.00  0.00    -0.344 N 
HETATM    9  C   UNL     1      42.915 -15.273   2.227  1.00  0.00     0.253 C 
HETATM   10  O   UNL     1      43.852 -15.120   1.453  1.00  0.00    -0.268 OA
HETATM   11  H   UNL     1      40.915 -14.981   2.640  1.00  0.00     0.163 HD
BRANCH   9  12
HETATM   12  C   UNL     1      43.152 -15.681   3.642  1.00  0.00     0.043 A 
HETATM   13  C   UNL     1      43.170 -14.720   4.677  1.00  0.00    -0.045 A 
HETATM   14  C   UNL     1      43.415 -15.145   5.995  1.00  0.00     0.014 A 
HETATM   15  C   UNL     1      42.943 -13.251   4.435  1.00  0.00     0.049 C 
HETATM   16  C   UNL     1      43.608 -16.495   6.298  1.00  0.00    -0.061 A 
HETATM   17  C   UNL     1      43.817 -16.942   7.716  1.00  0.00     0.048 C 
HETATM   18  C   UNL     1      43.542 -17.440   5.268  1.00  0.00     0.014 A 
HETATM   19  C   UNL     1      43.330 -17.050   3.936  1.00  0.00    -0.045 A 
HETATM   20  C   UNL     1      43.271 -18.114   2.871  1.00  0.00     0.049 C 
ENDBRANCH   9  12
ENDBRANCH   1   8
BRANCH   4  21
HETATM   21  C   UNL     1      40.574 -10.874  -0.333  1.00  0.00     0.154 A 
HETATM   22  N   UNL     1      41.612 -10.278  -0.930  1.00  0.00    -0.155 NA
HETATM   23  N   UNL     1      41.392  -8.964  -0.795  1.00  0.00    -0.283 N 
HETATM   24  C   UNL     1      42.364  -8.025  -1.299  1.00  0.00     0.179 C 
HETATM   25  C   UNL     1      40.212  -8.671  -0.188  1.00  0.00     0.115 A 
HETATM   26  C   UNL     1      39.650  -9.887   0.119  1.00  0.00     0.071 A 
ENDBRANCH   4  21
TORSDOF 3
ENDMDL
MODEL 9
REMARK VINA RESULT:      -7.9      2.785      4.555
REMARK  3 active torsions:
REMARK  status: ('A' for Active; 'I' for Inactive)
REMARK    1  A    between atoms: C_6  and  C_7 
REMARK       I    between atoms: C_7  and  N_8 
REMARK    2  A    between atoms: N_8  and  C_9 
REMARK    3  A    between atoms: N_12  and  C_13 
ROOT
HETATM    1  C   UNL     1      41.764 -13.786   4.871  1.00  0.00     0.177 C 
HETATM    2  C   UNL     1      42.866 -12.752   5.210  1.00  0.00     0.248 C 
HETATM    3  O   UNL     1      43.123 -11.881   4.369  1.00  0.00    -0.271 OA
HETATM    4  N   UNL     1      43.444 -12.867   6.485  1.00  0.00    -0.299 N 
HETATM    5  C   UNL     1      43.541 -14.177   7.133  1.00  0.00     0.134 C 
HETATM    6  C   UNL     1      42.367 -15.102   6.866  1.00  0.00     0.023 C 
HETATM    7  C   UNL     1      42.115 -15.179   5.375  1.00  0.00     0.036 C 
ENDROOT
BRANCH   1   8
HETATM    8  N   UNL     1      41.562 -13.756   3.424  1.00  0.00    -0.344 N 
HETATM    9  C   UNL     1      40.387 -13.359   2.834  1.00  0.00     0.253 C 
HETATM   10  O   UNL     1      39.365 -13.095   3.455  1.00  0.00    -0.268 OA
HETATM   11  H   UNL     1      42.417 -13.729   2.871  1.00  0.00     0.163 HD
BRANCH   9  12
HETATM   12  C   UNL     1      40.435 -13.227   1.349  1.00  0.00     0.043 A 
HETATM   13  C   UNL     1      40.752 -11.990   0.744  1.00  0.00    -0.045 A 
HETATM   14  C   UNL     1      40.767 -11.904  -0.660  1.00  0.00     0.014 A 
HETATM   15  C   UNL     1      41.070 -10.749   1.534  1.00  0.00     0.049 C 
HETATM   16  C   UNL     1      40.507 -13.021  -1.458  1.00  0.00    -0.061 A 
HETATM   17  C   UNL     1      40.578 -12.929  -2.954  1.00  0.00     0.048 C 
HETATM   18  C   UNL     1      40.239 -14.250  -0.844  1.00  0.00     0.014 A 
HETATM   19  C   UNL     1      40.185 -14.367   0.555  1.00  0.00    -0.045 A 
HETATM   20  C   UNL     1      39.890 -15.715   1.157  1.00  0.00     0.049 C 
ENDBRANCH   9  12
ENDBRANCH   1   8
BRANCH   4  21
HETATM   21  C   UNL     1      44.212 -11.797   6.981  1.00  0.00     0.154 A 
HETATM   22  N   UNL     1      43.739 -10.847   7.795  1.00  0.00    -0.155 NA
HETATM   23  N   UNL     1      44.771 -10.023   8.015  1.00  0.00    -0.283 N 
HETATM   24  C   UNL     1      44.582  -8.848   8.831  1.00  0.00     0.179 C 
HETATM   25  C   UNL     1      45.927 -10.431   7.429  1.00  0.00     0.115 A 
HETATM   26  C   UNL     1      45.604 -11.585   6.755  1.00  0.00     0.071 A 
ENDBRANCH   4  21
TORSDOF 3
ENDMDL
MODEL 10
REMARK VINA RESULT:      -7.8      1.441      2.291
REMARK  3 active torsions:
REMARK  status: ('A' for Active; 'I' for Inactive)
REMARK    1  A    between atoms: C_6  and  C_7 
REMARK       I    between atoms: C_7  and  N_8 
REMARK    2  A    between atoms: N_8  and  C_9 
REMARK    3  A    between atoms: N_12  and  C_13 
ROOT
HETATM    1  C   UNL     1      43.550 -12.135   5.293  1.00  0.00     0.177 C 
HETATM    2  C   UNL     1      43.438 -11.605   6.744  1.00  0.00     0.248 C 
HETATM    3  O   UNL     1      43.840 -12.332   7.660  1.00  0.00    -0.271 OA
HETATM    4  N   UNL     1      42.932 -10.301   6.883  1.00  0.00    -0.299 N 
HETATM    5  C   UNL     1      41.972  -9.778   5.908  1.00  0.00     0.134 C 
HETATM    6  C   UNL     1      42.211 -10.232   4.479  1.00  0.00     0.023 C 
HETATM    7  C   UNL     1      42.348 -11.740   4.446  1.00  0.00     0.036 C 
ENDROOT
BRANCH   1   8
HETATM    8  N   UNL     1      43.722 -13.584   5.366  1.00  0.00    -0.344 N 
HETATM    9  C   UNL     1      42.684 -14.476   5.252  1.00  0.00     0.253 C 
HETATM   10  O   UNL     1      41.506 -14.148   5.186  1.00  0.00    -0.268 OA
HETATM   11  H   UNL     1      44.668 -13.915   5.181  1.00  0.00     0.163 HD
BRANCH   9  12
HETATM   12  C   UNL     1      43.084 -15.910   5.173  1.00  0.00     0.043 A 
HETATM   13  C   UNL     1      43.308 -16.531   3.923  1.00  0.00    -0.045 A 
HETATM   14  C   UNL     1      43.664 -17.890   3.893  1.00  0.00     0.014 A 
HETATM   15  C   UNL     1      43.177 -15.802   2.613  1.00  0.00     0.049 C 
HETATM   16  C   UNL     1      43.830 -18.623   5.072  1.00  0.00    -0.061 A 
HETATM   17  C   UNL     1      44.262 -20.060   5.028  1.00  0.00     0.048 C 
HETATM   18  C   UNL     1      43.648 -17.984   6.303  1.00  0.00     0.014 A 
HETATM   19  C   UNL     1      43.262 -16.635   6.372  1.00  0.00    -0.045 A 
HETATM   20  C   UNL     1      43.080 -16.003   7.726  1.00  0.00     0.049 C 
ENDBRANCH   9  12
ENDBRANCH   1   8
BRANCH   4  21
HETATM   21  C   UNL     1      43.090  -9.640   8.115  1.00  0.00     0.154 A 
HETATM   22  N   UNL     1      42.118  -9.499   9.022  1.00  0.00    -0.155 NA
HETATM   23  N   UNL     1      42.669  -8.808  10.028  1.00  0.00    -0.283 N 
HETATM   24  C   UNL     1      41.861  -8.442  11.166  1.00  0.00     0.179 C 
HETATM   25  C   UNL     1      43.989  -8.544   9.846  1.00  0.00     0.115 A 
HETATM   26  C   UNL     1      44.300  -9.077   8.617  1.00  0.00     0.071 A 
ENDBRANCH   4  21
TORSDOF 3
ENDMDL
