MODEL 1
REMARK VINA RESULT:     -10.6      0.000      0.000
REMARK  7 active torsions:
REMARK  status: ('A' for Active; 'I' for Inactive)
REMARK    1  A    between atoms: C_9  and  O_10 
REMARK    2  A    between atoms: O_10  and  C_11 
REMARK    3  A    between atoms: C_11  and  C_12 
REMARK    4  A    between atoms: C_15  and  C_16 
REMARK       I    between atoms: C_16  and  N_17 
REMARK    5  A    between atoms: N_17  and  N_18 
REMARK    6  A    between atoms: C_19  and  N_20 
REMARK    7  A    between atoms: C_21  and  C_22 
ROOT
HETATM    1  C   UNL     1      43.679 -10.431   8.266  1.00  0.00     0.270 C 
HETATM    2  N   UNL     1      42.634  -9.770   8.888  1.00  0.00    -0.262 N 
HETATM    3  O   UNL     1      44.871 -10.206   8.460  1.00  0.00    -0.266 OA
HETATM    4  H   UNL     1      41.655  -9.913   8.658  1.00  0.00     0.190 HD
ENDROOT
BRANCH   2   5
HETATM    5  N   UNL     1      42.872  -8.835   9.906  1.00  0.00    -0.270 N 
HETATM    6  C   UNL     1      42.306  -9.009  11.168  1.00  0.00     0.113 C 
HETATM    7  C   UNL     1      42.126  -7.842  11.819  1.00  0.00     0.097 C 
HETATM    8  C   UNL     1      42.538  -6.786  10.863  1.00  0.00     0.186 C 
HETATM    9  O   UNL     1      42.499  -5.588  11.121  1.00  0.00    -0.290 OA
HETATM   10  C   UNL     1      42.967  -7.411   9.552  1.00  0.00     0.234 C 
BRANCH   6  11
HETATM   11  N   UNL     1      41.989 -10.263  11.644  1.00  0.00    -0.286 NA
HETATM   12  H   UNL     1      41.898 -10.912  10.867  1.00  0.00     0.125 HD
HETATM   13  H   UNL     1      42.709 -10.588  12.302  1.00  0.00     0.125 HD
ENDBRANCH   6  11
BRANCH   7  14
HETATM   14  C   UNL     1      41.633  -7.660  13.122  1.00  0.00     0.146 A 
HETATM   15  N   UNL     1      42.016  -8.188  14.273  1.00  0.00    -0.228 NA
HETATM   16  C   UNL     1      41.198  -7.633  15.229  1.00  0.00     0.086 A 
HETATM   17  C   UNL     1      40.299  -6.741  14.657  1.00  0.00     0.062 A 
HETATM   18  C   UNL     1      41.167  -7.839  16.616  1.00  0.00     0.034 A 
HETATM   19  N   UNL     1      40.593  -6.780  13.320  1.00  0.00    -0.338 N 
HETATM   20  C   UNL     1      39.354  -6.022  15.392  1.00  0.00     0.032 A 
HETATM   21  H   UNL     1      40.136  -6.246  12.588  1.00  0.00     0.167 HD
HETATM   22  C   UNL     1      39.340  -6.239  16.775  1.00  0.00     0.002 A 
HETATM   23  C   UNL     1      40.228  -7.131  17.379  1.00  0.00     0.002 A 
ENDBRANCH   7  14
ENDBRANCH   2   5
BRANCH   1  24
HETATM   24  C   UNL     1      43.281 -11.437   7.247  1.00  0.00     0.033 A 
HETATM   25  C   UNL     1      42.224 -11.124   6.385  1.00  0.00     0.017 A 
HETATM   26  C   UNL     1      41.816 -12.042   5.416  1.00  0.00     0.010 A 
HETATM   27  C   UNL     1      42.464 -13.278   5.287  1.00  0.00    -0.034 A 
HETATM   28  C   UNL     1      43.545 -13.572   6.133  1.00  0.00     0.010 A 
HETATM   29  C   UNL     1      43.951 -12.659   7.111  1.00  0.00     0.017 A 
BRANCH  27  30
HETATM   30  C   UNL     1      42.016 -14.258   4.228  1.00  0.00     0.214 C 
BRANCH  30  31
HETATM   31  O   UNL     1      43.165 -14.693   3.505  1.00  0.00    -0.347 OA
BRANCH  31  32
HETATM   32  C   UNL     1      43.263 -16.030   3.235  1.00  0.00     0.070 A 
HETATM   33  C   UNL     1      43.115 -16.628   1.986  1.00  0.00     0.037 A 
HETATM   34  C   UNL     1      43.249 -18.014   1.850  1.00  0.00     0.015 A 
HETATM   35  C   UNL     1      43.530 -18.824   2.961  1.00  0.00    -0.026 A 
HETATM   36  C   UNL     1      43.669 -20.216   2.839  1.00  0.00     0.012 A 
HETATM   37  C   UNL     1      43.674 -18.223   4.230  1.00  0.00    -0.023 A 
HETATM   38  C   UNL     1      43.947 -21.006   3.955  1.00  0.00     0.001 A 
HETATM   39  C   UNL     1      44.087 -20.415   5.207  1.00  0.00     0.001 A 
HETATM   40  C   UNL     1      43.953 -19.032   5.344  1.00  0.00     0.012 A 
HETATM   41  C   UNL     1      43.537 -16.830   4.348  1.00  0.00     0.049 A 
ENDBRANCH  31  32
ENDBRANCH  30  31
ENDBRANCH  27  30
ENDBRANCH   1  24
TORSDOF 7
ENDMDL
MODEL 2
REMARK VINA RESULT:      -9.9      2.459      3.634
REMARK  7 active torsions:
REMARK  status: ('A' for Active; 'I' for Inactive)
REMARK    1  A    between atoms: C_9  and  O_10 
REMARK    2  A    between atoms: O_10  and  C_11 
REMARK    3  A    between atoms: C_11  and  C_12 
REMARK    4  A    between atoms: C_15  and  C_16 
REMARK       I    between atoms: C_16  and  N_17 
REMARK    5  A    between atoms: N_17  and  N_18 
REMARK    6  A    between atoms: C_19  and  N_20 
REMARK    7  A    between atoms: C_21  and  C_22 
ROOT
HETATM    1  C   UNL     1      40.755 -10.418   4.410  1.00  0.00     0.270 C 
HETATM    2  N   UNL     1      40.543 -10.658   5.756  1.00  0.00    -0.262 N 
HETATM    3  O   UNL     1      40.767  -9.307   3.885  1.00  0.00    -0.266 OA
HETATM    4  H   UNL     1      40.457 -11.587   6.160  1.00  0.00     0.190 HD
ENDROOT
BRANCH   2   5
HETATM    5  N   UNL     1      40.431  -9.602   6.672  1.00  0.00    -0.270 N 
HETATM    6  C   UNL     1      41.181  -9.608   7.847  1.00  0.00     0.113 C 
HETATM    7  C   UNL     1      40.591  -8.910   8.840  1.00  0.00     0.097 C 
HETATM    8  C   UNL     1      39.286  -8.467   8.293  1.00  0.00     0.186 C 
HETATM    9  O   UNL     1      38.475  -7.807   8.932  1.00  0.00    -0.290 OA
HETATM   10  C   UNL     1      39.117  -8.978   6.877  1.00  0.00     0.234 C 
BRANCH   6  11
HETATM   11  N   UNL     1      42.387 -10.270   7.924  1.00  0.00    -0.286 NA
HETATM   12  H   UNL     1      42.259 -11.246   7.672  1.00  0.00     0.125 HD
HETATM   13  H   UNL     1      43.079  -9.825   7.307  1.00  0.00     0.125 HD
ENDBRANCH   6  11
BRANCH   7  14
HETATM   14  C   UNL     1      41.097  -8.668  10.128  1.00  0.00     0.146 A 
HETATM   15  N   UNL     1      42.249  -8.154  10.523  1.00  0.00    -0.228 NA
HETATM   16  C   UNL     1      42.195  -8.126  11.897  1.00  0.00     0.086 A 
HETATM   17  C   UNL     1      40.984  -8.627  12.357  1.00  0.00     0.062 A 
HETATM   18  C   UNL     1      43.147  -7.680  12.826  1.00  0.00     0.034 A 
HETATM   19  N   UNL     1      40.306  -8.968  11.216  1.00  0.00    -0.338 N 
HETATM   20  C   UNL     1      40.648  -8.710  13.709  1.00  0.00     0.032 A 
HETATM   21  H   UNL     1      39.374  -9.364  11.166  1.00  0.00     0.167 HD
HETATM   22  C   UNL     1      41.609  -8.258  14.622  1.00  0.00     0.002 A 
HETATM   23  C   UNL     1      42.838  -7.752  14.191  1.00  0.00     0.002 A 
ENDBRANCH   7  14
ENDBRANCH   2   5
BRANCH   1  24
HETATM   24  C   UNL     1      40.912 -11.628   3.562  1.00  0.00     0.033 A 
HETATM   25  C   UNL     1      40.265 -12.803   3.960  1.00  0.00     0.017 A 
HETATM   26  C   UNL     1      40.388 -13.964   3.194  1.00  0.00     0.010 A 
HETATM   27  C   UNL     1      41.151 -13.964   2.018  1.00  0.00    -0.034 A 
HETATM   28  C   UNL     1      41.771 -12.774   1.608  1.00  0.00     0.010 A 
HETATM   29  C   UNL     1      41.656 -11.611   2.376  1.00  0.00     0.017 A 
BRANCH  27  30
HETATM   30  C   UNL     1      41.270 -15.227   1.196  1.00  0.00     0.214 C 
BRANCH  30  31
HETATM   31  O   UNL     1      42.630 -15.653   1.226  1.00  0.00    -0.347 OA
BRANCH  31  32
HETATM   32  C   UNL     1      43.007 -16.462   2.262  1.00  0.00     0.070 A 
HETATM   33  C   UNL     1      43.305 -16.051   3.559  1.00  0.00     0.037 A 
HETATM   34  C   UNL     1      43.670 -16.991   4.529  1.00  0.00     0.015 A 
HETATM   35  C   UNL     1      43.748 -18.357   4.216  1.00  0.00    -0.026 A 
HETATM   36  C   UNL     1      44.112 -19.311   5.179  1.00  0.00     0.012 A 
HETATM   37  C   UNL     1      43.454 -18.778   2.901  1.00  0.00    -0.023 A 
HETATM   38  C   UNL     1      44.186 -20.666   4.850  1.00  0.00     0.001 A 
HETATM   39  C   UNL     1      43.898 -21.081   3.553  1.00  0.00     0.001 A 
HETATM   40  C   UNL     1      43.533 -20.144   2.585  1.00  0.00     0.012 A 
HETATM   41  C   UNL     1      43.087 -17.820   1.941  1.00  0.00     0.049 A 
ENDBRANCH  31  32
ENDBRANCH  30  31
ENDBRANCH  27  30
ENDBRANCH   1  24
TORSDOF 7
ENDMDL
MODEL 3
REMARK VINA RESULT:      -9.9      2.754     13.132
REMARK  7 active torsions:
REMARK  status: ('A' for Active; 'I' for Inactive)
REMARK    1  A    between atoms: C_9  and  O_10 
REMARK    2  A    between atoms: O_10  and  C_11 
REMARK    3  A    between atoms: C_11  and  C_12 
REMARK    4  A    between atoms: C_15  and  C_16 
REMARK       I    between atoms: C_16  and  N_17 
REMARK    5  A    between atoms: N_17  and  N_18 
REMARK    6  A    between atoms: C_19  and  N_20 
REMARK    7  A    between atoms: C_21  and  C_22 
ROOT
HETATM    1  C   UNL     1      43.805 -11.748   7.006  1.00  0.00     0.270 C 
HETATM    2  N   UNL     1      42.573 -12.293   6.692  1.00  0.00    -0.262 N 
HETATM    3  O   UNL     1      44.859 -12.006   6.430  1.00  0.00    -0.266 OA
HETATM    4  H   UNL     1      41.726 -12.130   7.229  1.00  0.00     0.190 HD
ENDROOT
BRANCH   2   5
HETATM    5  N   UNL     1      42.414 -13.131   5.578  1.00  0.00    -0.270 N 
HETATM    6  C   UNL     1      42.642 -14.502   5.691  1.00  0.00     0.113 C 
HETATM    7  C   UNL     1      43.016 -15.062   4.522  1.00  0.00     0.097 C 
HETATM    8  C   UNL     1      43.124 -13.938   3.560  1.00  0.00     0.186 C 
HETATM    9  O   UNL     1      43.452 -14.082   2.388  1.00  0.00    -0.290 OA
HETATM   10  C   UNL     1      42.805 -12.630   4.253  1.00  0.00     0.234 C 
BRANCH   6  11
HETATM   11  N   UNL     1      42.484 -15.157   6.893  1.00  0.00    -0.286 NA
HETATM   12  H   UNL     1      42.431 -16.160   6.732  1.00  0.00     0.125 HD
HETATM   13  H   UNL     1      43.261 -14.934   7.528  1.00  0.00     0.125 HD
ENDBRANCH   6  11
BRANCH   7  14
HETATM   14  C   UNL     1      43.268 -16.421   4.271  1.00  0.00     0.146 A 
HETATM   15  N   UNL     1      43.729 -17.375   5.061  1.00  0.00    -0.228 NA
HETATM   16  C   UNL     1      43.747 -18.518   4.296  1.00  0.00     0.086 A 
HETATM   17  C   UNL     1      43.282 -18.263   3.011  1.00  0.00     0.062 A 
HETATM   18  C   UNL     1      44.146 -19.820   4.632  1.00  0.00     0.034 A 
HETATM   19  N   UNL     1      42.988 -16.925   3.020  1.00  0.00    -0.338 N 
HETATM   20  C   UNL     1      43.179 -19.241   2.021  1.00  0.00     0.032 A 
HETATM   21  H   UNL     1      42.615 -16.386   2.246  1.00  0.00     0.167 HD
HETATM   22  C   UNL     1      43.580 -20.536   2.375  1.00  0.00     0.002 A 
HETATM   23  C   UNL     1      44.056 -20.823   3.657  1.00  0.00     0.002 A 
ENDBRANCH   7  14
ENDBRANCH   2   5
BRANCH   1  24
HETATM   24  C   UNL     1      43.818 -10.833   8.177  1.00  0.00     0.033 A 
HETATM   25  C   UNL     1      44.991 -10.745   8.936  1.00  0.00     0.017 A 
HETATM   26  C   UNL     1      45.045  -9.900  10.046  1.00  0.00     0.010 A 
HETATM   27  C   UNL     1      43.933  -9.125  10.407  1.00  0.00    -0.034 A 
HETATM   28  C   UNL     1      42.772  -9.194   9.622  1.00  0.00     0.010 A 
HETATM   29  C   UNL     1      42.711 -10.045   8.514  1.00  0.00     0.017 A 
BRANCH  27  30
HETATM   30  C   UNL     1      44.009  -8.210  11.607  1.00  0.00     0.214 C 
BRANCH  30  31
HETATM   31  O   UNL     1      42.767  -7.520  11.722  1.00  0.00    -0.347 OA
BRANCH  31  32
HETATM   32  C   UNL     1      42.336  -7.220  12.985  1.00  0.00     0.070 A 
HETATM   33  C   UNL     1      43.117  -7.207  14.138  1.00  0.00     0.037 A 
HETATM   34  C   UNL     1      42.546  -6.871  15.371  1.00  0.00     0.015 A 
HETATM   35  C   UNL     1      41.184  -6.547  15.470  1.00  0.00    -0.026 A 
HETATM   36  C   UNL     1      40.598  -6.208  16.700  1.00  0.00     0.012 A 
HETATM   37  C   UNL     1      40.387  -6.566  14.305  1.00  0.00    -0.023 A 
HETATM   38  C   UNL     1      39.241  -5.890  16.781  1.00  0.00     0.001 A 
HETATM   39  C   UNL     1      38.454  -5.911  15.633  1.00  0.00     0.001 A 
HETATM   40  C   UNL     1      39.022  -6.245  14.403  1.00  0.00     0.012 A 
HETATM   41  C   UNL     1      40.977  -6.904  13.076  1.00  0.00     0.049 A 
ENDBRANCH  31  32
ENDBRANCH  30  31
ENDBRANCH  27  30
ENDBRANCH   1  24
TORSDOF 7
ENDMDL
MODEL 4
REMARK VINA RESULT:      -9.7      3.091     13.798
REMARK  7 active torsions:
REMARK  status: ('A' for Active; 'I' for Inactive)
REMARK    1  A    between atoms: C_9  and  O_10 
REMARK    2  A    between atoms: O_10  and  C_11 
REMARK    3  A    between atoms: C_11  and  C_12 
REMARK    4  A    between atoms: C_15  and  C_16 
REMARK       I    between atoms: C_16  and  N_17 
REMARK    5  A    between atoms: N_17  and  N_18 
REMARK    6  A    between atoms: C_19  and  N_20 
REMARK    7  A    between atoms: C_21  and  C_22 
ROOT
HETATM    1  C   UNL     1      43.457  -9.455  11.506  1.00  0.00     0.270 C 
HETATM    2  N   UNL     1      43.559  -8.577  10.441  1.00  0.00    -0.262 N 
HETATM    3  O   UNL     1      43.715 -10.655  11.457  1.00  0.00    -0.266 OA
HETATM    4  H   UNL     1      43.267  -7.604  10.477  1.00  0.00     0.190 HD
ENDROOT
BRANCH   2   5
HETATM    5  N   UNL     1      44.091  -8.989   9.210  1.00  0.00    -0.270 N 
HETATM    6  C   UNL     1      43.358  -9.832   8.375  1.00  0.00     0.113 C 
HETATM    7  C   UNL     1      44.146 -10.579   7.575  1.00  0.00     0.097 C 
HETATM    8  C   UNL     1      45.538 -10.258   7.976  1.00  0.00     0.186 C 
HETATM    9  O   UNL     1      46.524 -10.767   7.456  1.00  0.00    -0.290 OA
HETATM   10  C   UNL     1      45.532  -9.261   9.115  1.00  0.00     0.234 C 
BRANCH   6  11
HETATM   11  N   UNL     1      41.981  -9.852   8.408  1.00  0.00    -0.286 NA
HETATM   12  H   UNL     1      41.653 -10.812   8.466  1.00  0.00     0.125 HD
HETATM   13  H   UNL     1      41.634  -9.303   9.205  1.00  0.00     0.125 HD
ENDBRANCH   6  11
BRANCH   7  14
HETATM   14  C   UNL     1      43.737 -11.485   6.582  1.00  0.00     0.146 A 
HETATM   15  N   UNL     1      43.835 -11.427   5.265  1.00  0.00    -0.228 NA
HETATM   16  C   UNL     1      43.295 -12.602   4.797  1.00  0.00     0.086 A 
HETATM   17  C   UNL     1      42.861 -13.402   5.848  1.00  0.00     0.062 A 
HETATM   18  C   UNL     1      43.143 -13.062   3.481  1.00  0.00     0.034 A 
HETATM   19  N   UNL     1      43.150 -12.669   6.969  1.00  0.00    -0.338 N 
HETATM   20  C   UNL     1      42.279 -14.658   5.670  1.00  0.00     0.032 A 
HETATM   21  H   UNL     1      42.976 -12.945   7.929  1.00  0.00     0.167 HD
HETATM   22  C   UNL     1      42.138 -15.102   4.350  1.00  0.00     0.002 A 
HETATM   23  C   UNL     1      42.561 -14.320   3.272  1.00  0.00     0.002 A 
ENDBRANCH   7  14
ENDBRANCH   2   5
BRANCH   1  24
HETATM   24  C   UNL     1      42.930  -8.871  12.766  1.00  0.00     0.033 A 
HETATM   25  C   UNL     1      43.476  -7.663  13.215  1.00  0.00     0.017 A 
HETATM   26  C   UNL     1      43.013  -7.080  14.396  1.00  0.00     0.010 A 
HETATM   27  C   UNL     1      41.993  -7.691  15.139  1.00  0.00    -0.034 A 
HETATM   28  C   UNL     1      41.427  -8.885  14.666  1.00  0.00     0.010 A 
HETATM   29  C   UNL     1      41.894  -9.476  13.488  1.00  0.00     0.017 A 
BRANCH  27  30
HETATM   30  C   UNL     1      41.497  -7.046  16.412  1.00  0.00     0.214 C 
BRANCH  30  31
HETATM   31  O   UNL     1      40.665  -7.982  17.093  1.00  0.00    -0.347 OA
BRANCH  31  32
HETATM   32  C   UNL     1      40.381  -7.723  18.406  1.00  0.00     0.070 A 
HETATM   33  C   UNL     1      39.738  -8.584  19.292  1.00  0.00     0.037 A 
HETATM   34  C   UNL     1      39.519  -8.192  20.618  1.00  0.00     0.015 A 
HETATM   35  C   UNL     1      39.934  -6.933  21.077  1.00  0.00    -0.026 A 
HETATM   36  C   UNL     1      39.721  -6.528  22.404  1.00  0.00     0.012 A 
HETATM   37  C   UNL     1      40.580  -6.054  20.180  1.00  0.00    -0.023 A 
HETATM   38  C   UNL     1      40.140  -5.270  22.842  1.00  0.00     0.001 A 
HETATM   39  C   UNL     1      40.774  -4.402  21.958  1.00  0.00     0.001 A 
HETATM   40  C   UNL     1      40.994  -4.792  20.635  1.00  0.00     0.012 A 
HETATM   41  C   UNL     1      40.793  -6.464  18.853  1.00  0.00     0.049 A 
ENDBRANCH  31  32
ENDBRANCH  30  31
ENDBRANCH  27  30
ENDBRANCH   1  24
TORSDOF 7
ENDMDL
MODEL 5
REMARK VINA RESULT:      -9.6      3.494     11.307
REMARK  7 active torsions:
REMARK  status: ('A' for Active; 'I' for Inactive)
REMARK    1  A    between atoms: C_9  and  O_10 
REMARK    2  A    between atoms: O_10  and  C_11 
REMARK    3  A    between atoms: C_11  and  C_12 
REMARK    4  A    between atoms: C_15  and  C_16 
REMARK       I    between atoms: C_16  and  N_17 
REMARK    5  A    between atoms: N_17  and  N_18 
REMARK    6  A    between atoms: C_19  and  N_20 
REMARK    7  A    between atoms: C_21  and  C_22 
ROOT
HETATM    1  C   UNL     1      39.220 -10.499   6.942  1.00  0.00     0.270 C 
HETATM    2  N   UNL     1      40.319 -10.478   6.101  1.00  0.00    -0.262 N 
HETATM    3  O   UNL     1      38.223 -11.199   6.782  1.00  0.00    -0.266 OA
HETATM    4  H   UNL     1      41.100  -9.836   6.203  1.00  0.00     0.190 HD
ENDROOT
BRANCH   2   5
HETATM    5  N   UNL     1      40.424 -11.369   5.023  1.00  0.00    -0.270 N 
HETATM    6  C   UNL     1      40.936 -12.651   5.217  1.00  0.00     0.113 C 
HETATM    7  C   UNL     1      41.502 -13.157   4.102  1.00  0.00     0.097 C 
HETATM    8  C   UNL     1      41.429 -12.072   3.093  1.00  0.00     0.186 C 
HETATM    9  O   UNL     1      41.860 -12.182   1.951  1.00  0.00    -0.290 OA
HETATM   10  C   UNL     1      40.785 -10.842   3.699  1.00  0.00     0.234 C 
BRANCH   6  11
HETATM   11  N   UNL     1      40.842 -13.282   6.438  1.00  0.00    -0.286 NA
HETATM   12  H   UNL     1      40.995 -12.610   7.185  1.00  0.00     0.125 HD
HETATM   13  H   UNL     1      39.922 -13.730   6.540  1.00  0.00     0.125 HD
ENDBRANCH   6  11
BRANCH   7  14
HETATM   14  C   UNL     1      42.061 -14.435   3.934  1.00  0.00     0.146 A 
HETATM   15  N   UNL     1      41.985 -15.286   2.926  1.00  0.00    -0.228 NA
HETATM   16  C   UNL     1      42.749 -16.370   3.292  1.00  0.00     0.086 A 
HETATM   17  C   UNL     1      43.311 -16.179   4.549  1.00  0.00     0.062 A 
HETATM   18  C   UNL     1      43.015 -17.559   2.599  1.00  0.00     0.034 A 
HETATM   19  N   UNL     1      42.856 -14.946   4.936  1.00  0.00    -0.338 N 
HETATM   20  C   UNL     1      44.143 -17.111   5.171  1.00  0.00     0.032 A 
HETATM   21  H   UNL     1      43.071 -14.472   5.806  1.00  0.00     0.167 HD
HETATM   22  C   UNL     1      44.399 -18.292   4.462  1.00  0.00     0.002 A 
HETATM   23  C   UNL     1      43.846 -18.515   3.199  1.00  0.00     0.002 A 
ENDBRANCH   7  14
ENDBRANCH   2   5
BRANCH   1  24
HETATM   24  C   UNL     1      39.266  -9.541   8.076  1.00  0.00     0.033 A 
HETATM   25  C   UNL     1      39.268 -10.055   9.378  1.00  0.00     0.017 A 
HETATM   26  C   UNL     1      39.308  -9.189  10.472  1.00  0.00     0.010 A 
HETATM   27  C   UNL     1      39.356  -7.801  10.281  1.00  0.00    -0.034 A 
HETATM   28  C   UNL     1      39.386  -7.294   8.973  1.00  0.00     0.010 A 
HETATM   29  C   UNL     1      39.338  -8.157   7.874  1.00  0.00     0.017 A 
BRANCH  27  30
HETATM   30  C   UNL     1      39.405  -6.877  11.476  1.00  0.00     0.214 C 
BRANCH  30  31
HETATM   31  O   UNL     1      40.716  -6.323  11.559  1.00  0.00    -0.347 OA
BRANCH  31  32
HETATM   32  C   UNL     1      41.768  -7.191  11.453  1.00  0.00     0.070 A 
HETATM   33  C   UNL     1      42.169  -8.115  12.415  1.00  0.00     0.037 A 
HETATM   34  C   UNL     1      43.263  -8.953  12.171  1.00  0.00     0.015 A 
HETATM   35  C   UNL     1      43.976  -8.877  10.965  1.00  0.00    -0.026 A 
HETATM   36  C   UNL     1      45.075  -9.712  10.707  1.00  0.00     0.012 A 
HETATM   37  C   UNL     1      43.577  -7.937   9.990  1.00  0.00    -0.023 A 
HETATM   38  C   UNL     1      45.773  -9.621   9.502  1.00  0.00     0.001 A 
HETATM   39  C   UNL     1      45.382  -8.693   8.541  1.00  0.00     0.001 A 
HETATM   40  C   UNL     1      44.290  -7.856   8.783  1.00  0.00     0.012 A 
HETATM   41  C   UNL     1      42.475  -7.105  10.251  1.00  0.00     0.049 A 
ENDBRANCH  31  32
ENDBRANCH  30  31
ENDBRANCH  27  30
ENDBRANCH   1  24
TORSDOF 7
ENDMDL
MODEL 6
REMARK VINA RESULT:      -9.5      2.954     12.711
REMARK  7 active torsions:
REMARK  status: ('A' for Active; 'I' for Inactive)
REMARK    1  A    between atoms: C_9  and  O_10 
REMARK    2  A    between atoms: O_10  and  C_11 
REMARK    3  A    between atoms: C_11  and  C_12 
REMARK    4  A    between atoms: C_15  and  C_16 
REMARK       I    between atoms: C_16  and  N_17 
REMARK    5  A    between atoms: N_17  and  N_18 
REMARK    6  A    between atoms: C_19  and  N_20 
REMARK    7  A    between atoms: C_21  and  C_22 
ROOT
HETATM    1  C   UNL     1      39.555 -10.585   7.360  1.00  0.00     0.270 C 
HETATM    2  N   UNL     1      40.525 -11.126   6.534  1.00  0.00    -0.262 N 
HETATM    3  O   UNL     1      38.405 -11.004   7.466  1.00  0.00    -0.266 OA
HETATM    4  H   UNL     1      41.447 -10.719   6.399  1.00  0.00     0.190 HD
ENDROOT
BRANCH   2   5
HETATM    5  N   UNL     1      40.286 -12.304   5.811  1.00  0.00    -0.270 N 
HETATM    6  C   UNL     1      41.222 -13.337   5.821  1.00  0.00     0.113 C 
HETATM    7  C   UNL     1      41.167 -14.095   4.707  1.00  0.00     0.097 C 
HETATM    8  C   UNL     1      40.151 -13.453   3.839  1.00  0.00     0.186 C 
HETATM    9  O   UNL     1      39.844 -13.877   2.731  1.00  0.00    -0.290 OA
HETATM   10  C   UNL     1      39.601 -12.213   4.514  1.00  0.00     0.234 C 
BRANCH   6  11
HETATM   11  N   UNL     1      42.081 -13.514   6.884  1.00  0.00    -0.286 NA
HETATM   12  H   UNL     1      41.735 -14.259   7.484  1.00  0.00     0.125 HD
HETATM   13  H   UNL     1      43.028 -13.734   6.546  1.00  0.00     0.125 HD
ENDBRANCH   6  11
BRANCH   7  14
HETATM   14  C   UNL     1      41.926 -15.242   4.419  1.00  0.00     0.146 A 
HETATM   15  N   UNL     1      42.904 -15.824   5.091  1.00  0.00    -0.228 NA
HETATM   16  C   UNL     1      43.259 -16.929   4.355  1.00  0.00     0.086 A 
HETATM   17  C   UNL     1      42.480 -17.034   3.209  1.00  0.00     0.062 A 
HETATM   18  C   UNL     1      44.241 -17.900   4.604  1.00  0.00     0.034 A 
HETATM   19  N   UNL     1      41.645 -15.950   3.271  1.00  0.00    -0.338 N 
HETATM   20  C   UNL     1      42.612 -18.066   2.279  1.00  0.00     0.032 A 
HETATM   21  H   UNL     1      40.927 -15.704   2.598  1.00  0.00     0.167 HD
HETATM   22  C   UNL     1      43.595 -19.027   2.545  1.00  0.00     0.002 A 
HETATM   23  C   UNL     1      44.398 -18.947   3.686  1.00  0.00     0.002 A 
ENDBRANCH   7  14
ENDBRANCH   2   5
BRANCH   1  24
HETATM   24  C   UNL     1      39.962  -9.369   8.110  1.00  0.00     0.033 A 
HETATM   25  C   UNL     1      39.068  -8.839   9.048  1.00  0.00     0.017 A 
HETATM   26  C   UNL     1      39.408  -7.695   9.773  1.00  0.00     0.010 A 
HETATM   27  C   UNL     1      40.649  -7.072   9.577  1.00  0.00    -0.034 A 
HETATM   28  C   UNL     1      41.554  -7.627   8.659  1.00  0.00     0.010 A 
HETATM   29  C   UNL     1      41.213  -8.768   7.926  1.00  0.00     0.017 A 
BRANCH  27  30
HETATM   30  C   UNL     1      41.007  -5.839  10.374  1.00  0.00     0.214 C 
BRANCH  30  31
HETATM   31  O   UNL     1      42.205  -6.107  11.099  1.00  0.00    -0.347 OA
BRANCH  31  32
HETATM   32  C   UNL     1      42.069  -6.608  12.364  1.00  0.00     0.070 A 
HETATM   33  C   UNL     1      42.834  -7.625  12.931  1.00  0.00     0.037 A 
HETATM   34  C   UNL     1      42.592  -8.036  14.246  1.00  0.00     0.015 A 
HETATM   35  C   UNL     1      41.579  -7.441  15.014  1.00  0.00    -0.026 A 
HETATM   36  C   UNL     1      41.327  -7.843  16.335  1.00  0.00     0.012 A 
HETATM   37  C   UNL     1      40.797  -6.415  14.441  1.00  0.00    -0.023 A 
HETATM   38  C   UNL     1      40.313  -7.241  17.083  1.00  0.00     0.001 A 
HETATM   39  C   UNL     1      39.540  -6.231  16.518  1.00  0.00     0.001 A 
HETATM   40  C   UNL     1      39.780  -5.819  15.206  1.00  0.00     0.012 A 
HETATM   41  C   UNL     1      41.054  -6.013  13.119  1.00  0.00     0.049 A 
ENDBRANCH  31  32
ENDBRANCH  30  31
ENDBRANCH  27  30
ENDBRANCH   1  24
TORSDOF 7
ENDMDL
MODEL 7
REMARK VINA RESULT:      -9.2      1.859      2.518
REMARK  7 active torsions:
REMARK  status: ('A' for Active; 'I' for Inactive)
REMARK    1  A    between atoms: C_9  and  O_10 
REMARK    2  A    between atoms: O_10  and  C_11 
REMARK    3  A    between atoms: C_11  and  C_12 
REMARK    4  A    between atoms: C_15  and  C_16 
REMARK       I    between atoms: C_16  and  N_17 
REMARK    5  A    between atoms: N_17  and  N_18 
REMARK    6  A    between atoms: C_19  and  N_20 
REMARK    7  A    between atoms: C_21  and  C_22 
ROOT
HETATM    1  C   UNL     1      41.105  -9.320   7.275  1.00  0.00     0.270 C 
HETATM    2  N   UNL     1      40.208  -9.280   8.328  1.00  0.00    -0.262 N 
HETATM    3  O   UNL     1      41.823  -8.387   6.924  1.00  0.00    -0.266 OA
HETATM    4  H   UNL     1      39.565 -10.033   8.555  1.00  0.00     0.190 HD
ENDROOT
BRANCH   2   5
HETATM    5  N   UNL     1      40.131  -8.162   9.171  1.00  0.00    -0.270 N 
HETATM    6  C   UNL     1      40.564  -8.247  10.494  1.00  0.00     0.113 C 
HETATM    7  C   UNL     1      39.935  -7.369  11.302  1.00  0.00     0.097 C 
HETATM    8  C   UNL     1      38.930  -6.692  10.446  1.00  0.00     0.186 C 
HETATM    9  O   UNL     1      38.166  -5.826  10.857  1.00  0.00    -0.290 OA
HETATM   10  C   UNL     1      38.984  -7.253   9.040  1.00  0.00     0.234 C 
BRANCH   6  11
HETATM   11  N   UNL     1      41.534  -9.149  10.873  1.00  0.00    -0.286 NA
HETATM   12  H   UNL     1      41.990  -9.530  10.048  1.00  0.00     0.125 HD
HETATM   13  H   UNL     1      42.222  -8.697  11.489  1.00  0.00     0.125 HD
ENDBRANCH   6  11
BRANCH   7  14
HETATM   14  C   UNL     1      40.167  -7.152  12.670  1.00  0.00     0.146 A 
HETATM   15  N   UNL     1      39.326  -6.940  13.667  1.00  0.00    -0.228 NA
HETATM   16  C   UNL     1      40.104  -6.822  14.795  1.00  0.00     0.086 A 
HETATM   17  C   UNL     1      41.451  -6.971  14.487  1.00  0.00     0.062 A 
HETATM   18  C   UNL     1      39.730  -6.591  16.127  1.00  0.00     0.034 A 
HETATM   19  N   UNL     1      41.464  -7.175  13.132  1.00  0.00    -0.338 N 
HETATM   20  C   UNL     1      42.471  -6.910  15.438  1.00  0.00     0.032 A 
HETATM   21  H   UNL     1      42.284  -7.331  12.556  1.00  0.00     0.167 HD
HETATM   22  C   UNL     1      42.078  -6.681  16.763  1.00  0.00     0.002 A 
HETATM   23  C   UNL     1      40.732  -6.523  17.104  1.00  0.00     0.002 A 
ENDBRANCH   7  14
ENDBRANCH   2   5
BRANCH   1  24
HETATM   24  C   UNL     1      41.122 -10.587   6.499  1.00  0.00     0.033 A 
HETATM   25  C   UNL     1      42.344 -11.032   5.984  1.00  0.00     0.017 A 
HETATM   26  C   UNL     1      42.404 -12.216   5.246  1.00  0.00     0.010 A 
HETATM   27  C   UNL     1      41.246 -12.975   5.022  1.00  0.00    -0.034 A 
HETATM   28  C   UNL     1      40.030 -12.539   5.568  1.00  0.00     0.010 A 
HETATM   29  C   UNL     1      39.964 -11.350   6.301  1.00  0.00     0.017 A 
BRANCH  27  30
HETATM   30  C   UNL     1      41.328 -14.257   4.227  1.00  0.00     0.214 C 
BRANCH  30  31
HETATM   31  O   UNL     1      42.704 -14.553   3.996  1.00  0.00    -0.347 OA
BRANCH  31  32
HETATM   32  C   UNL     1      43.110 -15.840   4.216  1.00  0.00     0.070 A 
HETATM   33  C   UNL     1      43.701 -16.327   5.379  1.00  0.00     0.037 A 
HETATM   34  C   UNL     1      44.061 -17.676   5.473  1.00  0.00     0.015 A 
HETATM   35  C   UNL     1      43.841 -18.558   4.403  1.00  0.00    -0.026 A 
HETATM   36  C   UNL     1      44.197 -19.914   4.484  1.00  0.00     0.012 A 
HETATM   37  C   UNL     1      43.248 -18.067   3.220  1.00  0.00    -0.023 A 
HETATM   38  C   UNL     1      43.971 -20.776   3.410  1.00  0.00     0.001 A 
HETATM   39  C   UNL     1      43.389 -20.293   2.242  1.00  0.00     0.001 A 
HETATM   40  C   UNL     1      43.029 -18.947   2.147  1.00  0.00     0.012 A 
HETATM   41  C   UNL     1      42.891 -16.710   3.143  1.00  0.00     0.049 A 
ENDBRANCH  31  32
ENDBRANCH  30  31
ENDBRANCH  27  30
ENDBRANCH   1  24
TORSDOF 7
ENDMDL
MODEL 8
REMARK VINA RESULT:      -9.2      2.796     12.984
REMARK  7 active torsions:
REMARK  status: ('A' for Active; 'I' for Inactive)
REMARK    1  A    between atoms: C_9  and  O_10 
REMARK    2  A    between atoms: O_10  and  C_11 
REMARK    3  A    between atoms: C_11  and  C_12 
REMARK    4  A    between atoms: C_15  and  C_16 
REMARK       I    between atoms: C_16  and  N_17 
REMARK    5  A    between atoms: N_17  and  N_18 
REMARK    6  A    between atoms: C_19  and  N_20 
REMARK    7  A    between atoms: C_21  and  C_22 
ROOT
HETATM    1  C   UNL     1      43.144  -7.375  10.675  1.00  0.00     0.270 C 
HETATM    2  N   UNL     1      43.730  -8.621  10.544  1.00  0.00    -0.262 N 
HETATM    3  O   UNL     1      43.051  -6.541   9.777  1.00  0.00    -0.266 OA
HETATM    4  H   UNL     1      43.870  -9.267  11.317  1.00  0.00     0.190 HD
ENDROOT
BRANCH   2   5
HETATM    5  N   UNL     1      44.181  -9.083   9.299  1.00  0.00    -0.270 N 
HETATM    6  C   UNL     1      43.423  -9.999   8.572  1.00  0.00     0.113 C 
HETATM    7  C   UNL     1      44.177 -10.760   7.752  1.00  0.00     0.097 C 
HETATM    8  C   UNL     1      45.581 -10.364   8.023  1.00  0.00     0.186 C 
HETATM    9  O   UNL     1      46.545 -10.862   7.454  1.00  0.00    -0.290 OA
HETATM   10  C   UNL     1      45.621  -9.304   9.103  1.00  0.00     0.234 C 
BRANCH   6  11
HETATM   11  N   UNL     1      42.055 -10.070   8.716  1.00  0.00    -0.286 NA
HETATM   12  H   UNL     1      41.781 -11.027   8.925  1.00  0.00     0.125 HD
HETATM   13  H   UNL     1      41.739  -9.434   9.459  1.00  0.00     0.125 HD
ENDBRANCH   6  11
BRANCH   7  14
HETATM   14  C   UNL     1      43.731 -11.736   6.845  1.00  0.00     0.146 A 
HETATM   15  N   UNL     1      43.701 -11.740   5.524  1.00  0.00    -0.228 NA
HETATM   16  C   UNL     1      43.190 -12.965   5.164  1.00  0.00     0.086 A 
HETATM   17  C   UNL     1      42.907 -13.734   6.287  1.00  0.00     0.062 A 
HETATM   18  C   UNL     1      42.942 -13.498   3.891  1.00  0.00     0.034 A 
HETATM   19  N   UNL     1      43.256 -12.930   7.341  1.00  0.00    -0.338 N 
HETATM   20  C   UNL     1      42.388 -15.028   6.224  1.00  0.00     0.032 A 
HETATM   21  H   UNL     1      43.191 -13.167   8.324  1.00  0.00     0.167 HD
HETATM   22  C   UNL     1      42.149 -15.545   4.944  1.00  0.00     0.002 A 
HETATM   23  C   UNL     1      42.419 -14.796   3.797  1.00  0.00     0.002 A 
ENDBRANCH   7  14
ENDBRANCH   2   5
BRANCH   1  24
HETATM   24  C   UNL     1      42.660  -7.037  12.038  1.00  0.00     0.033 A 
HETATM   25  C   UNL     1      41.644  -6.083  12.163  1.00  0.00     0.017 A 
HETATM   26  C   UNL     1      41.161  -5.734  13.426  1.00  0.00     0.010 A 
HETATM   27  C   UNL     1      41.681  -6.340  14.579  1.00  0.00    -0.034 A 
HETATM   28  C   UNL     1      42.677  -7.319  14.444  1.00  0.00     0.010 A 
HETATM   29  C   UNL     1      43.168  -7.665  13.182  1.00  0.00     0.017 A 
BRANCH  27  30
HETATM   30  C   UNL     1      41.144  -5.957  15.938  1.00  0.00     0.214 C 
BRANCH  30  31
HETATM   31  O   UNL     1      42.049  -6.440  16.929  1.00  0.00    -0.347 OA
BRANCH  31  32
HETATM   32  C   UNL     1      41.528  -7.232  17.914  1.00  0.00     0.070 A 
HETATM   33  C   UNL     1      40.200  -7.635  18.029  1.00  0.00     0.037 A 
HETATM   34  C   UNL     1      39.803  -8.458  19.089  1.00  0.00     0.015 A 
HETATM   35  C   UNL     1      40.727  -8.888  20.053  1.00  0.00    -0.026 A 
HETATM   36  C   UNL     1      40.344  -9.715  21.121  1.00  0.00     0.012 A 
HETATM   37  C   UNL     1      42.074  -8.477  19.945  1.00  0.00    -0.023 A 
HETATM   38  C   UNL     1      41.277 -10.131  22.072  1.00  0.00     0.001 A 
HETATM   39  C   UNL     1      42.603  -9.725  21.968  1.00  0.00     0.001 A 
HETATM   40  C   UNL     1      43.001  -8.904  20.910  1.00  0.00     0.012 A 
HETATM   41  C   UNL     1      42.455  -7.652  18.874  1.00  0.00     0.049 A 
ENDBRANCH  31  32
ENDBRANCH  30  31
ENDBRANCH  27  30
ENDBRANCH   1  24
TORSDOF 7
ENDMDL
MODEL 9
REMARK VINA RESULT:      -9.0      3.455     13.173
REMARK  7 active torsions:
REMARK  status: ('A' for Active; 'I' for Inactive)
REMARK    1  A    between atoms: C_9  and  O_10 
REMARK    2  A    between atoms: O_10  and  C_11 
REMARK    3  A    between atoms: C_11  and  C_12 
REMARK    4  A    between atoms: C_15  and  C_16 
REMARK       I    between atoms: C_16  and  N_17 
REMARK    5  A    between atoms: N_17  and  N_18 
REMARK    6  A    between atoms: C_19  and  N_20 
REMARK    7  A    between atoms: C_21  and  C_22 
ROOT
HETATM    1  C   UNL     1      44.480 -11.395   7.478  1.00  0.00     0.270 C 
HETATM    2  N   UNL     1      43.441 -12.240   7.125  1.00  0.00    -0.262 N 
HETATM    3  O   UNL     1      45.552 -11.311   6.886  1.00  0.00    -0.266 OA
HETATM    4  H   UNL     1      42.592 -12.355   7.671  1.00  0.00     0.190 HD
ENDROOT
BRANCH   2   5
HETATM    5  N   UNL     1      43.501 -13.011   5.955  1.00  0.00    -0.270 N 
HETATM    6  C   UNL     1      42.856 -12.581   4.796  1.00  0.00     0.113 C 
HETATM    7  C   UNL     1      42.506 -13.604   3.989  1.00  0.00     0.097 C 
HETATM    8  C   UNL     1      42.884 -14.836   4.723  1.00  0.00     0.186 C 
HETATM    9  O   UNL     1      42.703 -15.966   4.285  1.00  0.00    -0.290 OA
HETATM   10  C   UNL     1      43.478 -14.476   6.069  1.00  0.00     0.234 C 
BRANCH   6  11
HETATM   11  N   UNL     1      42.632 -11.243   4.555  1.00  0.00    -0.286 NA
HETATM   12  H   UNL     1      42.341 -11.112   3.590  1.00  0.00     0.125 HD
HETATM   13  H   UNL     1      41.918 -10.878   5.199  1.00  0.00     0.125 HD
ENDBRANCH   6  11
BRANCH   7  14
HETATM   14  C   UNL     1      41.895 -13.523   2.726  1.00  0.00     0.146 A 
HETATM   15  N   UNL     1      41.913 -12.563   1.818  1.00  0.00    -0.228 NA
HETATM   16  C   UNL     1      41.166 -13.033   0.763  1.00  0.00     0.086 A 
HETATM   17  C   UNL     1      40.685 -14.310   1.025  1.00  0.00     0.062 A 
HETATM   18  C   UNL     1      40.856 -12.425  -0.463  1.00  0.00     0.034 A 
HETATM   19  N   UNL     1      41.158 -14.596   2.278  1.00  0.00    -0.338 N 
HETATM   20  C   UNL     1      39.904 -15.039   0.126  1.00  0.00     0.032 A 
HETATM   21  H   UNL     1      41.009 -15.455   2.796  1.00  0.00     0.167 HD
HETATM   22  C   UNL     1      39.607 -14.417  -1.093  1.00  0.00     0.002 A 
HETATM   23  C   UNL     1      40.072 -13.132  -1.384  1.00  0.00     0.002 A 
ENDBRANCH   7  14
ENDBRANCH   2   5
BRANCH   1  24
HETATM   24  C   UNL     1      44.260 -10.595   8.711  1.00  0.00     0.033 A 
HETATM   25  C   UNL     1      42.986 -10.061   8.935  1.00  0.00     0.017 A 
HETATM   26  C   UNL     1      42.737  -9.300  10.079  1.00  0.00     0.010 A 
HETATM   27  C   UNL     1      43.753  -9.071  11.017  1.00  0.00    -0.034 A 
HETATM   28  C   UNL     1      45.019  -9.637  10.802  1.00  0.00     0.010 A 
HETATM   29  C   UNL     1      45.275 -10.393   9.654  1.00  0.00     0.017 A 
BRANCH  27  30
HETATM   30  C   UNL     1      43.467  -8.252  12.254  1.00  0.00     0.214 C 
BRANCH  30  31
HETATM   31  O   UNL     1      42.053  -8.176  12.422  1.00  0.00    -0.347 OA
BRANCH  31  32
HETATM   32  C   UNL     1      41.592  -7.747  13.636  1.00  0.00     0.070 A 
HETATM   33  C   UNL     1      41.906  -8.298  14.876  1.00  0.00     0.037 A 
HETATM   34  C   UNL     1      41.368  -7.751  16.046  1.00  0.00     0.015 A 
HETATM   35  C   UNL     1      40.504  -6.646  15.995  1.00  0.00    -0.026 A 
HETATM   36  C   UNL     1      39.957  -6.087  17.160  1.00  0.00     0.012 A 
HETATM   37  C   UNL     1      40.177  -6.088  14.740  1.00  0.00    -0.023 A 
HETATM   38  C   UNL     1      39.098  -4.989  17.090  1.00  0.00     0.001 A 
HETATM   39  C   UNL     1      38.773  -4.440  15.853  1.00  0.00     0.001 A 
HETATM   40  C   UNL     1      39.310  -4.985  14.685  1.00  0.00     0.012 A 
HETATM   41  C   UNL     1      40.727  -6.650  13.575  1.00  0.00     0.049 A 
ENDBRANCH  31  32
ENDBRANCH  30  31
ENDBRANCH  27  30
ENDBRANCH   1  24
TORSDOF 7
ENDMDL
MODEL 10
REMARK VINA RESULT:      -9.0      2.655      3.680
REMARK  7 active torsions:
REMARK  status: ('A' for Active; 'I' for Inactive)
REMARK    1  A    between atoms: C_9  and  O_10 
REMARK    2  A    between atoms: O_10  and  C_11 
REMARK    3  A    between atoms: C_11  and  C_12 
REMARK    4  A    between atoms: C_15  and  C_16 
REMARK       I    between atoms: C_16  and  N_17 
REMARK    5  A    between atoms: N_17  and  N_18 
REMARK    6  A    between atoms: C_19  and  N_20 
REMARK    7  A    between atoms: C_21  and  C_22 
ROOT
HETATM    1  C   UNL     1      41.121 -10.005   7.104  1.00  0.00     0.270 C 
HETATM    2  N   UNL     1      41.902  -9.814   8.231  1.00  0.00    -0.262 N 
HETATM    3  O   UNL     1      40.002  -9.527   6.933  1.00  0.00    -0.266 OA
HETATM    4  H   UNL     1      42.790 -10.280   8.391  1.00  0.00     0.190 HD
ENDROOT
BRANCH   2   5
HETATM    5  N   UNL     1      41.501  -8.938   9.250  1.00  0.00    -0.270 N 
HETATM    6  C   UNL     1      41.785  -7.576   9.159  1.00  0.00     0.113 C 
HETATM    7  C   UNL     1      41.879  -6.985  10.368  1.00  0.00     0.097 C 
HETATM    8  C   UNL     1      41.722  -8.079  11.357  1.00  0.00     0.186 C 
HETATM    9  O   UNL     1      41.761  -7.903  12.570  1.00  0.00    -0.290 OA
HETATM   10  C   UNL     1      41.546  -9.403  10.644  1.00  0.00     0.234 C 
BRANCH   6  11
HETATM   11  N   UNL     1      41.939  -6.957   7.938  1.00  0.00    -0.286 NA
HETATM   12  H   UNL     1      41.525  -7.530   7.208  1.00  0.00     0.125 HD
HETATM   13  H   UNL     1      41.505  -6.024   7.952  1.00  0.00     0.125 HD
ENDBRANCH   6  11
BRANCH   7  14
HETATM   14  C   UNL     1      42.099  -5.623  10.636  1.00  0.00     0.146 A 
HETATM   15  N   UNL     1      42.102  -4.574   9.833  1.00  0.00    -0.228 NA
HETATM   16  C   UNL     1      42.345  -3.486  10.640  1.00  0.00     0.086 A 
HETATM   17  C   UNL     1      42.487  -3.874  11.966  1.00  0.00     0.062 A 
HETATM   18  C   UNL     1      42.454  -2.127  10.310  1.00  0.00     0.034 A 
HETATM   19  N   UNL     1      42.330  -5.235  11.937  1.00  0.00    -0.338 N 
HETATM   20  C   UNL     1      42.730  -2.979  13.009  1.00  0.00     0.032 A 
HETATM   21  H   UNL     1      42.365  -5.861  12.733  1.00  0.00     0.167 HD
HETATM   22  C   UNL     1      42.833  -1.626  12.662  1.00  0.00     0.002 A 
HETATM   23  C   UNL     1      42.699  -1.205  11.336  1.00  0.00     0.002 A 
ENDBRANCH   7  14
ENDBRANCH   2   5
BRANCH   1  24
HETATM   24  C   UNL     1      41.693 -10.915   6.079  1.00  0.00     0.033 A 
HETATM   25  C   UNL     1      40.901 -11.249   4.974  1.00  0.00     0.017 A 
HETATM   26  C   UNL     1      41.398 -12.104   3.988  1.00  0.00     0.010 A 
HETATM   27  C   UNL     1      42.695 -12.628   4.088  1.00  0.00    -0.034 A 
HETATM   28  C   UNL     1      43.495 -12.263   5.182  1.00  0.00     0.010 A 
HETATM   29  C   UNL     1      42.998 -11.414   6.175  1.00  0.00     0.017 A 
BRANCH  27  30
HETATM   30  C   UNL     1      43.222 -13.546   3.010  1.00  0.00     0.214 C 
BRANCH  30  31
HETATM   31  O   UNL     1      42.366 -14.683   2.934  1.00  0.00    -0.347 OA
BRANCH  31  32
HETATM   32  C   UNL     1      42.841 -15.857   3.450  1.00  0.00     0.070 A 
HETATM   33  C   UNL     1      43.360 -16.041   4.730  1.00  0.00     0.037 A 
HETATM   34  C   UNL     1      43.805 -17.304   5.134  1.00  0.00     0.015 A 
HETATM   35  C   UNL     1      43.743 -18.403   4.263  1.00  0.00    -0.026 A 
HETATM   36  C   UNL     1      44.185 -19.677   4.655  1.00  0.00     0.012 A 
HETATM   37  C   UNL     1      43.225 -18.220   2.962  1.00  0.00    -0.023 A 
HETATM   38  C   UNL     1      44.117 -20.758   3.774  1.00  0.00     0.001 A 
HETATM   39  C   UNL     1      43.609 -20.578   2.492  1.00  0.00     0.001 A 
HETATM   40  C   UNL     1      43.164 -19.318   2.088  1.00  0.00     0.012 A 
HETATM   41  C   UNL     1      42.780 -16.945   2.574  1.00  0.00     0.049 A 
ENDBRANCH  31  32
ENDBRANCH  30  31
ENDBRANCH  27  30
ENDBRANCH   1  24
TORSDOF 7
ENDMDL
