MODEL 1
REMARK VINA RESULT:      -7.9      0.000      0.000
REMARK  7 active torsions:
REMARK  status: ('A' for Active; 'I' for Inactive)
REMARK    1  A    between atoms: C_2  and  C_3 
REMARK    2  A    between atoms: C_3  and  N_4 
REMARK       I    between atoms: N_4  and  C_5 
REMARK    3  A    between atoms: C_5  and  C_6 
REMARK    4  A    between atoms: C_8  and  N_9 
REMARK       I    between atoms: N_9  and  C_10 
REMARK    5  A    between atoms: C_10  and  C_11 
REMARK    6  A    between atoms: C_13  and  O_14 
REMARK    7  A    between atoms: O_14  and  C_15 
ROOT
HETATM    1  N   UNL     1      43.414 -13.010   7.285  1.00  0.00    -0.323 N 
HETATM    2  C   UNL     1      44.113 -12.030   6.600  1.00  0.00     0.256 C 
HETATM    3  O   UNL     1      44.388 -12.063   5.403  1.00  0.00    -0.267 OA
HETATM    4  H   UNL     1      43.417 -12.987   8.295  1.00  0.00     0.169 HD
ENDROOT
BRANCH   1   5
HETATM    5  C   UNL     1      42.759 -14.126   6.708  1.00  0.00     0.035 A 
HETATM    6  C   UNL     1      43.356 -15.383   6.584  1.00  0.00     0.046 A 
HETATM    7  C   UNL     1      42.653 -16.461   6.026  1.00  0.00     0.034 A 
HETATM    8  C   UNL     1      41.361 -16.264   5.535  1.00  0.00     0.017 A 
HETATM    9  C   UNL     1      40.767 -15.005   5.627  1.00  0.00     0.003 A 
HETATM   10  C   UNL     1      41.462 -13.943   6.215  1.00  0.00     0.029 A 
BRANCH   7  11
HETATM   11  C   UNL     1      43.270 -17.814   5.921  1.00  0.00     0.251 C 
HETATM   12  N   UNL     1      43.642 -18.213   4.651  1.00  0.00    -0.357 N 
HETATM   13  H   UNL     1      43.699 -17.512   3.923  1.00  0.00     0.162 HD
HETATM   14  O   UNL     1      43.448 -18.493   6.924  1.00  0.00    -0.268 OA
BRANCH  12  15
HETATM   15  C   UNL     1      44.315 -19.473   4.420  1.00  0.00     0.122 C 
BRANCH  15  16
HETATM   16  C   UNL     1      43.779 -20.183   3.180  1.00  0.00     0.015 C 
HETATM   17  C   UNL     1      43.177 -19.220   2.167  1.00  0.00     0.006 C 
ENDBRANCH  15  16
ENDBRANCH  12  15
ENDBRANCH   7  11
ENDBRANCH   1   5
BRANCH   2  18
HETATM   18  C   UNL     1      44.589 -10.848   7.382  1.00  0.00     0.037 A 
HETATM   19  C   UNL     1      43.753 -10.028   8.138  1.00  0.00     0.075 A 
HETATM   20  C   UNL     1      44.317  -8.921   8.749  1.00  0.00     0.165 A 
HETATM   21  N   UNL     1      45.620  -8.588   8.669  1.00  0.00    -0.237 NA
HETATM   22  C   UNL     1      46.410  -9.400   7.943  1.00  0.00     0.120 A 
HETATM   23  C   UNL     1      45.949 -10.524   7.289  1.00  0.00     0.036 A 
BRANCH  20  24
HETATM   24  O   UNL     1      43.472  -8.119   9.494  1.00  0.00    -0.329 OA
BRANCH  24  25
HETATM   25  C   UNL     1      42.717  -8.797  10.528  1.00  0.00     0.130 C 
HETATM   26  C   UNL     1      41.981  -7.930  11.581  1.00  0.00     0.032 C 
HETATM   27  C   UNL     1      43.196  -8.101  12.505  1.00  0.00     0.005 C 
HETATM   28  C   UNL     1      43.572  -9.352  11.695  1.00  0.00     0.032 C 
ENDBRANCH  24  25
ENDBRANCH  20  24
ENDBRANCH   2  18
TORSDOF 7
ENDMDL
MODEL 2
REMARK VINA RESULT:      -7.8      1.467      9.791
REMARK  7 active torsions:
REMARK  status: ('A' for Active; 'I' for Inactive)
REMARK    1  A    between atoms: C_2  and  C_3 
REMARK    2  A    between atoms: C_3  and  N_4 
REMARK       I    between atoms: N_4  and  C_5 
REMARK    3  A    between atoms: C_5  and  C_6 
REMARK    4  A    between atoms: C_8  and  N_9 
REMARK       I    between atoms: N_9  and  C_10 
REMARK    5  A    between atoms: C_10  and  C_11 
REMARK    6  A    between atoms: C_13  and  O_14 
REMARK    7  A    between atoms: O_14  and  C_15 
ROOT
HETATM    1  N   UNL     1      43.471 -12.418   7.454  1.00  0.00    -0.323 N 
HETATM    2  C   UNL     1      42.954 -12.751   6.213  1.00  0.00     0.256 C 
HETATM    3  O   UNL     1      42.923 -12.007   5.235  1.00  0.00    -0.267 OA
HETATM    4  H   UNL     1      43.266 -13.020   8.238  1.00  0.00     0.169 HD
ENDROOT
BRANCH   1   5
HETATM    5  C   UNL     1      44.193 -11.240   7.767  1.00  0.00     0.035 A 
HETATM    6  C   UNL     1      43.596 -10.097   8.303  1.00  0.00     0.046 A 
HETATM    7  C   UNL     1      44.362  -8.965   8.618  1.00  0.00     0.034 A 
HETATM    8  C   UNL     1      45.731  -8.958   8.341  1.00  0.00     0.017 A 
HETATM    9  C   UNL     1      46.332 -10.084   7.779  1.00  0.00     0.003 A 
HETATM   10  C   UNL     1      45.567 -11.221   7.498  1.00  0.00     0.029 A 
BRANCH   7  11
HETATM   11  C   UNL     1      43.738  -7.752   9.220  1.00  0.00     0.251 C 
HETATM   12  N   UNL     1      42.836  -7.979  10.241  1.00  0.00    -0.357 N 
HETATM   13  H   UNL     1      42.819  -8.894  10.675  1.00  0.00     0.162 HD
HETATM   14  O   UNL     1      44.053  -6.635   8.829  1.00  0.00    -0.268 OA
BRANCH  12  15
HETATM   15  C   UNL     1      42.212  -6.888  10.958  1.00  0.00     0.122 C 
BRANCH  15  16
HETATM   16  C   UNL     1      42.348  -7.050  12.469  1.00  0.00     0.015 C 
HETATM   17  C   UNL     1      43.352  -8.127  12.855  1.00  0.00     0.006 C 
ENDBRANCH  15  16
ENDBRANCH  12  15
ENDBRANCH   7  11
ENDBRANCH   1   5
BRANCH   2  18
HETATM   18  C   UNL     1      42.368 -14.118   6.054  1.00  0.00     0.037 A 
HETATM   19  C   UNL     1      43.085 -15.223   5.600  1.00  0.00     0.075 A 
HETATM   20  C   UNL     1      42.396 -16.412   5.427  1.00  0.00     0.165 A 
HETATM   21  N   UNL     1      41.082 -16.573   5.676  1.00  0.00    -0.237 NA
HETATM   22  C   UNL     1      40.412 -15.496   6.124  1.00  0.00     0.120 A 
HETATM   23  C   UNL     1      41.001 -14.264   6.325  1.00  0.00     0.036 A 
BRANCH  20  24
HETATM   24  O   UNL     1      43.124 -17.497   4.975  1.00  0.00    -0.329 OA
BRANCH  24  25
HETATM   25  C   UNL     1      43.680 -17.366   3.644  1.00  0.00     0.130 C 
HETATM   26  C   UNL     1      42.700 -17.320   2.445  1.00  0.00     0.032 C 
HETATM   27  C   UNL     1      42.913 -18.832   2.270  1.00  0.00     0.005 C 
HETATM   28  C   UNL     1      44.234 -18.682   3.042  1.00  0.00     0.032 C 
ENDBRANCH  24  25
ENDBRANCH  20  24
ENDBRANCH   2  18
TORSDOF 7
ENDMDL
MODEL 3
REMARK VINA RESULT:      -7.8      2.738      9.469
REMARK  7 active torsions:
REMARK  status: ('A' for Active; 'I' for Inactive)
REMARK    1  A    between atoms: C_2  and  C_3 
REMARK    2  A    between atoms: C_3  and  N_4 
REMARK       I    between atoms: N_4  and  C_5 
REMARK    3  A    between atoms: C_5  and  C_6 
REMARK    4  A    between atoms: C_8  and  N_9 
REMARK       I    between atoms: N_9  and  C_10 
REMARK    5  A    between atoms: C_10  and  C_11 
REMARK    6  A    between atoms: C_13  and  O_14 
REMARK    7  A    between atoms: O_14  and  C_15 
ROOT
HETATM    1  N   UNL     1      43.431 -12.406   5.212  1.00  0.00    -0.323 N 
HETATM    2  C   UNL     1      43.387 -12.096   3.863  1.00  0.00     0.256 C 
HETATM    3  O   UNL     1      43.778 -11.043   3.364  1.00  0.00    -0.267 OA
HETATM    4  H   UNL     1      42.905 -13.202   5.541  1.00  0.00     0.169 HD
ENDROOT
BRANCH   1   5
HETATM    5  C   UNL     1      44.076 -11.648   6.220  1.00  0.00     0.035 A 
HETATM    6  C   UNL     1      43.382 -10.912   7.184  1.00  0.00     0.046 A 
HETATM    7  C   UNL     1      44.070 -10.197   8.176  1.00  0.00     0.034 A 
HETATM    8  C   UNL     1      45.466 -10.173   8.169  1.00  0.00     0.017 A 
HETATM    9  C   UNL     1      46.168 -10.881   7.193  1.00  0.00     0.003 A 
HETATM   10  C   UNL     1      45.475 -11.618   6.227  1.00  0.00     0.029 A 
BRANCH   7  11
HETATM   11  C   UNL     1      43.337  -9.436   9.229  1.00  0.00     0.251 C 
HETATM   12  N   UNL     1      42.610 -10.192  10.127  1.00  0.00    -0.357 N 
HETATM   13  H   UNL     1      42.791 -11.187  10.177  1.00  0.00     0.162 HD
HETATM   14  O   UNL     1      43.422  -8.215   9.281  1.00  0.00    -0.268 OA
BRANCH  12  15
HETATM   15  C   UNL     1      41.911  -9.584  11.238  1.00  0.00     0.122 C 
BRANCH  15  16
HETATM   16  C   UNL     1      42.781  -9.522  12.490  1.00  0.00     0.015 C 
HETATM   17  C   UNL     1      43.206  -8.103  12.839  1.00  0.00     0.006 C 
ENDBRANCH  15  16
ENDBRANCH  12  15
ENDBRANCH   7  11
ENDBRANCH   1   5
BRANCH   2  18
HETATM   18  C   UNL     1      42.796 -13.115   2.940  1.00  0.00     0.037 A 
HETATM   19  C   UNL     1      43.310 -14.398   2.769  1.00  0.00     0.075 A 
HETATM   20  C   UNL     1      42.710 -15.212   1.823  1.00  0.00     0.165 A 
HETATM   21  N   UNL     1      41.657 -14.850   1.065  1.00  0.00    -0.237 NA
HETATM   22  C   UNL     1      41.170 -13.610   1.255  1.00  0.00     0.120 A 
HETATM   23  C   UNL     1      41.697 -12.717   2.167  1.00  0.00     0.036 A 
BRANCH  20  24
HETATM   24  O   UNL     1      43.234 -16.482   1.666  1.00  0.00    -0.329 OA
BRANCH  24  25
HETATM   25  C   UNL     1      42.701 -17.493   2.555  1.00  0.00     0.130 C 
HETATM   26  C   UNL     1      43.419 -17.726   3.909  1.00  0.00     0.032 C 
HETATM   27  C   UNL     1      44.200 -18.871   3.248  1.00  0.00     0.005 C 
HETATM   28  C   UNL     1      43.090 -18.947   2.187  1.00  0.00     0.032 C 
ENDBRANCH  24  25
ENDBRANCH  20  24
ENDBRANCH   2  18
TORSDOF 7
ENDMDL
MODEL 4
REMARK VINA RESULT:      -7.5      1.999      2.152
REMARK  7 active torsions:
REMARK  status: ('A' for Active; 'I' for Inactive)
REMARK    1  A    between atoms: C_2  and  C_3 
REMARK    2  A    between atoms: C_3  and  N_4 
REMARK       I    between atoms: N_4  and  C_5 
REMARK    3  A    between atoms: C_5  and  C_6 
REMARK    4  A    between atoms: C_8  and  N_9 
REMARK       I    between atoms: N_9  and  C_10 
REMARK    5  A    between atoms: C_10  and  C_11 
REMARK    6  A    between atoms: C_13  and  O_14 
REMARK    7  A    between atoms: O_14  and  C_15 
ROOT
HETATM    1  N   UNL     1      43.184 -12.028   5.879  1.00  0.00    -0.323 N 
HETATM    2  C   UNL     1      43.732 -12.351   7.109  1.00  0.00     0.256 C 
HETATM    3  O   UNL     1      43.600 -13.430   7.683  1.00  0.00    -0.267 OA
HETATM    4  H   UNL     1      43.181 -11.060   5.592  1.00  0.00     0.169 HD
ENDROOT
BRANCH   1   5
HETATM    5  C   UNL     1      42.523 -12.922   5.000  1.00  0.00     0.035 A 
HETATM    6  C   UNL     1      43.177 -13.959   4.330  1.00  0.00     0.046 A 
HETATM    7  C   UNL     1      42.469 -14.830   3.489  1.00  0.00     0.034 A 
HETATM    8  C   UNL     1      41.104 -14.627   3.273  1.00  0.00     0.017 A 
HETATM    9  C   UNL     1      40.449 -13.577   3.916  1.00  0.00     0.003 A 
HETATM   10  C   UNL     1      41.154 -12.732   4.778  1.00  0.00     0.029 A 
BRANCH   7  11
HETATM   11  C   UNL     1      43.153 -15.960   2.796  1.00  0.00     0.251 C 
HETATM   12  N   UNL     1      43.423 -17.071   3.571  1.00  0.00    -0.357 N 
HETATM   13  H   UNL     1      42.956 -17.161   4.464  1.00  0.00     0.162 HD
HETATM   14  O   UNL     1      43.416 -15.884   1.602  1.00  0.00    -0.268 OA
BRANCH  12  15
HETATM   15  C   UNL     1      44.018 -18.262   3.005  1.00  0.00     0.122 C 
BRANCH  15  16
HETATM   16  C   UNL     1      42.993 -19.109   2.257  1.00  0.00     0.015 C 
HETATM   17  C   UNL     1      43.566 -20.436   1.780  1.00  0.00     0.006 C 
ENDBRANCH  15  16
ENDBRANCH  12  15
ENDBRANCH   7  11
ENDBRANCH   1   5
BRANCH   2  18
HETATM   18  C   UNL     1      44.532 -11.296   7.806  1.00  0.00     0.037 A 
HETATM   19  C   UNL     1      44.245 -10.821   9.084  1.00  0.00     0.075 A 
HETATM   20  C   UNL     1      45.022  -9.786   9.577  1.00  0.00     0.165 A 
HETATM   21  N   UNL     1      46.043  -9.216   8.908  1.00  0.00    -0.237 NA
HETATM   22  C   UNL     1      46.309  -9.698   7.681  1.00  0.00     0.120 A 
HETATM   23  C   UNL     1      45.593 -10.722   7.093  1.00  0.00     0.036 A 
BRANCH  20  24
HETATM   24  O   UNL     1      44.721  -9.327  10.846  1.00  0.00    -0.329 OA
BRANCH  24  25
HETATM   25  C   UNL     1      43.314  -9.121  11.119  1.00  0.00     0.130 C 
HETATM   26  C   UNL     1      42.850  -7.701  11.530  1.00  0.00     0.032 C 
HETATM   27  C   UNL     1      42.962  -8.137  12.998  1.00  0.00     0.005 C 
HETATM   28  C   UNL     1      42.851  -9.594  12.520  1.00  0.00     0.032 C 
ENDBRANCH  24  25
ENDBRANCH  20  24
ENDBRANCH   2  18
TORSDOF 7
ENDMDL
MODEL 5
REMARK VINA RESULT:      -7.1      7.073     10.743
REMARK  7 active torsions:
REMARK  status: ('A' for Active; 'I' for Inactive)
REMARK    1  A    between atoms: C_2  and  C_3 
REMARK    2  A    between atoms: C_3  and  N_4 
REMARK       I    between atoms: N_4  and  C_5 
REMARK    3  A    between atoms: C_5  and  C_6 
REMARK    4  A    between atoms: C_8  and  N_9 
REMARK       I    between atoms: N_9  and  C_10 
REMARK    5  A    between atoms: C_10  and  C_11 
REMARK    6  A    between atoms: C_13  and  O_14 
REMARK    7  A    between atoms: O_14  and  C_15 
ROOT
HETATM    1  N   UNL     1      40.474 -14.135   0.511  1.00  0.00    -0.323 N 
HETATM    2  C   UNL     1      40.430 -15.296   1.265  1.00  0.00     0.256 C 
HETATM    3  O   UNL     1      39.609 -16.200   1.127  1.00  0.00    -0.267 OA
HETATM    4  H   UNL     1      41.052 -13.373   0.834  1.00  0.00     0.169 HD
ENDROOT
BRANCH   1   5
HETATM    5  C   UNL     1      39.698 -13.860  -0.642  1.00  0.00     0.035 A 
HETATM    6  C   UNL     1      38.856 -12.751  -0.750  1.00  0.00     0.046 A 
HETATM    7  C   UNL     1      38.128 -12.512  -1.925  1.00  0.00     0.034 A 
HETATM    8  C   UNL     1      38.199 -13.425  -2.980  1.00  0.00     0.017 A 
HETATM    9  C   UNL     1      39.014 -14.551  -2.870  1.00  0.00     0.003 A 
HETATM   10  C   UNL     1      39.762 -14.765  -1.708  1.00  0.00     0.029 A 
BRANCH   7  11
HETATM   11  C   UNL     1      37.253 -11.313  -2.062  1.00  0.00     0.251 C 
HETATM   12  N   UNL     1      36.575 -11.192  -3.260  1.00  0.00    -0.357 N 
HETATM   13  H   UNL     1      36.516 -12.002  -3.864  1.00  0.00     0.162 HD
HETATM   14  O   UNL     1      37.143 -10.518  -1.137  1.00  0.00    -0.268 OA
BRANCH  12  15
HETATM   15  C   UNL     1      35.640 -10.113  -3.495  1.00  0.00     0.122 C 
BRANCH  15  16
HETATM   16  C   UNL     1      34.193 -10.587  -3.408  1.00  0.00     0.015 C 
HETATM   17  C   UNL     1      33.971 -11.925  -4.099  1.00  0.00     0.006 C 
ENDBRANCH  15  16
ENDBRANCH  12  15
ENDBRANCH   7  11
ENDBRANCH   1   5
BRANCH   2  18
HETATM   18  C   UNL     1      41.450 -15.454   2.348  1.00  0.00     0.037 A 
HETATM   19  C   UNL     1      41.743 -16.667   2.968  1.00  0.00     0.075 A 
HETATM   20  C   UNL     1      42.655 -16.654   4.010  1.00  0.00     0.165 A 
HETATM   21  N   UNL     1      43.283 -15.550   4.459  1.00  0.00    -0.237 NA
HETATM   22  C   UNL     1      42.993 -14.392   3.838  1.00  0.00     0.120 A 
HETATM   23  C   UNL     1      42.095 -14.293   2.794  1.00  0.00     0.036 A 
BRANCH  20  24
HETATM   24  O   UNL     1      42.932 -17.867   4.614  1.00  0.00    -0.329 OA
BRANCH  24  25
HETATM   25  C   UNL     1      44.117 -18.548   4.134  1.00  0.00     0.130 C 
HETATM   26  C   UNL     1      44.037 -19.275   2.768  1.00  0.00     0.032 C 
HETATM   27  C   UNL     1      43.728 -20.574   3.528  1.00  0.00     0.005 C 
HETATM   28  C   UNL     1      44.368 -19.937   4.772  1.00  0.00     0.032 C 
ENDBRANCH  24  25
ENDBRANCH  20  24
ENDBRANCH   2  18
TORSDOF 7
ENDMDL
MODEL 6
REMARK VINA RESULT:      -7.1      2.569      9.239
REMARK  7 active torsions:
REMARK  status: ('A' for Active; 'I' for Inactive)
REMARK    1  A    between atoms: C_2  and  C_3 
REMARK    2  A    between atoms: C_3  and  N_4 
REMARK       I    between atoms: N_4  and  C_5 
REMARK    3  A    between atoms: C_5  and  C_6 
REMARK    4  A    between atoms: C_8  and  N_9 
REMARK       I    between atoms: N_9  and  C_10 
REMARK    5  A    between atoms: C_10  and  C_11 
REMARK    6  A    between atoms: C_13  and  O_14 
REMARK    7  A    between atoms: O_14  and  C_15 
ROOT
HETATM    1  N   UNL     1      44.249 -12.809   6.382  1.00  0.00    -0.323 N 
HETATM    2  C   UNL     1      43.673 -13.971   6.869  1.00  0.00     0.256 C 
HETATM    3  O   UNL     1      43.422 -14.195   8.052  1.00  0.00    -0.267 OA
HETATM    4  H   UNL     1      44.597 -12.806   5.434  1.00  0.00     0.169 HD
ENDROOT
BRANCH   1   5
HETATM    5  C   UNL     1      44.496 -11.627   7.121  1.00  0.00     0.035 A 
HETATM    6  C   UNL     1      43.506 -10.956   7.844  1.00  0.00     0.046 A 
HETATM    7  C   UNL     1      43.810  -9.802   8.579  1.00  0.00     0.034 A 
HETATM    8  C   UNL     1      45.105  -9.280   8.545  1.00  0.00     0.017 A 
HETATM    9  C   UNL     1      46.094  -9.926   7.803  1.00  0.00     0.003 A 
HETATM   10  C   UNL     1      45.791 -11.096   7.098  1.00  0.00     0.029 A 
BRANCH   7  11
HETATM   11  C   UNL     1      42.767  -9.098   9.381  1.00  0.00     0.251 C 
HETATM   12  N   UNL     1      42.035  -9.887  10.247  1.00  0.00    -0.357 N 
HETATM   13  H   UNL     1      42.382 -10.812  10.466  1.00  0.00     0.162 HD
HETATM   14  O   UNL     1      42.616  -7.888   9.272  1.00  0.00    -0.268 OA
BRANCH  12  15
HETATM   15  C   UNL     1      41.041  -9.319  11.132  1.00  0.00     0.122 C 
BRANCH  15  16
HETATM   16  C   UNL     1      41.044  -9.997  12.499  1.00  0.00     0.015 C 
HETATM   17  C   UNL     1      39.689 -10.586  12.864  1.00  0.00     0.006 C 
ENDBRANCH  15  16
ENDBRANCH  12  15
ENDBRANCH   7  11
ENDBRANCH   1   5
BRANCH   2  18
HETATM   18  C   UNL     1      43.350 -15.047   5.883  1.00  0.00     0.037 A 
HETATM   19  C   UNL     1      42.230 -15.030   5.054  1.00  0.00     0.075 A 
HETATM   20  C   UNL     1      42.011 -16.131   4.242  1.00  0.00     0.165 A 
HETATM   21  N   UNL     1      42.813 -17.213   4.195  1.00  0.00    -0.237 NA
HETATM   22  C   UNL     1      43.894 -17.203   4.996  1.00  0.00     0.120 A 
HETATM   23  C   UNL     1      44.201 -16.159   5.846  1.00  0.00     0.036 A 
BRANCH  20  24
HETATM   24  O   UNL     1      40.895 -16.097   3.428  1.00  0.00    -0.329 OA
BRANCH  24  25
HETATM   25  C   UNL     1      41.160 -16.111   2.003  1.00  0.00     0.130 C 
HETATM   26  C   UNL     1      41.649 -14.799   1.339  1.00  0.00     0.032 C 
HETATM   27  C   UNL     1      40.191 -14.501   0.957  1.00  0.00     0.005 C 
HETATM   28  C   UNL     1      39.898 -16.003   1.110  1.00  0.00     0.032 C 
ENDBRANCH  24  25
ENDBRANCH  20  24
ENDBRANCH   2  18
TORSDOF 7
ENDMDL
MODEL 7
REMARK VINA RESULT:      -7.0      4.016      4.742
REMARK  7 active torsions:
REMARK  status: ('A' for Active; 'I' for Inactive)
REMARK    1  A    between atoms: C_2  and  C_3 
REMARK    2  A    between atoms: C_3  and  N_4 
REMARK       I    between atoms: N_4  and  C_5 
REMARK    3  A    between atoms: C_5  and  C_6 
REMARK    4  A    between atoms: C_8  and  N_9 
REMARK       I    between atoms: N_9  and  C_10 
REMARK    5  A    between atoms: C_10  and  C_11 
REMARK    6  A    between atoms: C_13  and  O_14 
REMARK    7  A    between atoms: O_14  and  C_15 
ROOT
HETATM    1  N   UNL     1      43.509 -13.130   4.514  1.00  0.00    -0.323 N 
HETATM    2  C   UNL     1      43.124 -12.754   5.790  1.00  0.00     0.256 C 
HETATM    3  O   UNL     1      42.021 -12.965   6.288  1.00  0.00    -0.267 OA
HETATM    4  H   UNL     1      44.356 -12.735   4.130  1.00  0.00     0.169 HD
ENDROOT
BRANCH   1   5
HETATM    5  C   UNL     1      42.772 -13.956   3.630  1.00  0.00     0.035 A 
HETATM    6  C   UNL     1      41.929 -13.452   2.637  1.00  0.00     0.046 A 
HETATM    7  C   UNL     1      41.240 -14.314   1.772  1.00  0.00     0.034 A 
HETATM    8  C   UNL     1      41.352 -15.696   1.940  1.00  0.00     0.017 A 
HETATM    9  C   UNL     1      42.168 -16.210   2.948  1.00  0.00     0.003 A 
HETATM   10  C   UNL     1      42.878 -15.343   3.785  1.00  0.00     0.029 A 
BRANCH   7  11
HETATM   11  C   UNL     1      40.365 -13.785   0.687  1.00  0.00     0.251 C 
HETATM   12  N   UNL     1      40.494 -14.393  -0.546  1.00  0.00    -0.357 N 
HETATM   13  H   UNL     1      40.975 -15.282  -0.597  1.00  0.00     0.162 HD
HETATM   14  O   UNL     1      39.569 -12.882   0.919  1.00  0.00    -0.268 OA
BRANCH  12  15
HETATM   15  C   UNL     1      39.654 -14.023  -1.665  1.00  0.00     0.122 C 
BRANCH  15  16
HETATM   16  C   UNL     1      40.477 -13.587  -2.873  1.00  0.00     0.015 C 
HETATM   17  C   UNL     1      41.118 -12.220  -2.684  1.00  0.00     0.006 C 
ENDBRANCH  15  16
ENDBRANCH  12  15
ENDBRANCH   7  11
ENDBRANCH   1   5
BRANCH   2  18
HETATM   18  C   UNL     1      44.123 -12.013   6.621  1.00  0.00     0.037 A 
HETATM   19  C   UNL     1      43.931 -11.692   7.964  1.00  0.00     0.075 A 
HETATM   20  C   UNL     1      44.906 -10.934   8.591  1.00  0.00     0.165 A 
HETATM   21  N   UNL     1      46.030 -10.494   7.994  1.00  0.00    -0.237 NA
HETATM   22  C   UNL     1      46.199 -10.825   6.701  1.00  0.00     0.120 A 
HETATM   23  C   UNL     1      45.288 -11.570   5.980  1.00  0.00     0.036 A 
BRANCH  20  24
HETATM   24  O   UNL     1      44.697 -10.625   9.923  1.00  0.00    -0.329 OA
BRANCH  24  25
HETATM   25  C   UNL     1      43.420 -10.015  10.231  1.00  0.00     0.130 C 
HETATM   26  C   UNL     1      43.377  -8.481  10.445  1.00  0.00     0.032 C 
HETATM   27  C   UNL     1      43.500  -8.733  11.955  1.00  0.00     0.005 C 
HETATM   28  C   UNL     1      42.975 -10.157  11.708  1.00  0.00     0.032 C 
ENDBRANCH  24  25
ENDBRANCH  20  24
ENDBRANCH   2  18
TORSDOF 7
ENDMDL
MODEL 8
REMARK VINA RESULT:      -7.0      6.185      9.573
REMARK  7 active torsions:
REMARK  status: ('A' for Active; 'I' for Inactive)
REMARK    1  A    between atoms: C_2  and  C_3 
REMARK    2  A    between atoms: C_3  and  N_4 
REMARK       I    between atoms: N_4  and  C_5 
REMARK    3  A    between atoms: C_5  and  C_6 
REMARK    4  A    between atoms: C_8  and  N_9 
REMARK       I    between atoms: N_9  and  C_10 
REMARK    5  A    between atoms: C_10  and  C_11 
REMARK    6  A    between atoms: C_13  and  O_14 
REMARK    7  A    between atoms: O_14  and  C_15 
ROOT
HETATM    1  N   UNL     1      41.857 -15.088   0.785  1.00  0.00    -0.323 N 
HETATM    2  C   UNL     1      40.536 -14.749   0.547  1.00  0.00     0.256 C 
HETATM    3  O   UNL     1      39.608 -14.915   1.336  1.00  0.00    -0.267 OA
HETATM    4  H   UNL     1      42.499 -15.100   0.006  1.00  0.00     0.169 HD
ENDROOT
BRANCH   1   5
HETATM    5  C   UNL     1      42.395 -15.527   2.020  1.00  0.00     0.035 A 
HETATM    6  C   UNL     1      42.504 -14.702   3.143  1.00  0.00     0.046 A 
HETATM    7  C   UNL     1      43.023 -15.194   4.349  1.00  0.00     0.034 A 
HETATM    8  C   UNL     1      43.490 -16.509   4.417  1.00  0.00     0.017 A 
HETATM    9  C   UNL     1      43.412 -17.332   3.292  1.00  0.00     0.003 A 
HETATM   10  C   UNL     1      42.864 -16.843   2.102  1.00  0.00     0.029 A 
BRANCH   7  11
HETATM   11  C   UNL     1      43.112 -14.331   5.562  1.00  0.00     0.251 C 
HETATM   12  N   UNL     1      43.482 -13.018   5.344  1.00  0.00    -0.357 N 
HETATM   13  H   UNL     1      43.443 -12.656   4.399  1.00  0.00     0.162 HD
HETATM   14  O   UNL     1      42.839 -14.785   6.666  1.00  0.00    -0.268 OA
BRANCH  12  15
HETATM   15  C   UNL     1      43.538 -12.058   6.425  1.00  0.00     0.122 C 
BRANCH  15  16
HETATM   16  C   UNL     1      44.970 -11.810   6.891  1.00  0.00     0.015 C 
HETATM   17  C   UNL     1      45.046 -10.831   8.054  1.00  0.00     0.006 C 
ENDBRANCH  15  16
ENDBRANCH  12  15
ENDBRANCH   7  11
ENDBRANCH   1   5
BRANCH   2  18
HETATM   18  C   UNL     1      40.206 -14.152  -0.785  1.00  0.00     0.037 A 
HETATM   19  C   UNL     1      40.666 -12.909  -1.214  1.00  0.00     0.075 A 
HETATM   20  C   UNL     1      40.220 -12.444  -2.439  1.00  0.00     0.165 A 
HETATM   21  N   UNL     1      39.378 -13.117  -3.248  1.00  0.00    -0.237 NA
HETATM   22  C   UNL     1      38.956 -14.320  -2.818  1.00  0.00     0.120 A 
HETATM   23  C   UNL     1      39.334 -14.872  -1.611  1.00  0.00     0.036 A 
BRANCH  20  24
HETATM   24  O   UNL     1      40.686 -11.208  -2.848  1.00  0.00    -0.329 OA
BRANCH  24  25
HETATM   25  C   UNL     1      40.845 -10.222  -1.799  1.00  0.00     0.130 C 
HETATM   26  C   UNL     1      39.640  -9.305  -1.470  1.00  0.00     0.032 C 
HETATM   27  C   UNL     1      40.244  -8.249  -2.408  1.00  0.00     0.005 C 
HETATM   28  C   UNL     1      41.605  -8.941  -2.226  1.00  0.00     0.032 C 
ENDBRANCH  24  25
ENDBRANCH  20  24
ENDBRANCH   2  18
TORSDOF 7
ENDMDL
MODEL 9
REMARK VINA RESULT:      -6.9      2.396      3.033
REMARK  7 active torsions:
REMARK  status: ('A' for Active; 'I' for Inactive)
REMARK    1  A    between atoms: C_2  and  C_3 
REMARK    2  A    between atoms: C_3  and  N_4 
REMARK       I    between atoms: N_4  and  C_5 
REMARK    3  A    between atoms: C_5  and  C_6 
REMARK    4  A    between atoms: C_8  and  N_9 
REMARK       I    between atoms: N_9  and  C_10 
REMARK    5  A    between atoms: C_10  and  C_11 
REMARK    6  A    between atoms: C_13  and  O_14 
REMARK    7  A    between atoms: O_14  and  C_15 
ROOT
HETATM    1  N   UNL     1      43.957 -12.927   6.806  1.00  0.00    -0.323 N 
HETATM    2  C   UNL     1      43.367 -11.677   6.879  1.00  0.00     0.256 C 
HETATM    3  O   UNL     1      42.223 -11.411   6.515  1.00  0.00    -0.267 OA
HETATM    4  H   UNL     1      44.956 -12.997   6.938  1.00  0.00     0.169 HD
ENDROOT
BRANCH   1   5
HETATM    5  C   UNL     1      43.307 -14.138   6.461  1.00  0.00     0.035 A 
HETATM    6  C   UNL     1      42.973 -14.478   5.148  1.00  0.00     0.046 A 
HETATM    7  C   UNL     1      42.351 -15.701   4.858  1.00  0.00     0.034 A 
HETATM    8  C   UNL     1      42.008 -16.567   5.899  1.00  0.00     0.017 A 
HETATM    9  C   UNL     1      42.312 -16.223   7.217  1.00  0.00     0.003 A 
HETATM   10  C   UNL     1      42.962 -15.016   7.494  1.00  0.00     0.029 A 
BRANCH   7  11
HETATM   11  C   UNL     1      42.020 -16.088   3.456  1.00  0.00     0.251 C 
HETATM   12  N   UNL     1      41.175 -15.233   2.776  1.00  0.00    -0.357 N 
HETATM   13  H   UNL     1      41.019 -14.307   3.154  1.00  0.00     0.162 HD
HETATM   14  O   UNL     1      42.510 -17.095   2.960  1.00  0.00    -0.268 OA
BRANCH  12  15
HETATM   15  C   UNL     1      40.831 -15.454   1.388  1.00  0.00     0.122 C 
BRANCH  15  16
HETATM   16  C   UNL     1      40.375 -14.169   0.704  1.00  0.00     0.015 C 
HETATM   17  C   UNL     1      41.260 -12.978   1.044  1.00  0.00     0.006 C 
ENDBRANCH  15  16
ENDBRANCH  12  15
ENDBRANCH   7  11
ENDBRANCH   1   5
BRANCH   2  18
HETATM   18  C   UNL     1      44.192 -10.555   7.423  1.00  0.00     0.037 A 
HETATM   19  C   UNL     1      43.664  -9.341   7.858  1.00  0.00     0.075 A 
HETATM   20  C   UNL     1      44.552  -8.360   8.266  1.00  0.00     0.165 A 
HETATM   21  N   UNL     1      45.891  -8.504   8.280  1.00  0.00    -0.237 NA
HETATM   22  C   UNL     1      46.379  -9.687   7.866  1.00  0.00     0.120 A 
HETATM   23  C   UNL     1      45.582 -10.729   7.433  1.00  0.00     0.036 A 
BRANCH  20  24
HETATM   24  O   UNL     1      44.009  -7.162   8.693  1.00  0.00    -0.329 OA
BRANCH  24  25
HETATM   25  C   UNL     1      42.711  -7.256   9.331  1.00  0.00     0.130 C 
HETATM   26  C   UNL     1      41.840  -5.976   9.402  1.00  0.00     0.032 C 
HETATM   27  C   UNL     1      42.397  -5.730  10.813  1.00  0.00     0.005 C 
HETATM   28  C   UNL     1      42.748  -7.225  10.879  1.00  0.00     0.032 C 
ENDBRANCH  24  25
ENDBRANCH  20  24
ENDBRANCH   2  18
TORSDOF 7
ENDMDL
MODEL 10
REMARK VINA RESULT:      -6.8      6.811     10.762
REMARK  7 active torsions:
REMARK  status: ('A' for Active; 'I' for Inactive)
REMARK    1  A    between atoms: C_2  and  C_3 
REMARK    2  A    between atoms: C_3  and  N_4 
REMARK       I    between atoms: N_4  and  C_5 
REMARK    3  A    between atoms: C_5  and  C_6 
REMARK    4  A    between atoms: C_8  and  N_9 
REMARK       I    between atoms: N_9  and  C_10 
REMARK    5  A    between atoms: C_10  and  C_11 
REMARK    6  A    between atoms: C_13  and  O_14 
REMARK    7  A    between atoms: O_14  and  C_15 
ROOT
HETATM    1  N   UNL     1      40.950 -14.039  -0.008  1.00  0.00    -0.323 N 
HETATM    2  C   UNL     1      40.643 -14.095   1.341  1.00  0.00     0.256 C 
HETATM    3  O   UNL     1      39.689 -13.533   1.875  1.00  0.00    -0.267 OA
HETATM    4  H   UNL     1      41.857 -14.363  -0.309  1.00  0.00     0.169 HD
ENDROOT
BRANCH   1   5
HETATM    5  C   UNL     1      40.142 -13.471  -1.024  1.00  0.00     0.035 A 
HETATM    6  C   UNL     1      40.326 -12.175  -1.511  1.00  0.00     0.046 A 
HETATM    7  C   UNL     1      39.513 -11.669  -2.536  1.00  0.00     0.034 A 
HETATM    8  C   UNL     1      38.468 -12.449  -3.038  1.00  0.00     0.017 A 
HETATM    9  C   UNL     1      38.258 -13.734  -2.538  1.00  0.00     0.003 A 
HETATM   10  C   UNL     1      39.094 -14.243  -1.539  1.00  0.00     0.029 A 
BRANCH   7  11
HETATM   11  C   UNL     1      39.724 -10.299  -3.086  1.00  0.00     0.251 C 
HETATM   12  N   UNL     1      40.782  -9.590  -2.553  1.00  0.00    -0.357 N 
HETATM   13  H   UNL     1      41.479 -10.092  -2.017  1.00  0.00     0.162 HD
HETATM   14  O   UNL     1      38.999  -9.872  -3.976  1.00  0.00    -0.268 OA
BRANCH  12  15
HETATM   15  C   UNL     1      41.139  -8.277  -3.047  1.00  0.00     0.122 C 
BRANCH  15  16
HETATM   16  C   UNL     1      42.518  -7.843  -2.561  1.00  0.00     0.015 C 
HETATM   17  C   UNL     1      42.697  -8.031  -1.061  1.00  0.00     0.006 C 
ENDBRANCH  15  16
ENDBRANCH  12  15
ENDBRANCH   7  11
ENDBRANCH   1   5
BRANCH   2  18
HETATM   18  C   UNL     1      41.555 -14.886   2.224  1.00  0.00     0.037 A 
HETATM   19  C   UNL     1      41.602 -16.279   2.245  1.00  0.00     0.075 A 
HETATM   20  C   UNL     1      42.439 -16.882   3.168  1.00  0.00     0.165 A 
HETATM   21  N   UNL     1      43.218 -16.213   4.041  1.00  0.00    -0.237 NA
HETATM   22  C   UNL     1      43.165 -14.869   3.995  1.00  0.00     0.120 A 
HETATM   23  C   UNL     1      42.361 -14.169   3.118  1.00  0.00     0.036 A 
BRANCH  20  24
HETATM   24  O   UNL     1      42.471 -18.264   3.175  1.00  0.00    -0.329 OA
BRANCH  24  25
HETATM   25  C   UNL     1      43.780 -18.860   3.002  1.00  0.00     0.130 C 
HETATM   26  C   UNL     1      43.874 -20.202   2.233  1.00  0.00     0.032 C 
HETATM   27  C   UNL     1      43.840 -20.929   3.586  1.00  0.00     0.005 C 
HETATM   28  C   UNL     1      44.313 -19.621   4.242  1.00  0.00     0.032 C 
ENDBRANCH  24  25
ENDBRANCH  20  24
ENDBRANCH   2  18
TORSDOF 7
ENDMDL
