MODEL 1
REMARK VINA RESULT:      -9.0      0.000      0.000
REMARK  5 active torsions:
REMARK  status: ('A' for Active; 'I' for Inactive)
REMARK    1  A    between atoms: C_2  and  N_3 
REMARK    2  A    between atoms: C_2  and  C_14 
REMARK       I    between atoms: N_3  and  C_4 
REMARK       I    between atoms: C_4  and  N_5 
REMARK    3  A    between atoms: N_5  and  C_6 
REMARK    4  A    between atoms: C_6  and  C_7 
REMARK    5  A    between atoms: C_16  and  C_17 
ROOT
HETATM    1  C   UNL     1      42.690 -10.862   5.167  1.00  0.00     0.041 C 
HETATM    2  C   UNL     1      43.455 -11.650   6.223  1.00  0.00     0.153 C 
ENDROOT
BRANCH   2   3
HETATM    3  N   UNL     1      43.059 -11.206   7.556  1.00  0.00    -0.332 N 
HETATM    4  C   UNL     1      43.986 -10.972   8.537  1.00  0.00     0.317 C 
HETATM    5  N   UNL     1      43.408 -10.591   9.710  1.00  0.00    -0.339 N 
HETATM    6  O   UNL     1      45.189 -11.127   8.365  1.00  0.00    -0.247 OA
HETATM    7  H   UNL     1      42.468 -10.227   9.672  1.00  0.00     0.164 HD
HETATM    8  H   UNL     1      42.131 -11.458   7.864  1.00  0.00     0.165 HD
BRANCH   5   9
HETATM    9  C   UNL     1      44.194 -10.240  10.873  1.00  0.00     0.162 C 
BRANCH   9  10
HETATM   10  C   UNL     1      43.345  -9.570  11.923  1.00  0.00    -0.040 A 
HETATM   11  C   UNL     1      42.243 -10.232  12.486  1.00  0.00     0.009 A 
HETATM   12  C   UNL     1      41.461  -9.606  13.457  1.00  0.00     0.001 A 
HETATM   13  C   UNL     1      41.767  -8.311  13.874  1.00  0.00     0.000 A 
HETATM   14  C   UNL     1      42.855  -7.641  13.317  1.00  0.00     0.001 A 
HETATM   15  C   UNL     1      43.639  -8.265  12.346  1.00  0.00     0.009 A 
ENDBRANCH   9  10
ENDBRANCH   5   9
ENDBRANCH   2   3
BRANCH   2  16
HETATM   16  C   UNL     1      43.238 -13.124   6.080  1.00  0.00     0.145 A 
HETATM   17  N   UNL     1      43.378 -13.895   5.020  1.00  0.00    -0.210 NA
HETATM   18  C   UNL     1      43.153 -15.169   5.499  1.00  0.00     0.181 A 
HETATM   19  N   UNL     1      42.845 -15.208   6.805  1.00  0.00    -0.152 NA
HETATM   20  N   UNL     1      42.905 -13.912   7.148  1.00  0.00    -0.261 N 
HETATM   21  H   UNL     1      42.700 -13.615   8.101  1.00  0.00     0.190 HD
BRANCH  18  22
HETATM   22  C   UNL     1      43.269 -16.355   4.653  1.00  0.00     0.014 A 
HETATM   23  C   UNL     1      42.662 -16.387   3.388  1.00  0.00     0.017 A 
HETATM   24  C   UNL     1      42.780 -17.514   2.568  1.00  0.00     0.025 A 
HETATM   25  C   UNL     1      43.511 -18.617   3.006  1.00  0.00     0.034 A 
HETATM   26 CL   UNL     1      43.658 -20.002   1.996  1.00  0.00    -0.084 Cl
HETATM   27  C   UNL     1      44.122 -18.603   4.258  1.00  0.00     0.025 A 
HETATM   28  C   UNL     1      44.000 -17.476   5.078  1.00  0.00     0.017 A 
ENDBRANCH  18  22
ENDBRANCH   2  16
TORSDOF 5
ENDMDL
MODEL 2
REMARK VINA RESULT:      -8.9      0.299      1.012
REMARK  5 active torsions:
REMARK  status: ('A' for Active; 'I' for Inactive)
REMARK    1  A    between atoms: C_2  and  N_3 
REMARK    2  A    between atoms: C_2  and  C_14 
REMARK       I    between atoms: N_3  and  C_4 
REMARK       I    between atoms: C_4  and  N_5 
REMARK    3  A    between atoms: N_5  and  C_6 
REMARK    4  A    between atoms: C_6  and  C_7 
REMARK    5  A    between atoms: C_16  and  C_17 
ROOT
HETATM    1  C   UNL     1      42.311 -11.028   5.176  1.00  0.00     0.041 C 
HETATM    2  C   UNL     1      43.251 -11.712   6.163  1.00  0.00     0.153 C 
ENDROOT
BRANCH   2   3
HETATM    3  N   UNL     1      42.930 -11.295   7.524  1.00  0.00    -0.332 N 
HETATM    4  C   UNL     1      43.865 -10.699   8.328  1.00  0.00     0.317 C 
HETATM    5  N   UNL     1      43.371 -10.412   9.565  1.00  0.00    -0.339 N 
HETATM    6  O   UNL     1      45.016 -10.490   7.967  1.00  0.00    -0.247 OA
HETATM    7  H   UNL     1      42.369 -10.360   9.668  1.00  0.00     0.164 HD
HETATM    8  H   UNL     1      42.186 -11.792   7.990  1.00  0.00     0.165 HD
BRANCH   5   9
HETATM    9  C   UNL     1      44.163  -9.732  10.567  1.00  0.00     0.162 C 
BRANCH   9  10
HETATM   10  C   UNL     1      43.321  -9.346  11.757  1.00  0.00    -0.040 A 
HETATM   11  C   UNL     1      42.204 -10.111  12.125  1.00  0.00     0.009 A 
HETATM   12  C   UNL     1      41.429  -9.748  13.228  1.00  0.00     0.001 A 
HETATM   13  C   UNL     1      41.758  -8.616  13.972  1.00  0.00     0.000 A 
HETATM   14  C   UNL     1      42.862  -7.844  13.611  1.00  0.00     0.001 A 
HETATM   15  C   UNL     1      43.639  -8.206  12.510  1.00  0.00     0.009 A 
ENDBRANCH   9  10
ENDBRANCH   5   9
ENDBRANCH   2   3
BRANCH   2  16
HETATM   16  C   UNL     1      43.185 -13.203   6.047  1.00  0.00     0.145 A 
HETATM   17  N   UNL     1      43.244 -13.965   4.973  1.00  0.00    -0.210 NA
HETATM   18  C   UNL     1      43.245 -15.251   5.474  1.00  0.00     0.181 A 
HETATM   19  N   UNL     1      43.156 -15.309   6.812  1.00  0.00    -0.152 NA
HETATM   20  N   UNL     1      43.119 -14.010   7.149  1.00  0.00    -0.261 N 
HETATM   21  H   UNL     1      43.035 -13.728   8.124  1.00  0.00     0.190 HD
BRANCH  18  22
HETATM   22  C   UNL     1      43.362 -16.427   4.613  1.00  0.00     0.014 A 
HETATM   23  C   UNL     1      44.081 -17.552   5.043  1.00  0.00     0.017 A 
HETATM   24  C   UNL     1      44.187 -18.685   4.230  1.00  0.00     0.025 A 
HETATM   25  C   UNL     1      43.569 -18.702   2.981  1.00  0.00     0.034 A 
HETATM   26 CL   UNL     1      43.696 -20.097   1.982  1.00  0.00    -0.084 Cl
HETATM   27  C   UNL     1      42.849 -17.595   2.538  1.00  0.00     0.025 A 
HETATM   28  C   UNL     1      42.747 -16.462   3.351  1.00  0.00     0.017 A 
ENDBRANCH  18  22
ENDBRANCH   2  16
TORSDOF 5
ENDMDL
MODEL 3
REMARK VINA RESULT:      -8.3      1.559      1.771
REMARK  5 active torsions:
REMARK  status: ('A' for Active; 'I' for Inactive)
REMARK    1  A    between atoms: C_2  and  N_3 
REMARK    2  A    between atoms: C_2  and  C_14 
REMARK       I    between atoms: N_3  and  C_4 
REMARK       I    between atoms: C_4  and  N_5 
REMARK    3  A    between atoms: N_5  and  C_6 
REMARK    4  A    between atoms: C_6  and  C_7 
REMARK    5  A    between atoms: C_16  and  C_17 
ROOT
HETATM    1  C   UNL     1      40.734 -12.225   6.061  1.00  0.00     0.041 C 
HETATM    2  C   UNL     1      42.250 -12.308   5.927  1.00  0.00     0.153 C 
ENDROOT
BRANCH   2   3
HETATM    3  N   UNL     1      42.885 -11.658   7.069  1.00  0.00    -0.332 N 
HETATM    4  C   UNL     1      43.091 -10.305   7.097  1.00  0.00     0.317 C 
HETATM    5  N   UNL     1      43.719  -9.904   8.239  1.00  0.00    -0.339 N 
HETATM    6  O   UNL     1      42.770  -9.563   6.177  1.00  0.00    -0.247 OA
HETATM    7  H   UNL     1      43.684 -10.524   9.034  1.00  0.00     0.164 HD
HETATM    8  H   UNL     1      43.512 -12.222   7.624  1.00  0.00     0.165 HD
BRANCH   5   9
HETATM    9  C   UNL     1      43.994  -8.511   8.513  1.00  0.00     0.162 C 
BRANCH   9  10
HETATM   10  C   UNL     1      43.543  -8.129   9.900  1.00  0.00    -0.040 A 
HETATM   11  C   UNL     1      43.817  -8.958  10.998  1.00  0.00     0.009 A 
HETATM   12  C   UNL     1      43.396  -8.599  12.280  1.00  0.00     0.001 A 
HETATM   13  C   UNL     1      42.694  -7.411  12.478  1.00  0.00     0.000 A 
HETATM   14  C   UNL     1      42.410  -6.583  11.393  1.00  0.00     0.001 A 
HETATM   15  C   UNL     1      42.830  -6.939  10.111  1.00  0.00     0.009 A 
ENDBRANCH   9  10
ENDBRANCH   5   9
ENDBRANCH   2   3
BRANCH   2  16
HETATM   16  C   UNL     1      42.718 -13.725   5.807  1.00  0.00     0.145 A 
HETATM   17  N   UNL     1      42.541 -14.588   4.828  1.00  0.00    -0.210 NA
HETATM   18  C   UNL     1      43.281 -15.688   5.211  1.00  0.00     0.181 A 
HETATM   19  N   UNL     1      43.880 -15.546   6.405  1.00  0.00    -0.152 NA
HETATM   20  N   UNL     1      43.511 -14.305   6.759  1.00  0.00    -0.261 N 
HETATM   21  H   UNL     1      43.807 -13.909   7.650  1.00  0.00     0.190 HD
BRANCH  18  22
HETATM   22  C   UNL     1      43.412 -16.876   4.370  1.00  0.00     0.014 A 
HETATM   23  C   UNL     1      42.709 -16.968   3.158  1.00  0.00     0.017 A 
HETATM   24  C   UNL     1      42.839 -18.096   2.342  1.00  0.00     0.025 A 
HETATM   25  C   UNL     1      43.677 -19.140   2.730  1.00  0.00     0.034 A 
HETATM   26 CL   UNL     1      43.838 -20.526   1.724  1.00  0.00    -0.084 Cl
HETATM   27  C   UNL     1      44.383 -19.066   3.928  1.00  0.00     0.025 A 
HETATM   28  C   UNL     1      44.250 -17.938   4.745  1.00  0.00     0.017 A 
ENDBRANCH  18  22
ENDBRANCH   2  16
TORSDOF 5
ENDMDL
MODEL 4
REMARK VINA RESULT:      -8.2      5.894      9.466
REMARK  5 active torsions:
REMARK  status: ('A' for Active; 'I' for Inactive)
REMARK    1  A    between atoms: C_2  and  N_3 
REMARK    2  A    between atoms: C_2  and  C_14 
REMARK       I    between atoms: N_3  and  C_4 
REMARK       I    between atoms: C_4  and  N_5 
REMARK    3  A    between atoms: N_5  and  C_6 
REMARK    4  A    between atoms: C_6  and  C_7 
REMARK    5  A    between atoms: C_16  and  C_17 
ROOT
HETATM    1  C   UNL     1      43.151 -11.431   3.639  1.00  0.00     0.041 C 
HETATM    2  C   UNL     1      42.146 -12.355   2.962  1.00  0.00     0.153 C 
ENDROOT
BRANCH   2   3
HETATM    3  N   UNL     1      41.752 -11.800   1.671  1.00  0.00    -0.332 N 
HETATM    4  C   UNL     1      40.455 -11.856   1.234  1.00  0.00     0.317 C 
HETATM    5  N   UNL     1      40.306 -11.305  -0.003  1.00  0.00    -0.339 N 
HETATM    6  O   UNL     1      39.557 -12.376   1.884  1.00  0.00    -0.247 OA
HETATM    7  H   UNL     1      41.020 -10.668  -0.321  1.00  0.00     0.164 HD
HETATM    8  H   UNL     1      42.466 -11.750   0.959  1.00  0.00     0.165 HD
BRANCH   5   9
HETATM    9  C   UNL     1      39.013 -11.204  -0.645  1.00  0.00     0.162 C 
BRANCH   9  10
HETATM   10  C   UNL     1      38.780 -12.362  -1.583  1.00  0.00    -0.040 A 
HETATM   11  C   UNL     1      37.493 -12.652  -2.059  1.00  0.00     0.009 A 
HETATM   12  C   UNL     1      37.284 -13.726  -2.927  1.00  0.00     0.001 A 
HETATM   13  C   UNL     1      38.357 -14.522  -3.325  1.00  0.00     0.000 A 
HETATM   14  C   UNL     1      39.639 -14.246  -2.853  1.00  0.00     0.001 A 
HETATM   15  C   UNL     1      39.850 -13.174  -1.986  1.00  0.00     0.009 A 
ENDBRANCH   9  10
ENDBRANCH   5   9
ENDBRANCH   2   3
BRANCH   2  16
HETATM   16  C   UNL     1      42.695 -13.737   2.788  1.00  0.00     0.145 A 
HETATM   17  N   UNL     1      42.855 -14.695   3.679  1.00  0.00    -0.210 NA
HETATM   18  C   UNL     1      43.293 -15.773   2.936  1.00  0.00     0.181 A 
HETATM   19  N   UNL     1      43.441 -15.505   1.630  1.00  0.00    -0.152 NA
HETATM   20  N   UNL     1      43.059 -14.220   1.561  1.00  0.00    -0.261 N 
HETATM   21  H   UNL     1      43.077 -13.718   0.675  1.00  0.00     0.190 HD
BRANCH  18  22
HETATM   22  C   UNL     1      43.541 -17.085   3.532  1.00  0.00     0.014 A 
HETATM   23  C   UNL     1      43.622 -17.227   4.926  1.00  0.00     0.017 A 
HETATM   24  C   UNL     1      43.846 -18.481   5.504  1.00  0.00     0.025 A 
HETATM   25  C   UNL     1      43.988 -19.604   4.690  1.00  0.00     0.034 A 
HETATM   26 CL   UNL     1      44.261 -21.147   5.401  1.00  0.00    -0.084 Cl
HETATM   27  C   UNL     1      43.909 -19.483   3.305  1.00  0.00     0.025 A 
HETATM   28  C   UNL     1      43.687 -18.227   2.729  1.00  0.00     0.017 A 
ENDBRANCH  18  22
ENDBRANCH   2  16
TORSDOF 5
ENDMDL
MODEL 5
REMARK VINA RESULT:      -8.2      8.006     10.897
REMARK  5 active torsions:
REMARK  status: ('A' for Active; 'I' for Inactive)
REMARK    1  A    between atoms: C_2  and  N_3 
REMARK    2  A    between atoms: C_2  and  C_14 
REMARK       I    between atoms: N_3  and  C_4 
REMARK       I    between atoms: C_4  and  N_5 
REMARK    3  A    between atoms: N_5  and  C_6 
REMARK    4  A    between atoms: C_6  and  C_7 
REMARK    5  A    between atoms: C_16  and  C_17 
ROOT
HETATM    1  C   UNL     1      39.765 -14.672  -0.654  1.00  0.00     0.041 C 
HETATM    2  C   UNL     1      40.525 -14.005   0.487  1.00  0.00     0.153 C 
ENDROOT
BRANCH   2   3
HETATM    3  N   UNL     1      41.683 -14.815   0.852  1.00  0.00    -0.332 N 
HETATM    4  C   UNL     1      41.896 -15.215   2.145  1.00  0.00     0.317 C 
HETATM    5  N   UNL     1      43.043 -15.939   2.276  1.00  0.00    -0.339 N 
HETATM    6  O   UNL     1      41.146 -14.915   3.066  1.00  0.00    -0.247 OA
HETATM    7  H   UNL     1      43.427 -16.361   1.445  1.00  0.00     0.164 HD
HETATM    8  H   UNL     1      42.499 -14.735   0.265  1.00  0.00     0.165 HD
BRANCH   5   9
HETATM    9  C   UNL     1      43.446 -16.511   3.542  1.00  0.00     0.162 C 
BRANCH   9  10
HETATM   10  C   UNL     1      43.561 -18.012   3.449  1.00  0.00    -0.040 A 
HETATM   11  C   UNL     1      44.077 -18.761   4.517  1.00  0.00     0.009 A 
HETATM   12  C   UNL     1      44.181 -20.150   4.423  1.00  0.00     0.001 A 
HETATM   13  C   UNL     1      43.775 -20.805   3.262  1.00  0.00     0.000 A 
HETATM   14  C   UNL     1      43.266 -20.070   2.192  1.00  0.00     0.001 A 
HETATM   15  C   UNL     1      43.161 -18.682   2.283  1.00  0.00     0.009 A 
ENDBRANCH   9  10
ENDBRANCH   5   9
ENDBRANCH   2   3
BRANCH   2  16
HETATM   16  C   UNL     1      40.954 -12.616   0.128  1.00  0.00     0.145 A 
HETATM   17  N   UNL     1      41.047 -12.046  -1.056  1.00  0.00    -0.210 NA
HETATM   18  C   UNL     1      41.382 -10.737  -0.773  1.00  0.00     0.181 A 
HETATM   19  N   UNL     1      41.531 -10.490   0.538  1.00  0.00    -0.152 NA
HETATM   20  N   UNL     1      41.257 -11.685   1.083  1.00  0.00    -0.261 N 
HETATM   21  H   UNL     1      41.303 -11.820   2.092  1.00  0.00     0.190 HD
BRANCH  18  22
HETATM   22  C   UNL     1      41.529  -9.723  -1.816  1.00  0.00     0.014 A 
HETATM   23  C   UNL     1      42.337  -8.596  -1.600  1.00  0.00     0.017 A 
HETATM   24  C   UNL     1      42.493  -7.628  -2.598  1.00  0.00     0.025 A 
HETATM   25  C   UNL     1      41.844  -7.784  -3.822  1.00  0.00     0.034 A 
HETATM   26 CL   UNL     1      42.038  -6.595  -5.050  1.00  0.00    -0.084 Cl
HETATM   27  C   UNL     1      41.041  -8.897  -4.055  1.00  0.00     0.025 A 
HETATM   28  C   UNL     1      40.884  -9.862  -3.055  1.00  0.00     0.017 A 
ENDBRANCH  18  22
ENDBRANCH   2  16
TORSDOF 5
ENDMDL
MODEL 6
REMARK VINA RESULT:      -8.2      1.559      2.182
REMARK  5 active torsions:
REMARK  status: ('A' for Active; 'I' for Inactive)
REMARK    1  A    between atoms: C_2  and  N_3 
REMARK    2  A    between atoms: C_2  and  C_14 
REMARK       I    between atoms: N_3  and  C_4 
REMARK       I    between atoms: C_4  and  N_5 
REMARK    3  A    between atoms: N_5  and  C_6 
REMARK    4  A    between atoms: C_6  and  C_7 
REMARK    5  A    between atoms: C_16  and  C_17 
ROOT
HETATM    1  C   UNL     1      40.179 -10.723   6.030  1.00  0.00     0.041 C 
HETATM    2  C   UNL     1      41.700 -10.620   6.048  1.00  0.00     0.153 C 
ENDROOT
BRANCH   2   3
HETATM    3  N   UNL     1      42.194 -10.816   7.408  1.00  0.00    -0.332 N 
HETATM    4  C   UNL     1      42.856  -9.822   8.078  1.00  0.00     0.317 C 
HETATM    5  N   UNL     1      43.254 -10.216   9.320  1.00  0.00    -0.339 N 
HETATM    6  O   UNL     1      43.081  -8.723   7.585  1.00  0.00    -0.247 OA
HETATM    7  H   UNL     1      42.788 -11.011   9.730  1.00  0.00     0.164 HD
HETATM    8  H   UNL     1      42.404 -11.763   7.685  1.00  0.00     0.165 HD
BRANCH   5   9
HETATM    9  C   UNL     1      43.926  -9.315  10.231  1.00  0.00     0.162 C 
BRANCH   9  10
HETATM   10  C   UNL     1      43.157  -9.171  11.520  1.00  0.00    -0.040 A 
HETATM   11  C   UNL     1      42.061 -10.000  11.799  1.00  0.00     0.009 A 
HETATM   12  C   UNL     1      41.353  -9.860  12.994  1.00  0.00     0.001 A 
HETATM   13  C   UNL     1      41.730  -8.889  13.921  1.00  0.00     0.000 A 
HETATM   14  C   UNL     1      42.814  -8.055  13.651  1.00  0.00     0.001 A 
HETATM   15  C   UNL     1      43.524  -8.193  12.458  1.00  0.00     0.009 A 
ENDBRANCH   9  10
ENDBRANCH   5   9
ENDBRANCH   2   3
BRANCH   2  16
HETATM   16  C   UNL     1      42.333 -11.607   5.117  1.00  0.00     0.145 A 
HETATM   17  N   UNL     1      42.205 -12.918   5.071  1.00  0.00    -0.210 NA
HETATM   18  C   UNL     1      42.924 -13.285   3.951  1.00  0.00     0.181 A 
HETATM   19  N   UNL     1      43.516 -12.254   3.328  1.00  0.00    -0.152 NA
HETATM   20  N   UNL     1      43.130 -11.211   4.079  1.00  0.00    -0.261 N 
HETATM   21  H   UNL     1      43.442 -10.267   3.858  1.00  0.00     0.190 HD
BRANCH  18  22
HETATM   22  C   UNL     1      42.998 -14.669   3.488  1.00  0.00     0.014 A 
HETATM   23  C   UNL     1      42.823 -15.730   4.390  1.00  0.00     0.017 A 
HETATM   24  C   UNL     1      42.880 -17.056   3.952  1.00  0.00     0.025 A 
HETATM   25  C   UNL     1      43.109 -17.333   2.605  1.00  0.00     0.034 A 
HETATM   26 CL   UNL     1      43.177 -18.965   2.066  1.00  0.00    -0.084 Cl
HETATM   27  C   UNL     1      43.283 -16.294   1.694  1.00  0.00     0.025 A 
HETATM   28  C   UNL     1      43.229 -14.967   2.135  1.00  0.00     0.017 A 
ENDBRANCH  18  22
ENDBRANCH   2  16
TORSDOF 5
ENDMDL
MODEL 7
REMARK VINA RESULT:      -8.2      5.343      9.088
REMARK  5 active torsions:
REMARK  status: ('A' for Active; 'I' for Inactive)
REMARK    1  A    between atoms: C_2  and  N_3 
REMARK    2  A    between atoms: C_2  and  C_14 
REMARK       I    between atoms: N_3  and  C_4 
REMARK       I    between atoms: C_4  and  N_5 
REMARK    3  A    between atoms: N_5  and  C_6 
REMARK    4  A    between atoms: C_6  and  C_7 
REMARK    5  A    between atoms: C_16  and  C_17 
ROOT
HETATM    1  C   UNL     1      39.982 -12.615   6.006  1.00  0.00     0.041 C 
HETATM    2  C   UNL     1      40.993 -13.041   4.947  1.00  0.00     0.153 C 
ENDROOT
BRANCH   2   3
HETATM    3  N   UNL     1      41.257 -14.472   5.062  1.00  0.00    -0.332 N 
HETATM    4  C   UNL     1      42.534 -14.967   5.034  1.00  0.00     0.317 C 
HETATM    5  N   UNL     1      42.560 -16.327   5.129  1.00  0.00    -0.339 N 
HETATM    6  O   UNL     1      43.521 -14.255   4.903  1.00  0.00    -0.247 OA
HETATM    7  H   UNL     1      41.745 -16.784   5.509  1.00  0.00     0.164 HD
HETATM    8  H   UNL     1      40.524 -15.096   4.760  1.00  0.00     0.165 HD
BRANCH   5   9
HETATM    9  C   UNL     1      43.801 -17.068   5.173  1.00  0.00     0.162 C 
BRANCH   9  10
HETATM   10  C   UNL     1      43.730 -18.302   4.310  1.00  0.00    -0.040 A 
HETATM   11  C   UNL     1      43.347 -18.215   2.964  1.00  0.00     0.009 A 
HETATM   12  C   UNL     1      43.282 -19.362   2.170  1.00  0.00     0.001 A 
HETATM   13  C   UNL     1      43.595 -20.607   2.714  1.00  0.00     0.000 A 
HETATM   14  C   UNL     1      43.971 -20.706   4.052  1.00  0.00     0.001 A 
HETATM   15  C   UNL     1      44.037 -19.561   4.847  1.00  0.00     0.009 A 
ENDBRANCH   9  10
ENDBRANCH   5   9
ENDBRANCH   2   3
BRANCH   2  16
HETATM   16  C   UNL     1      40.522 -12.708   3.566  1.00  0.00     0.145 A 
HETATM   17  N   UNL     1      40.376 -13.492   2.517  1.00  0.00    -0.210 NA
HETATM   18  C   UNL     1      39.810 -12.671   1.562  1.00  0.00     0.181 A 
HETATM   19  N   UNL     1      39.635 -11.405   1.972  1.00  0.00    -0.152 NA
HETATM   20  N   UNL     1      40.090 -11.453   3.234  1.00  0.00    -0.261 N 
HETATM   21  H   UNL     1      40.100 -10.617   3.816  1.00  0.00     0.190 HD
BRANCH  18  22
HETATM   22  C   UNL     1      39.420 -13.161   0.241  1.00  0.00     0.014 A 
HETATM   23  C   UNL     1      39.848 -14.422  -0.203  1.00  0.00     0.017 A 
HETATM   24  C   UNL     1      39.468 -14.903  -1.460  1.00  0.00     0.025 A 
HETATM   25  C   UNL     1      38.653 -14.127  -2.282  1.00  0.00     0.034 A 
HETATM   26 CL   UNL     1      38.183 -14.720  -3.827  1.00  0.00    -0.084 Cl
HETATM   27  C   UNL     1      38.216 -12.874  -1.858  1.00  0.00     0.025 A 
HETATM   28  C   UNL     1      38.599 -12.394  -0.601  1.00  0.00     0.017 A 
ENDBRANCH  18  22
ENDBRANCH   2  16
TORSDOF 5
ENDMDL
MODEL 8
REMARK VINA RESULT:      -7.9      1.819      2.313
REMARK  5 active torsions:
REMARK  status: ('A' for Active; 'I' for Inactive)
REMARK    1  A    between atoms: C_2  and  N_3 
REMARK    2  A    between atoms: C_2  and  C_14 
REMARK       I    between atoms: N_3  and  C_4 
REMARK       I    between atoms: C_4  and  N_5 
REMARK    3  A    between atoms: N_5  and  C_6 
REMARK    4  A    between atoms: C_6  and  C_7 
REMARK    5  A    between atoms: C_16  and  C_17 
ROOT
HETATM    1  C   UNL     1      39.326 -10.842   5.010  1.00  0.00     0.041 C 
HETATM    2  C   UNL     1      40.672 -11.254   5.594  1.00  0.00     0.153 C 
ENDROOT
BRANCH   2   3
HETATM    3  N   UNL     1      40.779 -10.783   6.972  1.00  0.00    -0.332 N 
HETATM    4  C   UNL     1      41.869 -10.073   7.401  1.00  0.00     0.317 C 
HETATM    5  N   UNL     1      41.784  -9.751   8.723  1.00  0.00    -0.339 N 
HETATM    6  O   UNL     1      42.814  -9.799   6.672  1.00  0.00    -0.247 OA
HETATM    7  H   UNL     1      40.872  -9.769   9.151  1.00  0.00     0.164 HD
HETATM    8  H   UNL     1      40.277 -11.307   7.673  1.00  0.00     0.165 HD
BRANCH   5   9
HETATM    9  C   UNL     1      42.797  -8.957   9.383  1.00  0.00     0.162 C 
BRANCH   9  10
HETATM   10  C   UNL     1      42.605  -8.965  10.879  1.00  0.00    -0.040 A 
HETATM   11  C   UNL     1      43.352  -8.111  11.704  1.00  0.00     0.009 A 
HETATM   12  C   UNL     1      43.169  -8.125  13.088  1.00  0.00     0.001 A 
HETATM   13  C   UNL     1      42.243  -8.994  13.663  1.00  0.00     0.000 A 
HETATM   14  C   UNL     1      41.500  -9.852  12.853  1.00  0.00     0.001 A 
HETATM   15  C   UNL     1      41.680  -9.840  11.470  1.00  0.00     0.009 A 
ENDBRANCH   9  10
ENDBRANCH   5   9
ENDBRANCH   2   3
BRANCH   2  16
HETATM   16  C   UNL     1      40.871 -12.737   5.534  1.00  0.00     0.145 A 
HETATM   17  N   UNL     1      41.457 -13.469   4.608  1.00  0.00    -0.210 NA
HETATM   18  C   UNL     1      41.444 -14.745   5.132  1.00  0.00     0.181 A 
HETATM   19  N   UNL     1      40.842 -14.832   6.329  1.00  0.00    -0.152 NA
HETATM   20  N   UNL     1      40.490 -13.557   6.560  1.00  0.00    -0.261 N 
HETATM   21  H   UNL     1      39.989 -13.302   7.409  1.00  0.00     0.190 HD
BRANCH  18  22
HETATM   22  C   UNL     1      42.058 -15.880   4.444  1.00  0.00     0.014 A 
HETATM   23  C   UNL     1      43.027 -16.662   5.092  1.00  0.00     0.017 A 
HETATM   24  C   UNL     1      43.609 -17.757   4.445  1.00  0.00     0.025 A 
HETATM   25  C   UNL     1      43.223 -18.080   3.145  1.00  0.00     0.034 A 
HETATM   26 CL   UNL     1      43.937 -19.428   2.350  1.00  0.00    -0.084 Cl
HETATM   27  C   UNL     1      42.261 -17.316   2.487  1.00  0.00     0.025 A 
HETATM   28  C   UNL     1      41.682 -16.220   3.135  1.00  0.00     0.017 A 
ENDBRANCH  18  22
ENDBRANCH   2  16
TORSDOF 5
ENDMDL
MODEL 9
REMARK VINA RESULT:      -7.7      3.979      9.763
REMARK  5 active torsions:
REMARK  status: ('A' for Active; 'I' for Inactive)
REMARK    1  A    between atoms: C_2  and  N_3 
REMARK    2  A    between atoms: C_2  and  C_14 
REMARK       I    between atoms: N_3  and  C_4 
REMARK       I    between atoms: C_4  and  N_5 
REMARK    3  A    between atoms: N_5  and  C_6 
REMARK    4  A    between atoms: C_6  and  C_7 
REMARK    5  A    between atoms: C_16  and  C_17 
ROOT
HETATM    1  C   UNL     1      41.499  -9.760   4.192  1.00  0.00     0.041 C 
HETATM    2  C   UNL     1      41.616 -10.971   5.111  1.00  0.00     0.153 C 
ENDROOT
BRANCH   2   3
HETATM    3  N   UNL     1      42.216 -12.086   4.386  1.00  0.00    -0.332 N 
HETATM    4  C   UNL     1      41.517 -13.238   4.140  1.00  0.00     0.317 C 
HETATM    5  N   UNL     1      42.266 -14.162   3.474  1.00  0.00    -0.339 N 
HETATM    6  O   UNL     1      40.364 -13.409   4.515  1.00  0.00    -0.247 OA
HETATM    7  H   UNL     1      43.078 -13.833   2.975  1.00  0.00     0.164 HD
HETATM    8  H   UNL     1      43.221 -12.169   4.428  1.00  0.00     0.165 HD
BRANCH   5   9
HETATM    9  C   UNL     1      41.720 -15.436   3.061  1.00  0.00     0.162 C 
BRANCH   9  10
HETATM   10  C   UNL     1      42.663 -16.565   3.391  1.00  0.00    -0.040 A 
HETATM   11  C   UNL     1      42.840 -17.636   2.503  1.00  0.00     0.009 A 
HETATM   12  C   UNL     1      43.714 -18.679   2.815  1.00  0.00     0.001 A 
HETATM   13  C   UNL     1      44.417 -18.665   4.019  1.00  0.00     0.000 A 
HETATM   14  C   UNL     1      44.243 -17.609   4.913  1.00  0.00     0.001 A 
HETATM   15  C   UNL     1      43.371 -16.566   4.603  1.00  0.00     0.009 A 
ENDBRANCH   9  10
ENDBRANCH   5   9
ENDBRANCH   2   3
BRANCH   2  16
HETATM   16  C   UNL     1      42.413 -10.659   6.339  1.00  0.00     0.145 A 
HETATM   17  N   UNL     1      42.095  -9.916   7.380  1.00  0.00    -0.210 NA
HETATM   18  C   UNL     1      43.159 -10.078   8.245  1.00  0.00     0.181 A 
HETATM   19  N   UNL     1      44.133 -10.864   7.761  1.00  0.00    -0.152 NA
HETATM   20  N   UNL     1      43.642 -11.216   6.562  1.00  0.00    -0.261 N 
HETATM   21  H   UNL     1      44.177 -11.816   5.937  1.00  0.00     0.190 HD
BRANCH  18  22
HETATM   22  C   UNL     1      43.190  -9.464   9.571  1.00  0.00     0.014 A 
HETATM   23  C   UNL     1      42.995  -8.082   9.718  1.00  0.00     0.017 A 
HETATM   24  C   UNL     1      43.010  -7.490  10.985  1.00  0.00     0.025 A 
HETATM   25  C   UNL     1      43.217  -8.278  12.116  1.00  0.00     0.034 A 
HETATM   26 CL   UNL     1      43.233  -7.550  13.675  1.00  0.00    -0.084 Cl
HETATM   27  C   UNL     1      43.410  -9.652  11.990  1.00  0.00     0.025 A 
HETATM   28  C   UNL     1      43.397 -10.242  10.722  1.00  0.00     0.017 A 
ENDBRANCH  18  22
ENDBRANCH   2  16
TORSDOF 5
ENDMDL
MODEL 10
REMARK VINA RESULT:      -7.6     18.293     20.747
REMARK  5 active torsions:
REMARK  status: ('A' for Active; 'I' for Inactive)
REMARK    1  A    between atoms: C_2  and  N_3 
REMARK    2  A    between atoms: C_2  and  C_14 
REMARK       I    between atoms: N_3  and  C_4 
REMARK       I    between atoms: C_4  and  N_5 
REMARK    3  A    between atoms: N_5  and  C_6 
REMARK    4  A    between atoms: C_6  and  C_7 
REMARK    5  A    between atoms: C_16  and  C_17 
ROOT
HETATM    1  C   UNL     1      49.001 -29.168   3.694  1.00  0.00     0.041 C 
HETATM    2  C   UNL     1      48.318 -29.880   2.532  1.00  0.00     0.153 C 
ENDROOT
BRANCH   2   3
HETATM    3  N   UNL     1      47.117 -29.149   2.139  1.00  0.00    -0.332 N 
HETATM    4  C   UNL     1      46.205 -29.687   1.271  1.00  0.00     0.317 C 
HETATM    5  N   UNL     1      45.173 -28.834   1.017  1.00  0.00    -0.339 N 
HETATM    6  O   UNL     1      46.339 -30.796   0.768  1.00  0.00    -0.247 OA
HETATM    7  H   UNL     1      45.009 -28.089   1.676  1.00  0.00     0.164 HD
HETATM    8  H   UNL     1      47.164 -28.141   2.177  1.00  0.00     0.165 HD
BRANCH   5   9
HETATM    9  C   UNL     1      44.062 -29.208   0.169  1.00  0.00     0.162 C 
BRANCH   9  10
HETATM   10  C   UNL     1      44.396 -29.004  -1.287  1.00  0.00    -0.040 A 
HETATM   11  C   UNL     1      45.148 -27.895  -1.703  1.00  0.00     0.009 A 
HETATM   12  C   UNL     1      45.453 -27.712  -3.053  1.00  0.00     0.001 A 
HETATM   13  C   UNL     1      45.007 -28.631  -4.002  1.00  0.00     0.000 A 
HETATM   14  C   UNL     1      44.253 -29.733  -3.601  1.00  0.00     0.001 A 
HETATM   15  C   UNL     1      43.947 -29.918  -2.252  1.00  0.00     0.009 A 
ENDBRANCH   9  10
ENDBRANCH   5   9
ENDBRANCH   2   3
BRANCH   2  16
HETATM   16  C   UNL     1      49.238 -30.037   1.361  1.00  0.00     0.145 A 
HETATM   17  N   UNL     1      50.153 -30.957   1.130  1.00  0.00    -0.210 NA
HETATM   18  C   UNL     1      50.607 -30.665  -0.141  1.00  0.00     0.181 A 
HETATM   19  N   UNL     1      50.030 -29.582  -0.685  1.00  0.00    -0.152 NA
HETATM   20  N   UNL     1      49.174 -29.205   0.278  1.00  0.00    -0.261 N 
HETATM   21  H   UNL     1      48.589 -28.380   0.159  1.00  0.00     0.190 HD
BRANCH  18  22
HETATM   22  C   UNL     1      51.603 -31.489  -0.824  1.00  0.00     0.014 A 
HETATM   23  C   UNL     1      52.200 -32.574  -0.163  1.00  0.00     0.017 A 
HETATM   24  C   UNL     1      53.144 -33.374  -0.815  1.00  0.00     0.025 A 
HETATM   25  C   UNL     1      53.497 -33.096  -2.134  1.00  0.00     0.034 A 
HETATM   26 CL   UNL     1      54.657 -34.081  -2.936  1.00  0.00    -0.084 Cl
HETATM   27  C   UNL     1      52.914 -32.024  -2.806  1.00  0.00     0.025 A 
HETATM   28  C   UNL     1      51.972 -31.223  -2.152  1.00  0.00     0.017 A 
ENDBRANCH  18  22
ENDBRANCH   2  16
TORSDOF 5
ENDMDL
