MODEL 1
REMARK VINA RESULT:      -8.5      0.000      0.000
REMARK  6 active torsions:
REMARK  status: ('A' for Active; 'I' for Inactive)
REMARK    1  A    between atoms: O_2  and  C_3 
REMARK    2  A    between atoms: C_4  and  C_5 
REMARK    3  A    between atoms: C_5  and  N_6 
REMARK    4  A    between atoms: N_6  and  C_7 
REMARK    5  A    between atoms: C_9  and  N_10 
REMARK    6  A    between atoms: N_10  and  C_11 
ROOT
HETATM    1  C   UNL     1      41.955 -14.685   4.585  1.00  0.00     0.135 A 
HETATM    2  N   UNL     1      42.771 -14.343   5.597  1.00  0.00    -0.052 NA
HETATM    3  C   UNL     1      42.679 -13.100   6.101  1.00  0.00     0.702 A 
HETATM    4  N   UNL     1      41.821 -12.205   5.616  1.00  0.00    -0.189 N 
HETATM    5  H   UNL     1      41.787 -11.301   6.063  1.00  0.00     0.184 HD
HETATM    6  C   UNL     1      40.987 -12.498   4.611  1.00  0.00     0.062 A 
HETATM    7  C   UNL     1      41.008 -13.788   4.051  1.00  0.00     0.032 A 
HETATM    8  C   UNL     1      40.086 -11.524   4.151  1.00  0.00     0.031 A 
HETATM    9  C   UNL     1      39.181 -11.826   3.136  1.00  0.00     0.002 A 
HETATM   10  C   UNL     1      39.160 -13.105   2.589  1.00  0.00     0.001 A 
HETATM   11  C   UNL     1      40.052 -14.077   3.045  1.00  0.00     0.017 A 
ENDROOT
BRANCH   1  12
HETATM   12  N   UNL     1      42.071 -16.012   4.202  1.00  0.00    -0.272 NA
HETATM   13  H   UNL     1      42.127 -16.565   5.057  1.00  0.00     0.129 HD
BRANCH  12  14
HETATM   14  C   UNL     1      43.177 -16.395   3.314  1.00  0.00     0.135 C 
BRANCH  14  15
HETATM   15  C   UNL     1      43.407 -17.896   3.318  1.00  0.00    -0.012 A 
HETATM   16  C   UNL     1      43.903 -18.516   4.485  1.00  0.00     0.075 A 
HETATM   17  C   UNL     1      44.125 -19.898   4.498  1.00  0.00     0.037 A 
HETATM   18  C   UNL     1      43.846 -20.672   3.371  1.00  0.00     0.003 A 
HETATM   19  C   UNL     1      43.341 -20.074   2.222  1.00  0.00     0.001 A 
HETATM   20  C   UNL     1      43.120 -18.698   2.198  1.00  0.00     0.011 A 
BRANCH  16  21
HETATM   21  O   UNL     1      44.146 -17.679   5.546  1.00  0.00    -0.355 OA
HETATM   22  C   UNL     1      43.482 -17.979   6.770  1.00  0.00     0.210 C 
ENDBRANCH  16  21
ENDBRANCH  14  15
ENDBRANCH  12  14
ENDBRANCH   1  12
BRANCH   3  23
HETATM   23  N   UNL     1      43.439 -12.713   7.182  1.00  0.00    -0.220 N 
HETATM   24  H   UNL     1      43.295 -13.128   8.091  1.00  0.00     0.178 HD
BRANCH  23  25
HETATM   25  C   UNL     1      44.014 -11.372   7.209  1.00  0.00     0.099 C 
HETATM   26  C   UNL     1      44.205 -10.898   8.650  1.00  0.00     0.026 C 
HETATM   27  C   UNL     1      45.381  -9.942   8.553  1.00  0.00     0.002 C 
HETATM   28  C   UNL     1      46.328 -10.653   7.600  1.00  0.00     0.002 C 
HETATM   29  C   UNL     1      45.427 -11.381   6.604  1.00  0.00     0.026 C 
ENDBRANCH  23  25
ENDBRANCH   3  23
TORSDOF 6
ENDMDL
MODEL 2
REMARK VINA RESULT:      -8.5      3.040      5.804
REMARK  6 active torsions:
REMARK  status: ('A' for Active; 'I' for Inactive)
REMARK    1  A    between atoms: O_2  and  C_3 
REMARK    2  A    between atoms: C_4  and  C_5 
REMARK    3  A    between atoms: C_5  and  N_6 
REMARK    4  A    between atoms: N_6  and  C_7 
REMARK    5  A    between atoms: C_9  and  N_10 
REMARK    6  A    between atoms: N_10  and  C_11 
ROOT
HETATM    1  C   UNL     1      41.345 -15.204   3.260  1.00  0.00     0.135 A 
HETATM    2  N   UNL     1      41.402 -15.280   1.919  1.00  0.00    -0.052 NA
HETATM    3  C   UNL     1      40.794 -14.322   1.198  1.00  0.00     0.702 A 
HETATM    4  N   UNL     1      40.129 -13.322   1.772  1.00  0.00    -0.189 N 
HETATM    5  H   UNL     1      39.722 -12.624   1.168  1.00  0.00     0.184 HD
HETATM    6  C   UNL     1      40.046 -13.202   3.103  1.00  0.00     0.062 A 
HETATM    7  C   UNL     1      40.682 -14.152   3.923  1.00  0.00     0.032 A 
HETATM    8  C   UNL     1      39.352 -12.115   3.658  1.00  0.00     0.031 A 
HETATM    9  C   UNL     1      39.293 -11.950   5.041  1.00  0.00     0.002 A 
HETATM   10  C   UNL     1      39.941 -12.858   5.871  1.00  0.00     0.001 A 
HETATM   11  C   UNL     1      40.635 -13.939   5.323  1.00  0.00     0.017 A 
ENDROOT
BRANCH   1  12
HETATM   12  N   UNL     1      42.078 -16.188   3.904  1.00  0.00    -0.272 NA
HETATM   13  H   UNL     1      42.238 -15.864   4.858  1.00  0.00     0.129 HD
BRANCH  12  14
HETATM   14  C   UNL     1      43.361 -16.607   3.322  1.00  0.00     0.135 C 
BRANCH  14  15
HETATM   15  C   UNL     1      43.541 -18.113   3.383  1.00  0.00    -0.012 A 
HETATM   16  C   UNL     1      43.955 -18.711   4.593  1.00  0.00     0.075 A 
HETATM   17  C   UNL     1      44.131 -20.098   4.659  1.00  0.00     0.037 A 
HETATM   18  C   UNL     1      43.886 -20.898   3.543  1.00  0.00     0.003 A 
HETATM   19  C   UNL     1      43.460 -20.322   2.351  1.00  0.00     0.001 A 
HETATM   20  C   UNL     1      43.286 -18.941   2.274  1.00  0.00     0.011 A 
BRANCH  16  21
HETATM   21  O   UNL     1      44.170 -17.849   5.639  1.00  0.00    -0.355 OA
HETATM   22  C   UNL     1      43.383 -18.045   6.810  1.00  0.00     0.210 C 
ENDBRANCH  16  21
ENDBRANCH  14  15
ENDBRANCH  12  14
ENDBRANCH   1  12
BRANCH   3  23
HETATM   23  N   UNL     1      40.875 -14.309  -0.178  1.00  0.00    -0.220 N 
HETATM   24  H   UNL     1      41.767 -14.224  -0.642  1.00  0.00     0.178 HD
BRANCH  23  25
HETATM   25  C   UNL     1      39.735 -13.835  -0.956  1.00  0.00     0.099 C 
HETATM   26  C   UNL     1      40.196 -12.880  -2.058  1.00  0.00     0.026 C 
HETATM   27  C   UNL     1      39.147 -13.058  -3.140  1.00  0.00     0.002 C 
HETATM   28  C   UNL     1      38.911 -14.560  -3.152  1.00  0.00     0.002 C 
HETATM   29  C   UNL     1      39.068 -15.004  -1.699  1.00  0.00     0.026 C 
ENDBRANCH  23  25
ENDBRANCH   3  23
TORSDOF 6
ENDMDL
MODEL 3
REMARK VINA RESULT:      -8.4      2.092      6.972
REMARK  6 active torsions:
REMARK  status: ('A' for Active; 'I' for Inactive)
REMARK    1  A    between atoms: O_2  and  C_3 
REMARK    2  A    between atoms: C_4  and  C_5 
REMARK    3  A    between atoms: C_5  and  N_6 
REMARK    4  A    between atoms: N_6  and  C_7 
REMARK    5  A    between atoms: C_9  and  N_10 
REMARK    6  A    between atoms: N_10  and  C_11 
ROOT
HETATM    1  C   UNL     1      43.695 -16.751   4.441  1.00  0.00     0.135 A 
HETATM    2  N   UNL     1      43.317 -15.847   3.521  1.00  0.00    -0.052 NA
HETATM    3  C   UNL     1      43.005 -16.283   2.288  1.00  0.00     0.702 A 
HETATM    4  N   UNL     1      43.078 -17.569   1.955  1.00  0.00    -0.189 N 
HETATM    5  H   UNL     1      42.801 -17.826   1.019  1.00  0.00     0.184 HD
HETATM    6  C   UNL     1      43.448 -18.506   2.837  1.00  0.00     0.062 A 
HETATM    7  C   UNL     1      43.762 -18.129   4.154  1.00  0.00     0.032 A 
HETATM    8  C   UNL     1      43.487 -19.854   2.440  1.00  0.00     0.031 A 
HETATM    9  C   UNL     1      43.827 -20.846   3.357  1.00  0.00     0.002 A 
HETATM   10  C   UNL     1      44.111 -20.501   4.674  1.00  0.00     0.001 A 
HETATM   11  C   UNL     1      44.069 -19.164   5.073  1.00  0.00     0.017 A 
ENDROOT
BRANCH   1  12
HETATM   12  N   UNL     1      43.907 -16.208   5.699  1.00  0.00    -0.272 NA
HETATM   13  H   UNL     1      44.541 -16.837   6.191  1.00  0.00     0.129 HD
BRANCH  12  14
HETATM   14  C   UNL     1      42.744 -15.937   6.555  1.00  0.00     0.135 C 
BRANCH  14  15
HETATM   15  C   UNL     1      42.033 -14.658   6.151  1.00  0.00    -0.012 A 
HETATM   16  C   UNL     1      42.712 -13.426   6.261  1.00  0.00     0.075 A 
HETATM   17  C   UNL     1      42.065 -12.239   5.898  1.00  0.00     0.037 A 
HETATM   18  C   UNL     1      40.757 -12.265   5.412  1.00  0.00     0.003 A 
HETATM   19  C   UNL     1      40.085 -13.475   5.283  1.00  0.00     0.001 A 
HETATM   20  C   UNL     1      40.720 -14.662   5.646  1.00  0.00     0.011 A 
BRANCH  16  21
HETATM   21  O   UNL     1      43.995 -13.495   6.744  1.00  0.00    -0.355 OA
HETATM   22  C   UNL     1      44.758 -12.292   6.726  1.00  0.00     0.210 C 
ENDBRANCH  16  21
ENDBRANCH  14  15
ENDBRANCH  12  14
ENDBRANCH   1  12
BRANCH   3  23
HETATM   23  N   UNL     1      42.544 -15.414   1.322  1.00  0.00    -0.220 N 
HETATM   24  H   UNL     1      43.183 -14.967   0.682  1.00  0.00     0.178 HD
BRANCH  23  25
HETATM   25  C   UNL     1      41.301 -14.684   1.551  1.00  0.00     0.099 C 
HETATM   26  C   UNL     1      41.570 -13.181   1.642  1.00  0.00     0.026 C 
HETATM   27  C   UNL     1      40.271 -12.562   1.158  1.00  0.00     0.002 C 
HETATM   28  C   UNL     1      39.887 -13.440  -0.023  1.00  0.00     0.002 C 
HETATM   29  C   UNL     1      40.354 -14.846   0.352  1.00  0.00     0.026 C 
ENDBRANCH  23  25
ENDBRANCH   3  23
TORSDOF 6
ENDMDL
MODEL 4
REMARK VINA RESULT:      -8.2      1.533      2.101
REMARK  6 active torsions:
REMARK  status: ('A' for Active; 'I' for Inactive)
REMARK    1  A    between atoms: O_2  and  C_3 
REMARK    2  A    between atoms: C_4  and  C_5 
REMARK    3  A    between atoms: C_5  and  N_6 
REMARK    4  A    between atoms: N_6  and  C_7 
REMARK    5  A    between atoms: C_9  and  N_10 
REMARK    6  A    between atoms: N_10  and  C_11 
ROOT
HETATM    1  C   UNL     1      41.728 -15.165   2.868  1.00  0.00     0.135 A 
HETATM    2  N   UNL     1      42.174 -14.514   3.957  1.00  0.00    -0.052 NA
HETATM    3  C   UNL     1      41.954 -13.191   4.045  1.00  0.00     0.702 A 
HETATM    4  N   UNL     1      41.329 -12.515   3.084  1.00  0.00    -0.189 N 
HETATM    5  H   UNL     1      41.174 -11.528   3.232  1.00  0.00     0.184 HD
HETATM    6  C   UNL     1      40.866 -13.118   1.983  1.00  0.00     0.062 A 
HETATM    7  C   UNL     1      41.035 -14.506   1.833  1.00  0.00     0.032 A 
HETATM    8  C   UNL     1      40.194 -12.361   1.008  1.00  0.00     0.031 A 
HETATM    9  C   UNL     1      39.667 -12.980  -0.123  1.00  0.00     0.002 A 
HETATM   10  C   UNL     1      39.793 -14.356  -0.278  1.00  0.00     0.001 A 
HETATM   11  C   UNL     1      40.458 -15.113   0.690  1.00  0.00     0.017 A 
ENDROOT
BRANCH   1  12
HETATM   12  N   UNL     1      41.928 -16.535   2.919  1.00  0.00    -0.272 NA
HETATM   13  H   UNL     1      41.817 -16.816   3.894  1.00  0.00     0.129 HD
BRANCH  12  14
HETATM   14  C   UNL     1      43.192 -17.083   2.408  1.00  0.00     0.135 C 
BRANCH  14  15
HETATM   15  C   UNL     1      43.507 -18.436   3.021  1.00  0.00    -0.012 A 
HETATM   16  C   UNL     1      43.865 -18.510   4.384  1.00  0.00     0.075 A 
HETATM   17  C   UNL     1      44.165 -19.751   4.958  1.00  0.00     0.037 A 
HETATM   18  C   UNL     1      44.098 -20.919   4.198  1.00  0.00     0.003 A 
HETATM   19  C   UNL     1      43.730 -20.860   2.859  1.00  0.00     0.001 A 
HETATM   20  C   UNL     1      43.433 -19.628   2.277  1.00  0.00     0.011 A 
BRANCH  16  21
HETATM   21  O   UNL     1      43.902 -17.313   5.055  1.00  0.00    -0.355 OA
HETATM   22  C   UNL     1      43.193 -17.242   6.289  1.00  0.00     0.210 C 
ENDBRANCH  16  21
ENDBRANCH  14  15
ENDBRANCH  12  14
ENDBRANCH   1  12
BRANCH   3  23
HETATM   23  N   UNL     1      42.325 -12.482   5.167  1.00  0.00    -0.220 N 
HETATM   24  H   UNL     1      41.862 -11.620   5.410  1.00  0.00     0.178 HD
BRANCH  23  25
HETATM   25  C   UNL     1      43.690 -12.604   5.670  1.00  0.00     0.099 C 
HETATM   26  C   UNL     1      44.547 -11.434   5.187  1.00  0.00     0.026 C 
HETATM   27  C   UNL     1      45.590 -11.286   6.280  1.00  0.00     0.002 C 
HETATM   28  C   UNL     1      44.785 -11.476   7.556  1.00  0.00     0.002 C 
HETATM   29  C   UNL     1      43.709 -12.502   7.203  1.00  0.00     0.026 C 
ENDBRANCH  23  25
ENDBRANCH   3  23
TORSDOF 6
ENDMDL
MODEL 5
REMARK VINA RESULT:      -8.1      2.682      7.117
REMARK  6 active torsions:
REMARK  status: ('A' for Active; 'I' for Inactive)
REMARK    1  A    between atoms: O_2  and  C_3 
REMARK    2  A    between atoms: C_4  and  C_5 
REMARK    3  A    between atoms: C_5  and  N_6 
REMARK    4  A    between atoms: N_6  and  C_7 
REMARK    5  A    between atoms: C_9  and  N_10 
REMARK    6  A    between atoms: N_10  and  C_11 
ROOT
HETATM    1  C   UNL     1      40.762 -15.385   4.053  1.00  0.00     0.135 A 
HETATM    2  N   UNL     1      40.031 -14.821   3.076  1.00  0.00    -0.052 NA
HETATM    3  C   UNL     1      40.326 -15.124   1.800  1.00  0.00     0.702 A 
HETATM    4  N   UNL     1      41.325 -15.945   1.484  1.00  0.00    -0.189 N 
HETATM    5  H   UNL     1      41.470 -16.149   0.506  1.00  0.00     0.184 HD
HETATM    6  C   UNL     1      42.080 -16.532   2.420  1.00  0.00     0.062 A 
HETATM    7  C   UNL     1      41.813 -16.283   3.778  1.00  0.00     0.032 A 
HETATM    8  C   UNL     1      43.108 -17.407   2.032  1.00  0.00     0.031 A 
HETATM    9  C   UNL     1      43.875 -18.060   2.995  1.00  0.00     0.002 A 
HETATM   10  C   UNL     1      43.608 -17.856   4.344  1.00  0.00     0.001 A 
HETATM   11  C   UNL     1      42.585 -16.989   4.734  1.00  0.00     0.017 A 
ENDROOT
BRANCH   1  12
HETATM   12  N   UNL     1      40.319 -15.075   5.329  1.00  0.00    -0.272 NA
HETATM   13  H   UNL     1      39.362 -15.423   5.403  1.00  0.00     0.129 HD
BRANCH  12  14
HETATM   14  C   UNL     1      40.350 -13.673   5.765  1.00  0.00     0.135 C 
BRANCH  14  15
HETATM   15  C   UNL     1      41.770 -13.141   5.846  1.00  0.00    -0.012 A 
HETATM   16  C   UNL     1      42.705 -13.792   6.679  1.00  0.00     0.075 A 
HETATM   17  C   UNL     1      44.015 -13.306   6.767  1.00  0.00     0.037 A 
HETATM   18  C   UNL     1      44.410 -12.192   6.026  1.00  0.00     0.003 A 
HETATM   19  C   UNL     1      43.502 -11.554   5.189  1.00  0.00     0.001 A 
HETATM   20  C   UNL     1      42.194 -12.028   5.097  1.00  0.00     0.011 A 
BRANCH  16  21
HETATM   21  O   UNL     1      42.231 -14.880   7.368  1.00  0.00    -0.355 OA
HETATM   22  C   UNL     1      43.183 -15.645   8.102  1.00  0.00     0.210 C 
ENDBRANCH  16  21
ENDBRANCH  14  15
ENDBRANCH  12  14
ENDBRANCH   1  12
BRANCH   3  23
HETATM   23  N   UNL     1      39.569 -14.632   0.759  1.00  0.00    -0.220 N 
HETATM   24  H   UNL     1      38.578 -14.819   0.707  1.00  0.00     0.178 HD
BRANCH  23  25
HETATM   25  C   UNL     1      40.207 -14.366  -0.526  1.00  0.00     0.099 C 
HETATM   26  C   UNL     1      39.197 -14.500  -1.666  1.00  0.00     0.026 C 
HETATM   27  C   UNL     1      39.733 -13.553  -2.725  1.00  0.00     0.002 C 
HETATM   28  C   UNL     1      40.175 -12.343  -1.917  1.00  0.00     0.002 C 
HETATM   29  C   UNL     1      40.691 -12.909  -0.594  1.00  0.00     0.026 C 
ENDBRANCH  23  25
ENDBRANCH   3  23
TORSDOF 6
ENDMDL
MODEL 6
REMARK VINA RESULT:      -8.0      2.887      7.446
REMARK  6 active torsions:
REMARK  status: ('A' for Active; 'I' for Inactive)
REMARK    1  A    between atoms: O_2  and  C_3 
REMARK    2  A    between atoms: C_4  and  C_5 
REMARK    3  A    between atoms: C_5  and  N_6 
REMARK    4  A    between atoms: N_6  and  C_7 
REMARK    5  A    between atoms: C_9  and  N_10 
REMARK    6  A    between atoms: N_10  and  C_11 
ROOT
HETATM    1  C   UNL     1      40.812 -15.224   4.216  1.00  0.00     0.135 A 
HETATM    2  N   UNL     1      40.094 -14.664   3.227  1.00  0.00    -0.052 NA
HETATM    3  C   UNL     1      40.359 -15.028   1.960  1.00  0.00     0.702 A 
HETATM    4  N   UNL     1      41.314 -15.906   1.664  1.00  0.00    -0.189 N 
HETATM    5  H   UNL     1      41.437 -16.153   0.694  1.00  0.00     0.184 HD
HETATM    6  C   UNL     1      42.054 -16.492   2.614  1.00  0.00     0.062 A 
HETATM    7  C   UNL     1      41.815 -16.181   3.965  1.00  0.00     0.032 A 
HETATM    8  C   UNL     1      43.035 -17.429   2.249  1.00  0.00     0.031 A 
HETATM    9  C   UNL     1      43.783 -18.081   3.227  1.00  0.00     0.002 A 
HETATM   10  C   UNL     1      43.543 -17.814   4.571  1.00  0.00     0.001 A 
HETATM   11  C   UNL     1      42.566 -16.886   4.938  1.00  0.00     0.017 A 
ENDROOT
BRANCH   1  12
HETATM   12  N   UNL     1      40.399 -14.846   5.484  1.00  0.00    -0.272 NA
HETATM   13  H   UNL     1      39.447 -15.195   5.603  1.00  0.00     0.129 HD
BRANCH  12  14
HETATM   14  C   UNL     1      40.432 -13.422   5.841  1.00  0.00     0.135 C 
BRANCH  14  15
HETATM   15  C   UNL     1      41.846 -12.871   5.828  1.00  0.00    -0.012 A 
HETATM   16  C   UNL     1      42.156 -11.781   4.988  1.00  0.00     0.075 A 
HETATM   17  C   UNL     1      43.458 -11.269   4.962  1.00  0.00     0.037 A 
HETATM   18  C   UNL     1      44.453 -11.819   5.773  1.00  0.00     0.003 A 
HETATM   19  C   UNL     1      44.155 -12.883   6.617  1.00  0.00     0.001 A 
HETATM   20  C   UNL     1      42.861 -13.401   6.647  1.00  0.00     0.011 A 
BRANCH  16  21
HETATM   21  O   UNL     1      41.117 -11.301   4.229  1.00  0.00    -0.355 OA
HETATM   22  C   UNL     1      41.324 -11.232   2.821  1.00  0.00     0.210 C 
ENDBRANCH  16  21
ENDBRANCH  14  15
ENDBRANCH  12  14
ENDBRANCH   1  12
BRANCH   3  23
HETATM   23  N   UNL     1      39.612 -14.541   0.910  1.00  0.00    -0.220 N 
HETATM   24  H   UNL     1      38.613 -14.678   0.879  1.00  0.00     0.178 HD
BRANCH  23  25
HETATM   25  C   UNL     1      40.243 -14.363  -0.393  1.00  0.00     0.099 C 
HETATM   26  C   UNL     1      39.259 -14.691  -1.517  1.00  0.00     0.026 C 
HETATM   27  C   UNL     1      39.735 -13.822  -2.667  1.00  0.00     0.002 C 
HETATM   28  C   UNL     1      40.075 -12.504  -1.989  1.00  0.00     0.002 C 
HETATM   29  C   UNL     1      40.617 -12.888  -0.613  1.00  0.00     0.026 C 
ENDBRANCH  23  25
ENDBRANCH   3  23
TORSDOF 6
ENDMDL
MODEL 7
REMARK VINA RESULT:      -8.0      2.721      5.915
REMARK  6 active torsions:
REMARK  status: ('A' for Active; 'I' for Inactive)
REMARK    1  A    between atoms: O_2  and  C_3 
REMARK    2  A    between atoms: C_4  and  C_5 
REMARK    3  A    between atoms: C_5  and  N_6 
REMARK    4  A    between atoms: N_6  and  C_7 
REMARK    5  A    between atoms: C_9  and  N_10 
REMARK    6  A    between atoms: N_10  and  C_11 
ROOT
HETATM    1  C   UNL     1      41.863 -15.988   2.799  1.00  0.00     0.135 A 
HETATM    2  N   UNL     1      41.621 -14.967   3.639  1.00  0.00    -0.052 NA
HETATM    3  C   UNL     1      42.144 -15.019   4.876  1.00  0.00     0.702 A 
HETATM    4  N   UNL     1      42.871 -16.054   5.291  1.00  0.00    -0.189 N 
HETATM    5  H   UNL     1      43.255 -16.011   6.223  1.00  0.00     0.184 HD
HETATM    6  C   UNL     1      43.141 -17.093   4.492  1.00  0.00     0.062 A 
HETATM    7  C   UNL     1      42.650 -17.095   3.174  1.00  0.00     0.032 A 
HETATM    8  C   UNL     1      43.932 -18.150   4.972  1.00  0.00     0.031 A 
HETATM    9  C   UNL     1      44.259 -19.218   4.139  1.00  0.00     0.002 A 
HETATM   10  C   UNL     1      43.813 -19.227   2.822  1.00  0.00     0.001 A 
HETATM   11  C   UNL     1      43.029 -18.177   2.340  1.00  0.00     0.017 A 
ENDROOT
BRANCH   1  12
HETATM   12  N   UNL     1      41.354 -15.792   1.525  1.00  0.00    -0.272 NA
HETATM   13  H   UNL     1      42.104 -15.385   0.965  1.00  0.00     0.129 HD
BRANCH  12  14
HETATM   14  C   UNL     1      40.145 -14.974   1.367  1.00  0.00     0.135 C 
BRANCH  14  15
HETATM   15  C   UNL     1      40.158 -14.197   0.063  1.00  0.00    -0.012 A 
HETATM   16  C   UNL     1      40.881 -12.988  -0.014  1.00  0.00     0.075 A 
HETATM   17  C   UNL     1      40.894 -12.259  -1.209  1.00  0.00     0.037 A 
HETATM   18  C   UNL     1      40.211 -12.726  -2.333  1.00  0.00     0.003 A 
HETATM   19  C   UNL     1      39.509 -13.925  -2.273  1.00  0.00     0.001 A 
HETATM   20  C   UNL     1      39.487 -14.656  -1.086  1.00  0.00     0.011 A 
BRANCH  16  21
HETATM   21  O   UNL     1      41.525 -12.606   1.136  1.00  0.00    -0.355 OA
HETATM   22  C   UNL     1      41.483 -11.222   1.472  1.00  0.00     0.210 C 
ENDBRANCH  16  21
ENDBRANCH  14  15
ENDBRANCH  12  14
ENDBRANCH   1  12
BRANCH   3  23
HETATM   23  N   UNL     1      41.989 -13.972   5.758  1.00  0.00    -0.220 N 
HETATM   24  H   UNL     1      41.087 -13.764   6.161  1.00  0.00     0.178 HD
BRANCH  23  25
HETATM   25  C   UNL     1      42.900 -12.834   5.684  1.00  0.00     0.099 C 
HETATM   26  C   UNL     1      42.193 -11.550   6.119  1.00  0.00     0.026 C 
HETATM   27  C   UNL     1      43.319 -10.698   6.675  1.00  0.00     0.002 C 
HETATM   28  C   UNL     1      44.154 -11.696   7.462  1.00  0.00     0.002 C 
HETATM   29  C   UNL     1      44.057 -13.006   6.681  1.00  0.00     0.026 C 
ENDBRANCH  23  25
ENDBRANCH   3  23
TORSDOF 6
ENDMDL
MODEL 8
REMARK VINA RESULT:      -7.7      3.153      6.555
REMARK  6 active torsions:
REMARK  status: ('A' for Active; 'I' for Inactive)
REMARK    1  A    between atoms: O_2  and  C_3 
REMARK    2  A    between atoms: C_4  and  C_5 
REMARK    3  A    between atoms: C_5  and  N_6 
REMARK    4  A    between atoms: N_6  and  C_7 
REMARK    5  A    between atoms: C_9  and  N_10 
REMARK    6  A    between atoms: N_10  and  C_11 
ROOT
HETATM    1  C   UNL     1      40.027 -14.262   2.910  1.00  0.00     0.135 A 
HETATM    2  N   UNL     1      40.653 -15.399   3.263  1.00  0.00    -0.052 NA
HETATM    3  C   UNL     1      41.234 -15.460   4.473  1.00  0.00     0.702 A 
HETATM    4  N   UNL     1      41.221 -14.428   5.314  1.00  0.00    -0.189 N 
HETATM    5  H   UNL     1      41.653 -14.556   6.217  1.00  0.00     0.184 HD
HETATM    6  C   UNL     1      40.610 -13.276   5.010  1.00  0.00     0.062 A 
HETATM    7  C   UNL     1      39.956 -13.149   3.771  1.00  0.00     0.032 A 
HETATM    8  C   UNL     1      40.607 -12.226   5.942  1.00  0.00     0.031 A 
HETATM    9  C   UNL     1      39.938 -11.037   5.659  1.00  0.00     0.002 A 
HETATM   10  C   UNL     1      39.256 -10.899   4.455  1.00  0.00     0.001 A 
HETATM   11  C   UNL     1      39.254 -11.942   3.526  1.00  0.00     0.017 A 
ENDROOT
BRANCH   1  12
HETATM   12  N   UNL     1      39.387 -14.338   1.683  1.00  0.00    -0.272 NA
HETATM   13  H   UNL     1      38.501 -14.818   1.839  1.00  0.00     0.129 HD
BRANCH  12  14
HETATM   14  C   UNL     1      40.086 -14.981   0.562  1.00  0.00     0.135 C 
BRANCH  14  15
HETATM   15  C   UNL     1      39.863 -14.236  -0.741  1.00  0.00    -0.012 A 
HETATM   16  C   UNL     1      40.440 -12.960  -0.915  1.00  0.00     0.075 A 
HETATM   17  C   UNL     1      40.235 -12.260  -2.110  1.00  0.00     0.037 A 
HETATM   18  C   UNL     1      39.478 -12.820  -3.140  1.00  0.00     0.003 A 
HETATM   19  C   UNL     1      38.919 -14.084  -2.986  1.00  0.00     0.001 A 
HETATM   20  C   UNL     1      39.115 -14.787  -1.798  1.00  0.00     0.011 A 
BRANCH  16  21
HETATM   21  O   UNL     1      41.171 -12.488   0.146  1.00  0.00    -0.355 OA
HETATM   22  C   UNL     1      41.113 -11.087   0.400  1.00  0.00     0.210 C 
ENDBRANCH  16  21
ENDBRANCH  14  15
ENDBRANCH  12  14
ENDBRANCH   1  12
BRANCH   3  23
HETATM   23  N   UNL     1      41.830 -16.619   4.918  1.00  0.00    -0.220 N 
HETATM   24  H   UNL     1      41.609 -16.999   5.827  1.00  0.00     0.178 HD
BRANCH  23  25
HETATM   25  C   UNL     1      43.147 -16.987   4.407  1.00  0.00     0.099 C 
HETATM   26  C   UNL     1      43.753 -18.113   5.246  1.00  0.00     0.026 C 
HETATM   27  C   UNL     1      44.654 -18.839   4.264  1.00  0.00     0.002 C 
HETATM   28  C   UNL     1      43.821 -18.877   2.992  1.00  0.00     0.002 C 
HETATM   29  C   UNL     1      43.031 -17.569   2.989  1.00  0.00     0.026 C 
ENDBRANCH  23  25
ENDBRANCH   3  23
TORSDOF 6
ENDMDL
MODEL 9
REMARK VINA RESULT:      -7.5      3.264      6.974
REMARK  6 active torsions:
REMARK  status: ('A' for Active; 'I' for Inactive)
REMARK    1  A    between atoms: O_2  and  C_3 
REMARK    2  A    between atoms: C_4  and  C_5 
REMARK    3  A    between atoms: C_5  and  N_6 
REMARK    4  A    between atoms: N_6  and  C_7 
REMARK    5  A    between atoms: C_9  and  N_10 
REMARK    6  A    between atoms: N_10  and  C_11 
ROOT
HETATM    1  C   UNL     1      40.630 -14.221   3.079  1.00  0.00     0.135 A 
HETATM    2  N   UNL     1      40.462 -13.220   2.198  1.00  0.00    -0.052 NA
HETATM    3  C   UNL     1      41.186 -13.238   1.065  1.00  0.00     0.702 A 
HETATM    4  N   UNL     1      42.068 -14.201   0.807  1.00  0.00    -0.189 N 
HETATM    5  H   UNL     1      42.554 -14.164  -0.076  1.00  0.00     0.184 HD
HETATM    6  C   UNL     1      42.269 -15.219   1.652  1.00  0.00     0.062 A 
HETATM    7  C   UNL     1      41.527 -15.282   2.845  1.00  0.00     0.032 A 
HETATM    8  C   UNL     1      43.195 -16.222   1.321  1.00  0.00     0.031 A 
HETATM    9  C   UNL     1      43.384 -17.311   2.169  1.00  0.00     0.002 A 
HETATM   10  C   UNL     1      42.639 -17.413   3.339  1.00  0.00     0.001 A 
HETATM   11  C   UNL     1      41.715 -16.420   3.670  1.00  0.00     0.017 A 
ENDROOT
BRANCH   1  12
HETATM   12  N   UNL     1      39.773 -14.153   4.167  1.00  0.00    -0.272 NA
HETATM   13  H   UNL     1      38.886 -13.784   3.823  1.00  0.00     0.129 HD
BRANCH  12  14
HETATM   14  C   UNL     1      40.187 -13.376   5.343  1.00  0.00     0.135 C 
BRANCH  14  15
HETATM   15  C   UNL     1      41.351 -14.030   6.067  1.00  0.00    -0.012 A 
HETATM   16  C   UNL     1      42.615 -13.404   6.049  1.00  0.00     0.075 A 
HETATM   17  C   UNL     1      43.697 -14.001   6.707  1.00  0.00     0.037 A 
HETATM   18  C   UNL     1      43.533 -15.204   7.394  1.00  0.00     0.003 A 
HETATM   19  C   UNL     1      42.288 -15.821   7.432  1.00  0.00     0.001 A 
HETATM   20  C   UNL     1      41.206 -15.236   6.777  1.00  0.00     0.011 A 
BRANCH  16  21
HETATM   21  O   UNL     1      42.684 -12.223   5.354  1.00  0.00    -0.355 OA
HETATM   22  C   UNL     1      43.842 -11.419   5.558  1.00  0.00     0.210 C 
ENDBRANCH  16  21
ENDBRANCH  14  15
ENDBRANCH  12  14
ENDBRANCH   1  12
BRANCH   3  23
HETATM   23  N   UNL     1      41.009 -12.278   0.093  1.00  0.00    -0.220 N 
HETATM   24  H   UNL     1      40.858 -11.311   0.342  1.00  0.00     0.178 HD
BRANCH  23  25
HETATM   25  C   UNL     1      40.462 -12.665  -1.203  1.00  0.00     0.099 C 
HETATM   26  C   UNL     1      38.936 -12.569  -1.193  1.00  0.00     0.026 C 
HETATM   27  C   UNL     1      38.592 -12.279  -2.643  1.00  0.00     0.002 C 
HETATM   28  C   UNL     1      39.655 -11.274  -3.058  1.00  0.00     0.002 C 
HETATM   29  C   UNL     1      40.914 -11.681  -2.294  1.00  0.00     0.026 C 
ENDBRANCH  23  25
ENDBRANCH   3  23
TORSDOF 6
ENDMDL
MODEL 10
REMARK VINA RESULT:      -7.4      2.428      7.108
REMARK  6 active torsions:
REMARK  status: ('A' for Active; 'I' for Inactive)
REMARK    1  A    between atoms: O_2  and  C_3 
REMARK    2  A    between atoms: C_4  and  C_5 
REMARK    3  A    between atoms: C_5  and  N_6 
REMARK    4  A    between atoms: N_6  and  C_7 
REMARK    5  A    between atoms: C_9  and  N_10 
REMARK    6  A    between atoms: N_10  and  C_11 
ROOT
HETATM    1  C   UNL     1      40.804 -15.506   4.315  1.00  0.00     0.135 A 
HETATM    2  N   UNL     1      40.217 -15.233   3.137  1.00  0.00    -0.052 NA
HETATM    3  C   UNL     1      40.710 -15.811   2.028  1.00  0.00     0.702 A 
HETATM    4  N   UNL     1      41.764 -16.624   2.066  1.00  0.00    -0.189 N 
HETATM    5  H   UNL     1      42.060 -17.044   1.198  1.00  0.00     0.184 HD
HETATM    6  C   UNL     1      42.381 -16.927   3.214  1.00  0.00     0.062 A 
HETATM    7  C   UNL     1      41.904 -16.381   4.419  1.00  0.00     0.032 A 
HETATM    8  C   UNL     1      43.475 -17.808   3.201  1.00  0.00     0.031 A 
HETATM    9  C   UNL     1      44.101 -18.169   4.393  1.00  0.00     0.002 A 
HETATM   10  C   UNL     1      43.627 -17.667   5.600  1.00  0.00     0.001 A 
HETATM   11  C   UNL     1      42.537 -16.794   5.618  1.00  0.00     0.017 A 
ENDROOT
BRANCH   1  12
HETATM   12  N   UNL     1      40.164 -14.929   5.401  1.00  0.00    -0.272 NA
HETATM   13  H   UNL     1      39.236 -14.649   5.085  1.00  0.00     0.129 HD
BRANCH  12  14
HETATM   14  C   UNL     1      40.802 -13.789   6.072  1.00  0.00     0.135 C 
BRANCH  14  15
HETATM   15  C   UNL     1      41.297 -12.755   5.075  1.00  0.00    -0.012 A 
HETATM   16  C   UNL     1      42.685 -12.578   4.896  1.00  0.00     0.075 A 
HETATM   17  C   UNL     1      43.153 -11.624   3.985  1.00  0.00     0.037 A 
HETATM   18  C   UNL     1      42.257 -10.855   3.240  1.00  0.00     0.003 A 
HETATM   19  C   UNL     1      40.887 -11.034   3.396  1.00  0.00     0.001 A 
HETATM   20  C   UNL     1      40.412 -11.979   4.304  1.00  0.00     0.011 A 
BRANCH  16  21
HETATM   21  O   UNL     1      43.492 -13.378   5.666  1.00  0.00    -0.355 OA
HETATM   22  C   UNL     1      44.288 -12.731   6.655  1.00  0.00     0.210 C 
ENDBRANCH  16  21
ENDBRANCH  14  15
ENDBRANCH  12  14
ENDBRANCH   1  12
BRANCH   3  23
HETATM   23  N   UNL     1      40.109 -15.625   0.802  1.00  0.00    -0.220 N 
HETATM   24  H   UNL     1      40.219 -16.305   0.065  1.00  0.00     0.178 HD
BRANCH  23  25
HETATM   25  C   UNL     1      39.824 -14.269   0.345  1.00  0.00     0.099 C 
HETATM   26  C   UNL     1      41.066 -13.386   0.476  1.00  0.00     0.026 C 
HETATM   27  C   UNL     1      40.881 -12.353  -0.622  1.00  0.00     0.002 C 
HETATM   28  C   UNL     1      40.358 -13.176  -1.788  1.00  0.00     0.002 C 
HETATM   29  C   UNL     1      39.493 -14.266  -1.156  1.00  0.00     0.026 C 
ENDBRANCH  23  25
ENDBRANCH   3  23
TORSDOF 6
ENDMDL
