MODEL 1
REMARK VINA RESULT:      -8.0      0.000      0.000
REMARK  4 active torsions:
REMARK  status: ('A' for Active; 'I' for Inactive)
REMARK    1  A    between atoms: N_4  and  C_5 
REMARK    2  A    between atoms: C_13  and  C_14 
REMARK    3  A    between atoms: N_15  and  C_17 
REMARK    4  A    between atoms: C_17  and  C_18 
ROOT
HETATM    1  C   UNL     1      43.183 -15.736   8.365  1.00  0.00     0.095 C 
HETATM    2  C   UNL     1      42.705 -15.316   7.031  1.00  0.00     0.144 A 
HETATM    3  N   UNL     1      42.789 -14.059   6.587  1.00  0.00    -0.156 NA
HETATM    4  N   UNL     1      42.334 -14.160   5.325  1.00  0.00    -0.247 N 
HETATM    5  C   UNL     1      41.938 -15.447   5.062  1.00  0.00     0.156 A 
HETATM    6  N   UNL     1      42.141 -16.185   6.139  1.00  0.00    -0.215 NA
ENDROOT
BRANCH   5   7
HETATM    7  C   UNL     1      41.406 -16.003   3.771  1.00  0.00     0.259 C 
HETATM    8  N   UNL     1      42.446 -15.815   2.661  1.00  0.00    -0.056 N 
HETATM    9  H   UNL     1      42.711 -14.823   2.767  1.00  0.00     0.281 HD
HETATM   10  C   UNL     1      41.961 -15.964   1.245  1.00  0.00     0.236 C 
HETATM   11  C   UNL     1      40.733 -15.108   1.005  1.00  0.00     0.028 C 
HETATM   12  C   UNL     1      39.639 -15.463   1.994  1.00  0.00     0.004 C 
HETATM   13  C   UNL     1      40.123 -15.225   3.416  1.00  0.00     0.041 C 
BRANCH   8  14
HETATM   14  C   UNL     1      43.768 -16.545   2.893  1.00  0.00     0.274 C 
BRANCH  14  15
HETATM   15  C   UNL     1      43.719 -18.040   3.117  1.00  0.00    -0.033 A 
HETATM   16  C   UNL     1      43.321 -18.945   2.123  1.00  0.00     0.009 A 
HETATM   17  C   UNL     1      43.331 -20.324   2.358  1.00  0.00     0.001 A 
HETATM   18  C   UNL     1      43.770 -20.821   3.579  1.00  0.00     0.000 A 
HETATM   19  C   UNL     1      44.202 -19.943   4.568  1.00  0.00     0.001 A 
HETATM   20  C   UNL     1      44.174 -18.564   4.341  1.00  0.00     0.009 A 
ENDBRANCH  14  15
ENDBRANCH   8  14
ENDBRANCH   5   7
BRANCH   4  21
HETATM   21  C   UNL     1      42.312 -12.963   4.490  1.00  0.00     0.115 C 
HETATM   22  C   UNL     1      43.590 -12.116   4.610  1.00  0.00     0.055 C 
HETATM   23  C   UNL     1      43.674 -11.278   5.884  1.00  0.00     0.236 C 
HETATM   24  N   UNL     1      42.412 -10.470   6.067  1.00  0.00    -0.075 N 
HETATM   25  H   UNL     1      42.348  -9.794   5.293  1.00  0.00     0.279 HD
HETATM   26  C   UNL     1      42.490  -9.632   7.326  1.00  0.00     0.269 C 
HETATM   27  C   UNL     1      41.165 -11.314   6.068  1.00  0.00     0.236 C 
HETATM   28  C   UNL     1      41.075 -12.101   4.767  1.00  0.00     0.055 C 
ENDBRANCH   4  21
TORSDOF 4
ENDMDL
MODEL 2
REMARK VINA RESULT:      -7.9      2.367      4.066
REMARK  4 active torsions:
REMARK  status: ('A' for Active; 'I' for Inactive)
REMARK    1  A    between atoms: N_4  and  C_5 
REMARK    2  A    between atoms: C_13  and  C_14 
REMARK    3  A    between atoms: N_15  and  C_17 
REMARK    4  A    between atoms: C_17  and  C_18 
ROOT
HETATM    1  C   UNL     1      39.808 -14.886  -0.404  1.00  0.00     0.095 C 
HETATM    2  C   UNL     1      40.497 -14.250   0.739  1.00  0.00     0.144 A 
HETATM    3  N   UNL     1      41.050 -13.035   0.674  1.00  0.00    -0.156 NA
HETATM    4  N   UNL     1      41.466 -12.831   1.937  1.00  0.00    -0.247 N 
HETATM    5  C   UNL     1      41.209 -13.936   2.708  1.00  0.00     0.156 A 
HETATM    6  N   UNL     1      40.621 -14.853   1.959  1.00  0.00    -0.215 NA
ENDROOT
BRANCH   5   7
HETATM    7  C   UNL     1      41.475 -14.119   4.176  1.00  0.00     0.259 C 
HETATM    8  N   UNL     1      41.880 -15.573   4.448  1.00  0.00    -0.056 N 
HETATM    9  H   UNL     1      41.151 -16.107   3.949  1.00  0.00     0.281 HD
HETATM   10  C   UNL     1      41.823 -16.035   5.879  1.00  0.00     0.236 C 
HETATM   11  C   UNL     1      40.477 -15.710   6.495  1.00  0.00     0.028 C 
HETATM   12  C   UNL     1      40.195 -14.222   6.394  1.00  0.00     0.004 C 
HETATM   13  C   UNL     1      40.173 -13.794   4.936  1.00  0.00     0.041 C 
BRANCH   8  14
HETATM   14  C   UNL     1      43.164 -16.020   3.753  1.00  0.00     0.274 C 
BRANCH  14  15
HETATM   15  C   UNL     1      43.342 -17.497   3.482  1.00  0.00    -0.033 A 
HETATM   16  C   UNL     1      42.915 -18.110   2.295  1.00  0.00     0.009 A 
HETATM   17  C   UNL     1      43.137 -19.471   2.066  1.00  0.00     0.001 A 
HETATM   18  C   UNL     1      43.819 -20.236   3.005  1.00  0.00     0.000 A 
HETATM   19  C   UNL     1      44.282 -19.642   4.175  1.00  0.00     0.001 A 
HETATM   20  C   UNL     1      44.044 -18.285   4.413  1.00  0.00     0.009 A 
ENDBRANCH  14  15
ENDBRANCH   8  14
ENDBRANCH   5   7
BRANCH   4  21
HETATM   21  C   UNL     1      42.104 -11.561   2.268  1.00  0.00     0.115 C 
HETATM   22  C   UNL     1      41.736 -11.044   3.669  1.00  0.00     0.055 C 
HETATM   23  C   UNL     1      40.345 -10.419   3.765  1.00  0.00     0.236 C 
HETATM   24  N   UNL     1      40.160  -9.380   2.685  1.00  0.00    -0.075 N 
HETATM   25  H   UNL     1      40.823  -8.612   2.861  1.00  0.00     0.279 HD
HETATM   26  C   UNL     1      38.785  -8.753   2.777  1.00  0.00     0.269 C 
HETATM   27  C   UNL     1      40.406  -9.918   1.300  1.00  0.00     0.236 C 
HETATM   28  C   UNL     1      41.816 -10.488   1.212  1.00  0.00     0.055 C 
ENDBRANCH   4  21
TORSDOF 4
ENDMDL
MODEL 3
REMARK VINA RESULT:      -7.9      1.788      6.160
REMARK  4 active torsions:
REMARK  status: ('A' for Active; 'I' for Inactive)
REMARK    1  A    between atoms: N_4  and  C_5 
REMARK    2  A    between atoms: C_13  and  C_14 
REMARK    3  A    between atoms: N_15  and  C_17 
REMARK    4  A    between atoms: C_17  and  C_18 
ROOT
HETATM    1  C   UNL     1      39.842 -16.272   6.597  1.00  0.00     0.095 C 
HETATM    2  C   UNL     1      40.752 -16.113   5.443  1.00  0.00     0.144 A 
HETATM    3  N   UNL     1      42.008 -16.569   5.434  1.00  0.00    -0.156 NA
HETATM    4  N   UNL     1      42.415 -16.294   4.182  1.00  0.00    -0.247 N 
HETATM    5  C   UNL     1      41.427 -15.635   3.493  1.00  0.00     0.156 A 
HETATM    6  N   UNL     1      40.379 -15.489   4.285  1.00  0.00    -0.215 NA
ENDROOT
BRANCH   5   7
HETATM    7  C   UNL     1      41.448 -15.178   2.062  1.00  0.00     0.259 C 
HETATM    8  N   UNL     1      41.555 -13.649   2.011  1.00  0.00    -0.056 N 
HETATM    9  H   UNL     1      40.823 -13.351   2.675  1.00  0.00     0.281 HD
HETATM   10  C   UNL     1      41.219 -12.990   0.702  1.00  0.00     0.236 C 
HETATM   11  C   UNL     1      39.875 -13.468   0.189  1.00  0.00     0.028 C 
HETATM   12  C   UNL     1      39.869 -14.980   0.052  1.00  0.00     0.004 C 
HETATM   13  C   UNL     1      40.128 -15.626   1.404  1.00  0.00     0.041 C 
BRANCH   8  14
HETATM   14  C   UNL     1      42.828 -13.076   2.630  1.00  0.00     0.274 C 
BRANCH  14  15
HETATM   15  C   UNL     1      42.701 -12.316   3.931  1.00  0.00    -0.033 A 
HETATM   16  C   UNL     1      43.802 -11.762   4.600  1.00  0.00     0.009 A 
HETATM   17  C   UNL     1      43.635 -11.029   5.779  1.00  0.00     0.001 A 
HETATM   18  C   UNL     1      42.361 -10.810   6.291  1.00  0.00     0.000 A 
HETATM   19  C   UNL     1      41.252 -11.321   5.626  1.00  0.00     0.001 A 
HETATM   20  C   UNL     1      41.419 -12.070   4.457  1.00  0.00     0.009 A 
ENDBRANCH  14  15
ENDBRANCH   8  14
ENDBRANCH   5   7
BRANCH   4  21
HETATM   21  C   UNL     1      43.760 -16.690   3.780  1.00  0.00     0.115 C 
HETATM   22  C   UNL     1      43.788 -17.503   2.474  1.00  0.00     0.055 C 
HETATM   23  C   UNL     1      43.360 -18.960   2.630  1.00  0.00     0.236 C 
HETATM   24  N   UNL     1      44.129 -19.618   3.751  1.00  0.00    -0.075 N 
HETATM   25  H   UNL     1      45.123 -19.647   3.485  1.00  0.00     0.279 HD
HETATM   26  C   UNL     1      43.713 -21.065   3.908  1.00  0.00     0.269 C 
HETATM   27  C   UNL     1      44.005 -18.885   5.061  1.00  0.00     0.236 C 
HETATM   28  C   UNL     1      44.487 -17.449   4.895  1.00  0.00     0.055 C 
ENDBRANCH   4  21
TORSDOF 4
ENDMDL
MODEL 4
REMARK VINA RESULT:      -7.6      3.695      6.910
REMARK  4 active torsions:
REMARK  status: ('A' for Active; 'I' for Inactive)
REMARK    1  A    between atoms: N_4  and  C_5 
REMARK    2  A    between atoms: C_13  and  C_14 
REMARK    3  A    between atoms: N_15  and  C_17 
REMARK    4  A    between atoms: C_17  and  C_18 
ROOT
HETATM    1  C   UNL     1      36.486 -10.452   0.746  1.00  0.00     0.095 C 
HETATM    2  C   UNL     1      37.828 -11.070   0.760  1.00  0.00     0.144 A 
HETATM    3  N   UNL     1      38.391 -11.621  -0.320  1.00  0.00    -0.156 NA
HETATM    4  N   UNL     1      39.614 -11.960   0.123  1.00  0.00    -0.247 N 
HETATM    5  C   UNL     1      39.739 -11.661   1.457  1.00  0.00     0.156 A 
HETATM    6  N   UNL     1      38.609 -11.123   1.882  1.00  0.00    -0.215 NA
ENDROOT
BRANCH   5   7
HETATM    7  C   UNL     1      40.946 -11.841   2.335  1.00  0.00     0.259 C 
HETATM    8  N   UNL     1      40.629 -12.847   3.447  1.00  0.00    -0.056 N 
HETATM    9  H   UNL     1      39.727 -12.501   3.813  1.00  0.00     0.281 HD
HETATM   10  C   UNL     1      41.567 -12.876   4.622  1.00  0.00     0.236 C 
HETATM   11  C   UNL     1      41.773 -11.481   5.179  1.00  0.00     0.028 C 
HETATM   12  C   UNL     1      42.288 -10.550   4.096  1.00  0.00     0.004 C 
HETATM   13  C   UNL     1      41.284 -10.471   2.956  1.00  0.00     0.041 C 
BRANCH   8  14
HETATM   14  C   UNL     1      40.280 -14.252   2.959  1.00  0.00     0.274 C 
BRANCH  14  15
HETATM   15  C   UNL     1      41.407 -15.251   2.822  1.00  0.00    -0.033 A 
HETATM   16  C   UNL     1      41.512 -16.394   3.628  1.00  0.00     0.009 A 
HETATM   17  C   UNL     1      42.546 -17.316   3.440  1.00  0.00     0.001 A 
HETATM   18  C   UNL     1      43.474 -17.127   2.422  1.00  0.00     0.000 A 
HETATM   19  C   UNL     1      43.369 -16.019   1.588  1.00  0.00     0.001 A 
HETATM   20  C   UNL     1      42.346 -15.087   1.788  1.00  0.00     0.009 A 
ENDBRANCH  14  15
ENDBRANCH   8  14
ENDBRANCH   5   7
BRANCH   4  21
HETATM   21  C   UNL     1      40.553 -12.572  -0.811  1.00  0.00     0.115 C 
HETATM   22  C   UNL     1      40.407 -12.046  -2.249  1.00  0.00     0.055 C 
HETATM   23  C   UNL     1      39.212 -12.616  -3.010  1.00  0.00     0.236 C 
HETATM   24  N   UNL     1      39.208 -14.124  -2.930  1.00  0.00    -0.075 N 
HETATM   25  H   UNL     1      40.042 -14.475  -3.420  1.00  0.00     0.279 HD
HETATM   26  C   UNL     1      38.028 -14.696  -3.687  1.00  0.00     0.269 C 
HETATM   27  C   UNL     1      39.231 -14.640  -1.516  1.00  0.00     0.236 C 
HETATM   28  C   UNL     1      40.459 -14.102  -0.791  1.00  0.00     0.055 C 
ENDBRANCH   4  21
TORSDOF 4
ENDMDL
MODEL 5
REMARK VINA RESULT:      -7.6      1.875      5.421
REMARK  4 active torsions:
REMARK  status: ('A' for Active; 'I' for Inactive)
REMARK    1  A    between atoms: N_4  and  C_5 
REMARK    2  A    between atoms: C_13  and  C_14 
REMARK    3  A    between atoms: N_15  and  C_17 
REMARK    4  A    between atoms: C_17  and  C_18 
ROOT
HETATM    1  C   UNL     1      45.452 -11.582   6.748  1.00  0.00     0.095 C 
HETATM    2  C   UNL     1      44.193 -12.297   6.451  1.00  0.00     0.144 A 
HETATM    3  N   UNL     1      43.924 -13.524   6.908  1.00  0.00    -0.156 NA
HETATM    4  N   UNL     1      42.665 -13.729   6.480  1.00  0.00    -0.247 N 
HETATM    5  C   UNL     1      42.233 -12.660   5.737  1.00  0.00     0.156 A 
HETATM    6  N   UNL     1      43.197 -11.757   5.686  1.00  0.00    -0.215 NA
ENDROOT
BRANCH   5   7
HETATM    7  C   UNL     1      40.884 -12.460   5.105  1.00  0.00     0.259 C 
HETATM    8  N   UNL     1      41.046 -11.736   3.764  1.00  0.00    -0.056 N 
HETATM    9  H   UNL     1      41.663 -10.945   4.009  1.00  0.00     0.281 HD
HETATM   10  C   UNL     1      39.806 -11.124   3.171  1.00  0.00     0.236 C 
HETATM   11  C   UNL     1      39.097 -10.253   4.189  1.00  0.00     0.028 C 
HETATM   12  C   UNL     1      38.763 -11.057   5.432  1.00  0.00     0.004 C 
HETATM   13  C   UNL     1      40.038 -11.596   6.062  1.00  0.00     0.041 C 
BRANCH   8  14
HETATM   14  C   UNL     1      41.864 -12.495   2.722  1.00  0.00     0.274 C 
BRANCH  14  15
HETATM   15  C   UNL     1      41.115 -13.323   1.703  1.00  0.00    -0.033 A 
HETATM   16  C   UNL     1      40.948 -12.922   0.369  1.00  0.00     0.009 A 
HETATM   17  C   UNL     1      40.285 -13.739  -0.552  1.00  0.00     0.001 A 
HETATM   18  C   UNL     1      39.807 -14.984  -0.164  1.00  0.00     0.000 A 
HETATM   19  C   UNL     1      39.991 -15.418   1.145  1.00  0.00     0.001 A 
HETATM   20  C   UNL     1      40.637 -14.594   2.072  1.00  0.00     0.009 A 
ENDBRANCH  14  15
ENDBRANCH   8  14
ENDBRANCH   5   7
BRANCH   4  21
HETATM   21  C   UNL     1      42.003 -14.982   6.829  1.00  0.00     0.115 C 
HETATM   22  C   UNL     1      42.905 -15.946   7.618  1.00  0.00     0.055 C 
HETATM   23  C   UNL     1      43.940 -16.680   6.767  1.00  0.00     0.236 C 
HETATM   24  N   UNL     1      43.276 -17.333   5.579  1.00  0.00    -0.075 N 
HETATM   25  H   UNL     1      42.636 -18.061   5.927  1.00  0.00     0.279 HD
HETATM   26  C   UNL     1      44.295 -18.067   4.733  1.00  0.00     0.269 C 
HETATM   27  C   UNL     1      42.487 -16.365   4.737  1.00  0.00     0.236 C 
HETATM   28  C   UNL     1      41.427 -15.683   5.593  1.00  0.00     0.055 C 
ENDBRANCH   4  21
TORSDOF 4
ENDMDL
MODEL 6
REMARK VINA RESULT:      -7.5     14.958     16.292
REMARK  4 active torsions:
REMARK  status: ('A' for Active; 'I' for Inactive)
REMARK    1  A    between atoms: N_4  and  C_5 
REMARK    2  A    between atoms: C_13  and  C_14 
REMARK    3  A    between atoms: N_15  and  C_17 
REMARK    4  A    between atoms: C_17  and  C_18 
ROOT
HETATM    1  C   UNL     1      50.742 -31.112  -0.556  1.00  0.00     0.095 C 
HETATM    2  C   UNL     1      49.491 -30.440  -0.147  1.00  0.00     0.144 A 
HETATM    3  N   UNL     1      49.321 -29.881   1.055  1.00  0.00    -0.156 NA
HETATM    4  N   UNL     1      48.103 -29.320   0.952  1.00  0.00    -0.247 N 
HETATM    5  C   UNL     1      47.551 -29.600  -0.273  1.00  0.00     0.156 A 
HETATM    6  N   UNL     1      48.405 -30.330  -0.970  1.00  0.00    -0.215 NA
ENDROOT
BRANCH   5   7
HETATM    7  C   UNL     1      46.227 -29.140  -0.816  1.00  0.00     0.259 C 
HETATM    8  N   UNL     1      45.431 -30.348  -1.324  1.00  0.00    -0.056 N 
HETATM    9  H   UNL     1      46.124 -30.844  -1.907  1.00  0.00     0.281 HD
HETATM   10  C   UNL     1      44.263 -30.058  -2.227  1.00  0.00     0.236 C 
HETATM   11  C   UNL     1      44.678 -29.149  -3.367  1.00  0.00     0.028 C 
HETATM   12  C   UNL     1      45.278 -27.863  -2.826  1.00  0.00     0.004 C 
HETATM   13  C   UNL     1      46.506 -28.175  -1.985  1.00  0.00     0.041 C 
BRANCH   8  14
HETATM   14  C   UNL     1      45.084 -31.381  -0.254  1.00  0.00     0.274 C 
BRANCH  14  15
HETATM   15  C   UNL     1      43.775 -31.220   0.485  1.00  0.00    -0.033 A 
HETATM   16  C   UNL     1      43.322 -29.984   0.969  1.00  0.00     0.009 A 
HETATM   17  C   UNL     1      42.084 -29.871   1.610  1.00  0.00     0.001 A 
HETATM   18  C   UNL     1      41.265 -30.985   1.749  1.00  0.00     0.000 A 
HETATM   19  C   UNL     1      41.679 -32.215   1.246  1.00  0.00     0.001 A 
HETATM   20  C   UNL     1      42.924 -32.332   0.622  1.00  0.00     0.009 A 
ENDBRANCH  14  15
ENDBRANCH   8  14
ENDBRANCH   5   7
BRANCH   4  21
HETATM   21  C   UNL     1      47.578 -28.570   2.088  1.00  0.00     0.115 C 
HETATM   22  C   UNL     1      48.554 -28.507   3.276  1.00  0.00     0.055 C 
HETATM   23  C   UNL     1      48.625 -29.790   4.101  1.00  0.00     0.236 C 
HETATM   24  N   UNL     1      47.239 -30.237   4.500  1.00  0.00    -0.075 N 
HETATM   25  H   UNL     1      46.839 -29.525   5.127  1.00  0.00     0.279 HD
HETATM   26  C   UNL     1      47.303 -31.506   5.324  1.00  0.00     0.269 C 
HETATM   27  C   UNL     1      46.315 -30.413   3.324  1.00  0.00     0.236 C 
HETATM   28  C   UNL     1      46.217 -29.108   2.545  1.00  0.00     0.055 C 
ENDBRANCH   4  21
TORSDOF 4
ENDMDL
MODEL 7
REMARK VINA RESULT:      -7.5      3.309      5.214
REMARK  4 active torsions:
REMARK  status: ('A' for Active; 'I' for Inactive)
REMARK    1  A    between atoms: N_4  and  C_5 
REMARK    2  A    between atoms: C_13  and  C_14 
REMARK    3  A    between atoms: N_15  and  C_17 
REMARK    4  A    between atoms: C_17  and  C_18 
ROOT
HETATM    1  C   UNL     1      39.464 -15.271  -0.775  1.00  0.00     0.095 C 
HETATM    2  C   UNL     1      40.060 -14.278   0.143  1.00  0.00     0.144 A 
HETATM    3  N   UNL     1      40.449 -13.061  -0.249  1.00  0.00    -0.156 NA
HETATM    4  N   UNL     1      40.830 -12.486   0.905  1.00  0.00    -0.247 N 
HETATM    5  C   UNL     1      40.716 -13.376   1.943  1.00  0.00     0.156 A 
HETATM    6  N   UNL     1      40.256 -14.523   1.473  1.00  0.00    -0.215 NA
ENDROOT
BRANCH   5   7
HETATM    7  C   UNL     1      40.998 -13.137   3.400  1.00  0.00     0.259 C 
HETATM    8  N   UNL     1      41.612 -14.398   4.019  1.00  0.00    -0.056 N 
HETATM    9  H   UNL     1      40.972 -15.141   3.696  1.00  0.00     0.281 HD
HETATM   10  C   UNL     1      41.616 -14.482   5.521  1.00  0.00     0.236 C 
HETATM   11  C   UNL     1      40.233 -14.206   6.078  1.00  0.00     0.028 C 
HETATM   12  C   UNL     1      39.735 -12.851   5.611  1.00  0.00     0.004 C 
HETATM   13  C   UNL     1      39.659 -12.818   4.093  1.00  0.00     0.041 C 
BRANCH   8  14
HETATM   14  C   UNL     1      42.951 -14.819   3.419  1.00  0.00     0.274 C 
BRANCH  14  15
HETATM   15  C   UNL     1      43.291 -16.293   3.417  1.00  0.00    -0.033 A 
HETATM   16  C   UNL     1      43.923 -16.930   4.495  1.00  0.00     0.009 A 
HETATM   17  C   UNL     1      44.180 -18.304   4.469  1.00  0.00     0.001 A 
HETATM   18  C   UNL     1      43.782 -19.070   3.380  1.00  0.00     0.000 A 
HETATM   19  C   UNL     1      43.124 -18.465   2.314  1.00  0.00     0.001 A 
HETATM   20  C   UNL     1      42.882 -17.088   2.330  1.00  0.00     0.009 A 
ENDBRANCH  14  15
ENDBRANCH   8  14
ENDBRANCH   5   7
BRANCH   4  21
HETATM   21  C   UNL     1      41.295 -11.103   0.878  1.00  0.00     0.115 C 
HETATM   22  C   UNL     1      40.523 -10.184   1.841  1.00  0.00     0.055 C 
HETATM   23  C   UNL     1      39.139  -9.773   1.343  1.00  0.00     0.236 C 
HETATM   24  N   UNL     1      39.226  -9.219  -0.058  1.00  0.00    -0.075 N 
HETATM   25  H   UNL     1      39.780  -8.351  -0.028  1.00  0.00     0.279 HD
HETATM   26  C   UNL     1      37.857  -8.804  -0.555  1.00  0.00     0.269 C 
HETATM   27  C   UNL     1      39.877 -10.168  -1.029  1.00  0.00     0.236 C 
HETATM   28  C   UNL     1      41.276 -10.524  -0.541  1.00  0.00     0.055 C 
ENDBRANCH   4  21
TORSDOF 4
ENDMDL
MODEL 8
REMARK VINA RESULT:      -7.4      2.301      3.817
REMARK  4 active torsions:
REMARK  status: ('A' for Active; 'I' for Inactive)
REMARK    1  A    between atoms: N_4  and  C_5 
REMARK    2  A    between atoms: C_13  and  C_14 
REMARK    3  A    between atoms: N_15  and  C_17 
REMARK    4  A    between atoms: C_17  and  C_18 
ROOT
HETATM    1  C   UNL     1      44.250 -11.915   3.771  1.00  0.00     0.095 C 
HETATM    2  C   UNL     1      42.823 -12.175   3.488  1.00  0.00     0.144 A 
HETATM    3  N   UNL     1      41.852 -11.980   4.386  1.00  0.00    -0.156 NA
HETATM    4  N   UNL     1      40.738 -12.247   3.681  1.00  0.00    -0.247 N 
HETATM    5  C   UNL     1      41.063 -12.646   2.409  1.00  0.00     0.156 A 
HETATM    6  N   UNL     1      42.378 -12.633   2.279  1.00  0.00    -0.215 NA
ENDROOT
BRANCH   5   7
HETATM    7  C   UNL     1      40.128 -13.002   1.287  1.00  0.00     0.259 C 
HETATM    8  N   UNL     1      40.258 -14.495   0.962  1.00  0.00    -0.056 N 
HETATM    9  H   UNL     1      41.281 -14.621   0.889  1.00  0.00     0.281 HD
HETATM   10  C   UNL     1      39.692 -14.953  -0.354  1.00  0.00     0.236 C 
HETATM   11  C   UNL     1      40.207 -14.092  -1.490  1.00  0.00     0.028 C 
HETATM   12  C   UNL     1      39.879 -12.631  -1.237  1.00  0.00     0.004 C 
HETATM   13  C   UNL     1      40.531 -12.167   0.055  1.00  0.00     0.041 C 
BRANCH   8  14
HETATM   14  C   UNL     1      39.881 -15.434   2.106  1.00  0.00     0.274 C 
BRANCH  14  15
HETATM   15  C   UNL     1      41.003 -16.082   2.886  1.00  0.00    -0.033 A 
HETATM   16  C   UNL     1      42.061 -16.766   2.271  1.00  0.00     0.009 A 
HETATM   17  C   UNL     1      43.102 -17.314   3.027  1.00  0.00     0.001 A 
HETATM   18  C   UNL     1      43.118 -17.159   4.409  1.00  0.00     0.000 A 
HETATM   19  C   UNL     1      42.096 -16.455   5.037  1.00  0.00     0.001 A 
HETATM   20  C   UNL     1      41.046 -15.922   4.283  1.00  0.00     0.009 A 
ENDBRANCH  14  15
ENDBRANCH   8  14
ENDBRANCH   5   7
BRANCH   4  21
HETATM   21  C   UNL     1      39.443 -12.102   4.337  1.00  0.00     0.115 C 
HETATM   22  C   UNL     1      38.699 -10.817   3.934  1.00  0.00     0.055 C 
HETATM   23  C   UNL     1      39.226  -9.548   4.601  1.00  0.00     0.236 C 
HETATM   24  N   UNL     1      39.311  -9.736   6.097  1.00  0.00    -0.075 N 
HETATM   25  H   UNL     1      38.356  -9.865   6.460  1.00  0.00     0.279 HD
HETATM   26  C   UNL     1      39.828  -8.480   6.765  1.00  0.00     0.269 C 
HETATM   27  C   UNL     1      40.139 -10.929   6.496  1.00  0.00     0.236 C 
HETATM   28  C   UNL     1      39.565 -12.190   5.863  1.00  0.00     0.055 C 
ENDBRANCH   4  21
TORSDOF 4
ENDMDL
MODEL 9
REMARK VINA RESULT:      -7.3     14.717     17.107
REMARK  4 active torsions:
REMARK  status: ('A' for Active; 'I' for Inactive)
REMARK    1  A    between atoms: N_4  and  C_5 
REMARK    2  A    between atoms: C_13  and  C_14 
REMARK    3  A    between atoms: N_15  and  C_17 
REMARK    4  A    between atoms: C_17  and  C_18 
ROOT
HETATM    1  C   UNL     1      43.182 -31.013   1.756  1.00  0.00     0.095 C 
HETATM    2  C   UNL     1      44.421 -30.366   1.277  1.00  0.00     0.144 A 
HETATM    3  N   UNL     1      44.475 -29.622   0.168  1.00  0.00    -0.156 NA
HETATM    4  N   UNL     1      45.743 -29.171   0.175  1.00  0.00    -0.247 N 
HETATM    5  C   UNL     1      46.429 -29.694   1.243  1.00  0.00     0.156 A 
HETATM    6  N   UNL     1      45.615 -30.473   1.933  1.00  0.00    -0.215 NA
ENDROOT
BRANCH   5   7
HETATM    7  C   UNL     1      47.851 -29.424   1.647  1.00  0.00     0.259 C 
HETATM    8  N   UNL     1      48.602 -30.752   1.805  1.00  0.00    -0.056 N 
HETATM    9  H   UNL     1      47.957 -31.306   2.391  1.00  0.00     0.281 HD
HETATM   10  C   UNL     1      49.906 -30.707   2.554  1.00  0.00     0.236 C 
HETATM   11  C   UNL     1      49.737 -30.004   3.886  1.00  0.00     0.028 C 
HETATM   12  C   UNL     1      49.182 -28.606   3.679  1.00  0.00     0.004 C 
HETATM   13  C   UNL     1      47.825 -28.680   2.997  1.00  0.00     0.041 C 
BRANCH   8  14
HETATM   14  C   UNL     1      48.702 -31.586   0.530  1.00  0.00     0.274 C 
BRANCH  14  15
HETATM   15  C   UNL     1      50.043 -31.650  -0.168  1.00  0.00    -0.033 A 
HETATM   16  C   UNL     1      50.965 -32.684   0.049  1.00  0.00     0.009 A 
HETATM   17  C   UNL     1      52.175 -32.729  -0.649  1.00  0.00     0.001 A 
HETATM   18  C   UNL     1      52.470 -31.759  -1.599  1.00  0.00     0.000 A 
HETATM   19  C   UNL     1      51.555 -30.743  -1.856  1.00  0.00     0.001 A 
HETATM   20  C   UNL     1      50.353 -30.686  -1.145  1.00  0.00     0.009 A 
ENDBRANCH  14  15
ENDBRANCH   8  14
ENDBRANCH   5   7
BRANCH   4  21
HETATM   21  C   UNL     1      46.173 -28.273  -0.892  1.00  0.00     0.115 C 
HETATM   22  C   UNL     1      45.026 -27.844  -1.823  1.00  0.00     0.055 C 
HETATM   23  C   UNL     1      44.602 -28.910  -2.832  1.00  0.00     0.236 C 
HETATM   24  N   UNL     1      45.804 -29.434  -3.580  1.00  0.00    -0.075 N 
HETATM   25  H   UNL     1      46.198 -28.664  -4.138  1.00  0.00     0.279 HD
HETATM   26  C   UNL     1      45.390 -30.487  -4.586  1.00  0.00     0.269 C 
HETATM   27  C   UNL     1      46.880 -29.964  -2.669  1.00  0.00     0.236 C 
HETATM   28  C   UNL     1      47.325 -28.871  -1.707  1.00  0.00     0.055 C 
ENDBRANCH   4  21
TORSDOF 4
ENDMDL
MODEL 10
REMARK VINA RESULT:      -7.3      2.811      8.730
REMARK  4 active torsions:
REMARK  status: ('A' for Active; 'I' for Inactive)
REMARK    1  A    between atoms: N_4  and  C_5 
REMARK    2  A    between atoms: C_13  and  C_14 
REMARK    3  A    between atoms: N_15  and  C_17 
REMARK    4  A    between atoms: C_17  and  C_18 
ROOT
HETATM    1  C   UNL     1      41.213 -10.173   3.368  1.00  0.00     0.095 C 
HETATM    2  C   UNL     1      41.795 -10.865   4.538  1.00  0.00     0.144 A 
HETATM    3  N   UNL     1      41.448 -12.103   4.902  1.00  0.00    -0.156 NA
HETATM    4  N   UNL     1      42.277 -12.352   5.931  1.00  0.00    -0.247 N 
HETATM    5  C   UNL     1      43.053 -11.252   6.196  1.00  0.00     0.156 A 
HETATM    6  N   UNL     1      42.741 -10.293   5.342  1.00  0.00    -0.215 NA
ENDROOT
BRANCH   5   7
HETATM    7  C   UNL     1      44.132 -11.111   7.234  1.00  0.00     0.259 C 
HETATM    8  N   UNL     1      43.999  -9.754   7.934  1.00  0.00    -0.056 N 
HETATM    9  H   UNL     1      43.907  -9.100   7.141  1.00  0.00     0.281 HD
HETATM   10  C   UNL     1      45.187  -9.281   8.725  1.00  0.00     0.236 C 
HETATM   11  C   UNL     1      46.451  -9.352   7.890  1.00  0.00     0.028 C 
HETATM   12  C   UNL     1      46.667 -10.765   7.378  1.00  0.00     0.004 C 
HETATM   13  C   UNL     1      45.492 -11.191   6.513  1.00  0.00     0.041 C 
BRANCH   8  14
HETATM   14  C   UNL     1      42.689  -9.552   8.693  1.00  0.00     0.274 C 
BRANCH  14  15
HETATM   15  C   UNL     1      42.772  -9.155  10.150  1.00  0.00    -0.033 A 
HETATM   16  C   UNL     1      42.654  -7.828  10.586  1.00  0.00     0.009 A 
HETATM   17  C   UNL     1      42.693  -7.509  11.946  1.00  0.00     0.001 A 
HETATM   18  C   UNL     1      42.818  -8.516  12.897  1.00  0.00     0.000 A 
HETATM   19  C   UNL     1      42.902  -9.843  12.489  1.00  0.00     0.001 A 
HETATM   20  C   UNL     1      42.882 -10.161  11.128  1.00  0.00     0.009 A 
ENDBRANCH  14  15
ENDBRANCH   8  14
ENDBRANCH   5   7
BRANCH   4  21
HETATM   21  C   UNL     1      42.215 -13.658   6.580  1.00  0.00     0.115 C 
HETATM   22  C   UNL     1      43.386 -14.580   6.200  1.00  0.00     0.055 C 
HETATM   23  C   UNL     1      43.264 -15.215   4.816  1.00  0.00     0.236 C 
HETATM   24  N   UNL     1      41.916 -15.877   4.658  1.00  0.00    -0.075 N 
HETATM   25  H   UNL     1      41.859 -16.657   5.328  1.00  0.00     0.279 HD
HETATM   26  C   UNL     1      41.790 -16.513   3.290  1.00  0.00     0.269 C 
HETATM   27  C   UNL     1      40.765 -14.940   4.915  1.00  0.00     0.236 C 
HETATM   28  C   UNL     1      40.878 -14.360   6.319  1.00  0.00     0.055 C 
ENDBRANCH   4  21
TORSDOF 4
ENDMDL
