MODEL 1
REMARK VINA RESULT:      -8.4      0.000      0.000
REMARK  7 active torsions:
REMARK  status: ('A' for Active; 'I' for Inactive)
REMARK    1  A    between atoms: C_2  and  C_3 
REMARK    2  A    between atoms: C_3  and  C_4 
REMARK    3  A    between atoms: C_8  and  C_9 
REMARK       I    between atoms: C_9  and  N_10 
REMARK    4  A    between atoms: N_10  and  C_11 
REMARK    5  A    between atoms: C_12  and  O_13 
REMARK    6  A    between atoms: O_13  and  C_14 
REMARK    7  A    between atoms: C_14  and  C_15 
ROOT
HETATM    1  C   UNL     1      41.374 -13.988   3.382  1.00  0.00     0.113 C 
HETATM    2  C   UNL     1      41.922 -15.355   2.894  1.00  0.00     0.144 C 
HETATM    3  C   UNL     1      40.863 -16.084   2.057  1.00  0.00     0.034 C 
HETATM    4  C   UNL     1      40.381 -15.238   0.884  1.00  0.00     0.003 C 
HETATM    5  C   UNL     1      39.887 -13.870   1.338  1.00  0.00     0.002 C 
HETATM    6  C   UNL     1      40.932 -13.141   2.178  1.00  0.00     0.028 C 
ENDROOT
BRANCH   1   7
HETATM    7  N   UNL     1      42.380 -13.303   4.197  1.00  0.00    -0.349 N 
HETATM    8  C   UNL     1      42.042 -12.612   5.338  1.00  0.00     0.270 C 
HETATM    9  O   UNL     1      40.881 -12.391   5.669  1.00  0.00    -0.266 OA
HETATM   10  H   UNL     1      43.304 -13.718   4.181  1.00  0.00     0.163 HD
BRANCH   8  11
HETATM   11  C   UNL     1      43.152 -12.178   6.144  1.00  0.00     0.119 A 
HETATM   12  N   UNL     1      43.216 -12.475   7.479  1.00  0.00    -0.273 N 
HETATM   13  N   UNL     1      44.315 -12.008   8.094  1.00  0.00    -0.179 NA
HETATM   14  H   UNL     1      42.533 -12.999   8.018  1.00  0.00     0.189 HD
HETATM   15  C   UNL     1      44.983 -11.376   7.124  1.00  0.00     0.057 A 
HETATM   16  C   UNL     1      44.295 -11.446   5.888  1.00  0.00     0.065 A 
BRANCH  15  17
HETATM   17  C   UNL     1      46.283 -10.704   7.417  1.00  0.00     0.061 C 
BRANCH  17  18
HETATM   18  C   UNL     1      46.124  -9.293   7.988  1.00  0.00     0.002 C 
HETATM   19  C   UNL     1      45.574  -9.280   9.408  1.00  0.00     0.005 C 
ENDBRANCH  17  18
ENDBRANCH  15  17
ENDBRANCH   8  11
ENDBRANCH   1   7
BRANCH   2  20
HETATM   20  O   UNL     1      42.294 -16.114   4.056  1.00  0.00    -0.379 OA
BRANCH  20  21
HETATM   21  C   UNL     1      43.632 -16.612   4.014  1.00  0.00     0.206 C 
BRANCH  21  22
HETATM   22  C   UNL     1      43.663 -18.107   3.800  1.00  0.00    -0.035 A 
HETATM   23  C   UNL     1      43.387 -18.694   2.557  1.00  0.00     0.009 A 
HETATM   24  C   UNL     1      43.469 -20.079   2.390  1.00  0.00     0.001 A 
HETATM   25  C   UNL     1      43.837 -20.892   3.460  1.00  0.00     0.000 A 
HETATM   26  C   UNL     1      44.124 -20.323   4.698  1.00  0.00     0.001 A 
HETATM   27  C   UNL     1      44.039 -18.940   4.867  1.00  0.00     0.009 A 
ENDBRANCH  21  22
ENDBRANCH  20  21
ENDBRANCH   2  20
TORSDOF 7
ENDMDL
MODEL 2
REMARK VINA RESULT:      -8.2      3.701      6.832
REMARK  7 active torsions:
REMARK  status: ('A' for Active; 'I' for Inactive)
REMARK    1  A    between atoms: C_2  and  C_3 
REMARK    2  A    between atoms: C_3  and  C_4 
REMARK    3  A    between atoms: C_8  and  C_9 
REMARK       I    between atoms: C_9  and  N_10 
REMARK    4  A    between atoms: N_10  and  C_11 
REMARK    5  A    between atoms: C_12  and  O_13 
REMARK    6  A    between atoms: O_13  and  C_14 
REMARK    7  A    between atoms: C_14  and  C_15 
ROOT
HETATM    1  C   UNL     1      40.963 -14.453   3.675  1.00  0.00     0.113 C 
HETATM    2  C   UNL     1      40.839 -15.968   3.988  1.00  0.00     0.144 C 
HETATM    3  C   UNL     1      41.355 -16.261   5.403  1.00  0.00     0.034 C 
HETATM    4  C   UNL     1      40.639 -15.425   6.457  1.00  0.00     0.003 C 
HETATM    5  C   UNL     1      40.704 -13.936   6.139  1.00  0.00     0.002 C 
HETATM    6  C   UNL     1      40.200 -13.636   4.730  1.00  0.00     0.028 C 
ENDROOT
BRANCH   1   7
HETATM    7  N   UNL     1      40.488 -14.178   2.317  1.00  0.00    -0.349 N 
HETATM    8  C   UNL     1      41.138 -13.296   1.485  1.00  0.00     0.270 C 
HETATM    9  O   UNL     1      42.056 -12.572   1.861  1.00  0.00    -0.266 OA
HETATM   10  H   UNL     1      40.003 -14.944   1.866  1.00  0.00     0.163 HD
BRANCH   8  11
HETATM   11  C   UNL     1      40.685 -13.291   0.120  1.00  0.00     0.119 A 
HETATM   12  N   UNL     1      41.255 -12.466  -0.813  1.00  0.00    -0.273 N 
HETATM   13  N   UNL     1      40.729 -12.581  -2.043  1.00  0.00    -0.179 NA
HETATM   14  H   UNL     1      42.010 -11.805  -0.657  1.00  0.00     0.189 HD
HETATM   15  C   UNL     1      39.777 -13.508  -1.901  1.00  0.00     0.057 A 
HETATM   16  C   UNL     1      39.703 -13.978  -0.567  1.00  0.00     0.065 A 
BRANCH  15  17
HETATM   17  C   UNL     1      38.944 -13.919  -3.070  1.00  0.00     0.061 C 
BRANCH  17  18
HETATM   18  C   UNL     1      37.456 -13.598  -2.901  1.00  0.00     0.002 C 
HETATM   19  C   UNL     1      37.192 -12.128  -2.605  1.00  0.00     0.005 C 
ENDBRANCH  17  18
ENDBRANCH  15  17
ENDBRANCH   8  11
ENDBRANCH   1   7
BRANCH   2  20
HETATM   20  O   UNL     1      41.590 -16.680   2.992  1.00  0.00    -0.379 OA
BRANCH  20  21
HETATM   21  C   UNL     1      42.977 -16.818   3.306  1.00  0.00     0.206 C 
BRANCH  21  22
HETATM   22  C   UNL     1      43.385 -18.270   3.394  1.00  0.00    -0.035 A 
HETATM   23  C   UNL     1      43.896 -18.837   4.570  1.00  0.00     0.009 A 
HETATM   24  C   UNL     1      44.219 -20.195   4.624  1.00  0.00     0.001 A 
HETATM   25  C   UNL     1      44.028 -21.004   3.506  1.00  0.00     0.000 A 
HETATM   26  C   UNL     1      43.511 -20.458   2.334  1.00  0.00     0.001 A 
HETATM   27  C   UNL     1      43.190 -19.101   2.278  1.00  0.00     0.009 A 
ENDBRANCH  21  22
ENDBRANCH  20  21
ENDBRANCH   2  20
TORSDOF 7
ENDMDL
MODEL 3
REMARK VINA RESULT:      -8.1      2.669      6.593
REMARK  7 active torsions:
REMARK  status: ('A' for Active; 'I' for Inactive)
REMARK    1  A    between atoms: C_2  and  C_3 
REMARK    2  A    between atoms: C_3  and  C_4 
REMARK    3  A    between atoms: C_8  and  C_9 
REMARK       I    between atoms: C_9  and  N_10 
REMARK    4  A    between atoms: N_10  and  C_11 
REMARK    5  A    between atoms: C_12  and  O_13 
REMARK    6  A    between atoms: O_13  and  C_14 
REMARK    7  A    between atoms: C_14  and  C_15 
ROOT
HETATM    1  C   UNL     1      42.641 -14.333   4.646  1.00  0.00     0.113 C 
HETATM    2  C   UNL     1      42.127 -15.638   5.309  1.00  0.00     0.144 C 
HETATM    3  C   UNL     1      42.967 -15.971   6.549  1.00  0.00     0.034 C 
HETATM    4  C   UNL     1      42.988 -14.820   7.549  1.00  0.00     0.003 C 
HETATM    5  C   UNL     1      43.441 -13.517   6.904  1.00  0.00     0.002 C 
HETATM    6  C   UNL     1      42.615 -13.183   5.664  1.00  0.00     0.028 C 
ENDROOT
BRANCH   1   7
HETATM    7  N   UNL     1      41.850 -14.029   3.451  1.00  0.00    -0.349 N 
HETATM    8  C   UNL     1      42.428 -13.913   2.208  1.00  0.00     0.270 C 
HETATM    9  O   UNL     1      43.643 -13.902   2.031  1.00  0.00    -0.266 OA
HETATM   10  H   UNL     1      40.893 -14.359   3.472  1.00  0.00     0.163 HD
BRANCH   8  11
HETATM   11  C   UNL     1      41.505 -13.826   1.108  1.00  0.00     0.119 A 
HETATM   12  N   UNL     1      41.239 -12.627   0.500  1.00  0.00    -0.273 N 
HETATM   13  N   UNL     1      40.363 -12.708  -0.515  1.00  0.00    -0.179 NA
HETATM   14  H   UNL     1      41.635 -11.724   0.741  1.00  0.00     0.189 HD
HETATM   15  C   UNL     1      40.041 -14.005  -0.560  1.00  0.00     0.057 A 
HETATM   16  C   UNL     1      40.721 -14.744   0.438  1.00  0.00     0.065 A 
BRANCH  15  17
HETATM   17  C   UNL     1      39.066 -14.505  -1.573  1.00  0.00     0.061 C 
BRANCH  17  18
HETATM   18  C   UNL     1      38.709 -13.467  -2.640  1.00  0.00     0.002 C 
HETATM   19  C   UNL     1      37.218 -13.167  -2.707  1.00  0.00     0.005 C 
ENDBRANCH  17  18
ENDBRANCH  15  17
ENDBRANCH   8  11
ENDBRANCH   1   7
BRANCH   2  20
HETATM   20  O   UNL     1      42.199 -16.683   4.325  1.00  0.00    -0.379 OA
BRANCH  20  21
HETATM   21  C   UNL     1      43.531 -16.999   3.917  1.00  0.00     0.206 C 
BRANCH  21  22
HETATM   22  C   UNL     1      43.738 -18.491   3.801  1.00  0.00    -0.035 A 
HETATM   23  C   UNL     1      44.064 -19.291   4.905  1.00  0.00     0.009 A 
HETATM   24  C   UNL     1      44.203 -20.674   4.764  1.00  0.00     0.001 A 
HETATM   25  C   UNL     1      44.009 -21.275   3.522  1.00  0.00     0.000 A 
HETATM   26  C   UNL     1      43.674 -20.494   2.418  1.00  0.00     0.001 A 
HETATM   27  C   UNL     1      43.538 -19.111   2.557  1.00  0.00     0.009 A 
ENDBRANCH  21  22
ENDBRANCH  20  21
ENDBRANCH   2  20
TORSDOF 7
ENDMDL
MODEL 4
REMARK VINA RESULT:      -7.9      2.327      6.569
REMARK  7 active torsions:
REMARK  status: ('A' for Active; 'I' for Inactive)
REMARK    1  A    between atoms: C_2  and  C_3 
REMARK    2  A    between atoms: C_3  and  C_4 
REMARK    3  A    between atoms: C_8  and  C_9 
REMARK       I    between atoms: C_9  and  N_10 
REMARK    4  A    between atoms: N_10  and  C_11 
REMARK    5  A    between atoms: C_12  and  O_13 
REMARK    6  A    between atoms: O_13  and  C_14 
REMARK    7  A    between atoms: C_14  and  C_15 
ROOT
HETATM    1  C   UNL     1      43.279 -12.853   4.445  1.00  0.00     0.113 C 
HETATM    2  C   UNL     1      42.531 -13.421   5.680  1.00  0.00     0.144 C 
HETATM    3  C   UNL     1      43.474 -13.489   6.888  1.00  0.00     0.034 C 
HETATM    4  C   UNL     1      44.097 -12.134   7.202  1.00  0.00     0.003 C 
HETATM    5  C   UNL     1      44.793 -11.535   5.986  1.00  0.00     0.002 C 
HETATM    6  C   UNL     1      43.864 -11.471   4.777  1.00  0.00     0.028 C 
ENDROOT
BRANCH   1   7
HETATM    7  N   UNL     1      42.382 -12.808   3.288  1.00  0.00    -0.349 N 
HETATM    8  C   UNL     1      42.621 -13.551   2.154  1.00  0.00     0.270 C 
HETATM    9  O   UNL     1      43.661 -14.176   1.969  1.00  0.00    -0.266 OA
HETATM   10  H   UNL     1      41.411 -12.617   3.502  1.00  0.00     0.163 HD
BRANCH   8  11
HETATM   11  C   UNL     1      41.549 -13.569   1.195  1.00  0.00     0.119 A 
HETATM   12  N   UNL     1      41.201 -14.723   0.544  1.00  0.00    -0.273 N 
HETATM   13  N   UNL     1      40.178 -14.582  -0.315  1.00  0.00    -0.179 NA
HETATM   14  H   UNL     1      41.632 -15.636   0.655  1.00  0.00     0.189 HD
HETATM   15  C   UNL     1      39.858 -13.288  -0.224  1.00  0.00     0.057 A 
HETATM   16  C   UNL     1      40.690 -12.609   0.699  1.00  0.00     0.065 A 
BRANCH  15  17
HETATM   17  C   UNL     1      38.747 -12.726  -1.048  1.00  0.00     0.061 C 
BRANCH  17  18
HETATM   18  C   UNL     1      38.991 -12.835  -2.556  1.00  0.00     0.002 C 
HETATM   19  C   UNL     1      40.258 -12.124  -3.009  1.00  0.00     0.005 C 
ENDBRANCH  17  18
ENDBRANCH  15  17
ENDBRANCH   8  11
ENDBRANCH   1   7
BRANCH   2  20
HETATM   20  O   UNL     1      42.030 -14.721   5.325  1.00  0.00    -0.379 OA
BRANCH  20  21
HETATM   21  C   UNL     1      42.822 -15.799   5.826  1.00  0.00     0.206 C 
BRANCH  21  22
HETATM   22  C   UNL     1      43.149 -16.799   4.743  1.00  0.00    -0.035 A 
HETATM   23  C   UNL     1      44.148 -17.771   4.894  1.00  0.00     0.009 A 
HETATM   24  C   UNL     1      44.389 -18.707   3.885  1.00  0.00     0.001 A 
HETATM   25  C   UNL     1      43.630 -18.688   2.717  1.00  0.00     0.000 A 
HETATM   26  C   UNL     1      42.627 -17.734   2.556  1.00  0.00     0.001 A 
HETATM   27  C   UNL     1      42.387 -16.798   3.562  1.00  0.00     0.009 A 
ENDBRANCH  21  22
ENDBRANCH  20  21
ENDBRANCH   2  20
TORSDOF 7
ENDMDL
MODEL 5
REMARK VINA RESULT:      -7.9      1.209      1.978
REMARK  7 active torsions:
REMARK  status: ('A' for Active; 'I' for Inactive)
REMARK    1  A    between atoms: C_2  and  C_3 
REMARK    2  A    between atoms: C_3  and  C_4 
REMARK    3  A    between atoms: C_8  and  C_9 
REMARK       I    between atoms: C_9  and  N_10 
REMARK    4  A    between atoms: N_10  and  C_11 
REMARK    5  A    between atoms: C_12  and  O_13 
REMARK    6  A    between atoms: O_13  and  C_14 
REMARK    7  A    between atoms: C_14  and  C_15 
ROOT
HETATM    1  C   UNL     1      40.853 -13.052   2.470  1.00  0.00     0.113 C 
HETATM    2  C   UNL     1      41.659 -13.572   1.251  1.00  0.00     0.144 C 
HETATM    3  C   UNL     1      40.708 -14.108   0.174  1.00  0.00     0.034 C 
HETATM    4  C   UNL     1      39.683 -13.063  -0.254  1.00  0.00     0.003 C 
HETATM    5  C   UNL     1      38.916 -12.502   0.937  1.00  0.00     0.002 C 
HETATM    6  C   UNL     1      39.856 -11.974   2.017  1.00  0.00     0.028 C 
ENDROOT
BRANCH   1   7
HETATM    7  N   UNL     1      41.764 -12.560   3.505  1.00  0.00    -0.349 N 
HETATM    8  C   UNL     1      41.754 -13.068   4.784  1.00  0.00     0.270 C 
HETATM    9  O   UNL     1      40.896 -13.847   5.189  1.00  0.00    -0.266 OA
HETATM   10  H   UNL     1      42.654 -12.214   3.167  1.00  0.00     0.163 HD
BRANCH   8  11
HETATM   11  C   UNL     1      42.841 -12.641   5.623  1.00  0.00     0.119 A 
HETATM   12  N   UNL     1      42.951 -13.077   6.917  1.00  0.00    -0.273 N 
HETATM   13  N   UNL     1      44.021 -12.597   7.570  1.00  0.00    -0.179 NA
HETATM   14  H   UNL     1      42.318 -13.708   7.400  1.00  0.00     0.189 HD
HETATM   15  C   UNL     1      44.623 -11.814   6.670  1.00  0.00     0.057 A 
HETATM   16  C   UNL     1      43.921 -11.800   5.440  1.00  0.00     0.065 A 
BRANCH  15  17
HETATM   17  C   UNL     1      45.874 -11.080   7.025  1.00  0.00     0.061 C 
BRANCH  17  18
HETATM   18  C   UNL     1      45.829 -10.434   8.412  1.00  0.00     0.002 C 
HETATM   19  C   UNL     1      45.833  -8.913   8.364  1.00  0.00     0.005 C 
ENDBRANCH  17  18
ENDBRANCH  15  17
ENDBRANCH   8  11
ENDBRANCH   1   7
BRANCH   2  20
HETATM   20  O   UNL     1      42.552 -14.594   1.724  1.00  0.00    -0.379 OA
BRANCH  20  21
HETATM   21  C   UNL     1      41.921 -15.859   1.931  1.00  0.00     0.206 C 
BRANCH  21  22
HETATM   22  C   UNL     1      42.779 -16.777   2.770  1.00  0.00    -0.035 A 
HETATM   23  C   UNL     1      43.283 -16.398   4.022  1.00  0.00     0.009 A 
HETATM   24  C   UNL     1      44.035 -17.293   4.786  1.00  0.00     0.001 A 
HETATM   25  C   UNL     1      44.285 -18.580   4.313  1.00  0.00     0.000 A 
HETATM   26  C   UNL     1      43.782 -18.974   3.076  1.00  0.00     0.001 A 
HETATM   27  C   UNL     1      43.033 -18.080   2.310  1.00  0.00     0.009 A 
ENDBRANCH  21  22
ENDBRANCH  20  21
ENDBRANCH   2  20
TORSDOF 7
ENDMDL
MODEL 6
REMARK VINA RESULT:      -7.7      1.321      1.896
REMARK  7 active torsions:
REMARK  status: ('A' for Active; 'I' for Inactive)
REMARK    1  A    between atoms: C_2  and  C_3 
REMARK    2  A    between atoms: C_3  and  C_4 
REMARK    3  A    between atoms: C_8  and  C_9 
REMARK       I    between atoms: C_9  and  N_10 
REMARK    4  A    between atoms: N_10  and  C_11 
REMARK    5  A    between atoms: C_12  and  O_13 
REMARK    6  A    between atoms: O_13  and  C_14 
REMARK    7  A    between atoms: C_14  and  C_15 
ROOT
HETATM    1  C   UNL     1      41.518 -12.597   3.344  1.00  0.00     0.113 C 
HETATM    2  C   UNL     1      42.428 -13.440   2.412  1.00  0.00     0.144 C 
HETATM    3  C   UNL     1      41.584 -14.142   1.341  1.00  0.00     0.034 C 
HETATM    4  C   UNL     1      40.744 -13.156   0.538  1.00  0.00     0.003 C 
HETATM    5  C   UNL     1      39.881 -12.282   1.441  1.00  0.00     0.002 C 
HETATM    6  C   UNL     1      40.712 -11.585   2.515  1.00  0.00     0.028 C 
ENDROOT
BRANCH   1   7
HETATM    7  N   UNL     1      42.324 -11.943   4.379  1.00  0.00    -0.349 N 
HETATM    8  C   UNL     1      41.891 -11.842   5.681  1.00  0.00     0.270 C 
HETATM    9  O   UNL     1      40.756 -12.148   6.036  1.00  0.00    -0.266 OA
HETATM   10  H   UNL     1      43.326 -11.996   4.242  1.00  0.00     0.163 HD
BRANCH   8  11
HETATM   11  C   UNL     1      42.873 -11.371   6.620  1.00  0.00     0.119 A 
HETATM   12  N   UNL     1      43.577 -12.244   7.406  1.00  0.00    -0.273 N 
HETATM   13  N   UNL     1      44.462 -11.655   8.226  1.00  0.00    -0.179 NA
HETATM   14  H   UNL     1      43.491 -13.256   7.417  1.00  0.00     0.189 HD
HETATM   15  C   UNL     1      44.320 -10.350   7.969  1.00  0.00     0.057 A 
HETATM   16  C   UNL     1      43.334 -10.120   6.979  1.00  0.00     0.065 A 
BRANCH  15  17
HETATM   17  C   UNL     1      45.144  -9.343   8.700  1.00  0.00     0.061 C 
BRANCH  17  18
HETATM   18  C   UNL     1      45.310  -9.656  10.190  1.00  0.00     0.002 C 
HETATM   19  C   UNL     1      44.130  -9.194  11.033  1.00  0.00     0.005 C 
ENDBRANCH  17  18
ENDBRANCH  15  17
ENDBRANCH   8  11
ENDBRANCH   1   7
BRANCH   2  20
HETATM   20  O   UNL     1      43.136 -14.384   3.232  1.00  0.00    -0.379 OA
BRANCH  20  21
HETATM   21  C   UNL     1      42.309 -15.428   3.751  1.00  0.00     0.206 C 
BRANCH  21  22
HETATM   22  C   UNL     1      42.947 -16.785   3.565  1.00  0.00    -0.035 A 
HETATM   23  C   UNL     1      43.843 -17.327   4.497  1.00  0.00     0.009 A 
HETATM   24  C   UNL     1      44.377 -18.605   4.310  1.00  0.00     0.001 A 
HETATM   25  C   UNL     1      44.015 -19.359   3.196  1.00  0.00     0.000 A 
HETATM   26  C   UNL     1      43.118 -18.838   2.267  1.00  0.00     0.001 A 
HETATM   27  C   UNL     1      42.586 -17.560   2.451  1.00  0.00     0.009 A 
ENDBRANCH  21  22
ENDBRANCH  20  21
ENDBRANCH   2  20
TORSDOF 7
ENDMDL
MODEL 7
REMARK VINA RESULT:      -7.5      2.860      7.728
REMARK  7 active torsions:
REMARK  status: ('A' for Active; 'I' for Inactive)
REMARK    1  A    between atoms: C_2  and  C_3 
REMARK    2  A    between atoms: C_3  and  C_4 
REMARK    3  A    between atoms: C_8  and  C_9 
REMARK       I    between atoms: C_9  and  N_10 
REMARK    4  A    between atoms: N_10  and  C_11 
REMARK    5  A    between atoms: C_12  and  O_13 
REMARK    6  A    between atoms: O_13  and  C_14 
REMARK    7  A    between atoms: C_14  and  C_15 
ROOT
HETATM    1  C   UNL     1      42.365 -16.916   2.658  1.00  0.00     0.113 C 
HETATM    2  C   UNL     1      43.084 -16.066   3.739  1.00  0.00     0.144 C 
HETATM    3  C   UNL     1      43.475 -16.945   4.933  1.00  0.00     0.034 C 
HETATM    4  C   UNL     1      44.334 -18.131   4.511  1.00  0.00     0.003 C 
HETATM    5  C   UNL     1      43.668 -18.950   3.412  1.00  0.00     0.002 C 
HETATM    6  C   UNL     1      43.268 -18.082   2.223  1.00  0.00     0.028 C 
ENDROOT
BRANCH   1   7
HETATM    7  N   UNL     1      41.975 -16.071   1.527  1.00  0.00    -0.349 N 
HETATM    8  C   UNL     1      40.689 -15.603   1.380  1.00  0.00     0.270 C 
HETATM    9  O   UNL     1      39.755 -15.976   2.084  1.00  0.00    -0.266 OA
HETATM   10  H   UNL     1      42.711 -15.485   1.153  1.00  0.00     0.163 HD
BRANCH   8  11
HETATM   11  C   UNL     1      40.509 -14.617   0.348  1.00  0.00     0.119 A 
HETATM   12  N   UNL     1      41.234 -13.455   0.345  1.00  0.00    -0.273 N 
HETATM   13  N   UNL     1      40.960 -12.638  -0.685  1.00  0.00    -0.179 NA
HETATM   14  H   UNL     1      41.933 -13.174   1.027  1.00  0.00     0.189 HD
HETATM   15  C   UNL     1      40.015 -13.290  -1.370  1.00  0.00     0.057 A 
HETATM   16  C   UNL     1      39.693 -14.528  -0.762  1.00  0.00     0.065 A 
BRANCH  15  17
HETATM   17  C   UNL     1      39.433 -12.692  -2.607  1.00  0.00     0.061 C 
BRANCH  17  18
HETATM   18  C   UNL     1      37.927 -12.436  -2.510  1.00  0.00     0.002 C 
HETATM   19  C   UNL     1      37.546 -11.551  -1.331  1.00  0.00     0.005 C 
ENDBRANCH  17  18
ENDBRANCH  15  17
ENDBRANCH   8  11
ENDBRANCH   1   7
BRANCH   2  20
HETATM   20  O   UNL     1      42.188 -15.011   4.127  1.00  0.00    -0.379 OA
BRANCH  20  21
HETATM   21  C   UNL     1      42.258 -14.680   5.516  1.00  0.00     0.206 C 
BRANCH  21  22
HETATM   22  C   UNL     1      43.104 -13.451   5.752  1.00  0.00    -0.035 A 
HETATM   23  C   UNL     1      43.773 -13.221   6.962  1.00  0.00     0.009 A 
HETATM   24  C   UNL     1      44.582 -12.094   7.125  1.00  0.00     0.001 A 
HETATM   25  C   UNL     1      44.738 -11.188   6.078  1.00  0.00     0.000 A 
HETATM   26  C   UNL     1      44.088 -11.407   4.866  1.00  0.00     0.001 A 
HETATM   27  C   UNL     1      43.277 -12.532   4.703  1.00  0.00     0.009 A 
ENDBRANCH  21  22
ENDBRANCH  20  21
ENDBRANCH   2  20
TORSDOF 7
ENDMDL
MODEL 8
REMARK VINA RESULT:      -7.4      2.816      7.143
REMARK  7 active torsions:
REMARK  status: ('A' for Active; 'I' for Inactive)
REMARK    1  A    between atoms: C_2  and  C_3 
REMARK    2  A    between atoms: C_3  and  C_4 
REMARK    3  A    between atoms: C_8  and  C_9 
REMARK       I    between atoms: C_9  and  N_10 
REMARK    4  A    between atoms: N_10  and  C_11 
REMARK    5  A    between atoms: C_12  and  O_13 
REMARK    6  A    between atoms: O_13  and  C_14 
REMARK    7  A    between atoms: C_14  and  C_15 
ROOT
HETATM    1  C   UNL     1      42.244 -16.552   2.619  1.00  0.00     0.113 C 
HETATM    2  C   UNL     1      42.704 -15.847   3.922  1.00  0.00     0.144 C 
HETATM    3  C   UNL     1      43.059 -16.888   4.992  1.00  0.00     0.034 C 
HETATM    4  C   UNL     1      44.114 -17.873   4.502  1.00  0.00     0.003 C 
HETATM    5  C   UNL     1      43.703 -18.538   3.194  1.00  0.00     0.002 C 
HETATM    6  C   UNL     1      43.340 -17.510   2.126  1.00  0.00     0.028 C 
ENDROOT
BRANCH   1   7
HETATM    7  N   UNL     1      41.887 -15.557   1.606  1.00  0.00    -0.349 N 
HETATM    8  C   UNL     1      40.579 -15.323   1.246  1.00  0.00     0.270 C 
HETATM    9  O   UNL     1      39.644 -16.023   1.625  1.00  0.00    -0.266 OA
HETATM   10  H   UNL     1      42.519 -14.769   1.534  1.00  0.00     0.163 HD
BRANCH   8  11
HETATM   11  C   UNL     1      40.370 -14.176   0.403  1.00  0.00     0.119 A 
HETATM   12  N   UNL     1      39.363 -14.154  -0.525  1.00  0.00    -0.273 N 
HETATM   13  N   UNL     1      39.290 -13.014  -1.230  1.00  0.00    -0.179 NA
HETATM   14  H   UNL     1      38.695 -14.896  -0.714  1.00  0.00     0.189 HD
HETATM   15  C   UNL     1      40.292 -12.272  -0.748  1.00  0.00     0.057 A 
HETATM   16  C   UNL     1      41.003 -12.956   0.269  1.00  0.00     0.065 A 
BRANCH  15  17
HETATM   17  C   UNL     1      40.550 -10.906  -1.291  1.00  0.00     0.061 C 
BRANCH  17  18
HETATM   18  C   UNL     1      41.452 -10.054  -0.396  1.00  0.00     0.002 C 
HETATM   19  C   UNL     1      42.317  -9.074  -1.177  1.00  0.00     0.005 C 
ENDBRANCH  17  18
ENDBRANCH  15  17
ENDBRANCH   8  11
ENDBRANCH   1   7
BRANCH   2  20
HETATM   20  O   UNL     1      41.635 -14.988   4.352  1.00  0.00    -0.379 OA
BRANCH  20  21
HETATM   21  C   UNL     1      41.783 -14.513   5.692  1.00  0.00     0.206 C 
BRANCH  21  22
HETATM   22  C   UNL     1      42.788 -13.388   5.774  1.00  0.00    -0.035 A 
HETATM   23  C   UNL     1      43.836 -13.383   6.705  1.00  0.00     0.009 A 
HETATM   24  C   UNL     1      44.771 -12.345   6.719  1.00  0.00     0.001 A 
HETATM   25  C   UNL     1      44.676 -11.305   5.797  1.00  0.00     0.000 A 
HETATM   26  C   UNL     1      43.647 -11.301   4.859  1.00  0.00     0.001 A 
HETATM   27  C   UNL     1      42.710 -12.336   4.846  1.00  0.00     0.009 A 
ENDBRANCH  21  22
ENDBRANCH  20  21
ENDBRANCH   2  20
TORSDOF 7
ENDMDL
MODEL 9
REMARK VINA RESULT:      -7.4      2.489      6.172
REMARK  7 active torsions:
REMARK  status: ('A' for Active; 'I' for Inactive)
REMARK    1  A    between atoms: C_2  and  C_3 
REMARK    2  A    between atoms: C_3  and  C_4 
REMARK    3  A    between atoms: C_8  and  C_9 
REMARK       I    between atoms: C_9  and  N_10 
REMARK    4  A    between atoms: N_10  and  C_11 
REMARK    5  A    between atoms: C_12  and  O_13 
REMARK    6  A    between atoms: O_13  and  C_14 
REMARK    7  A    between atoms: C_14  and  C_15 
ROOT
HETATM    1  C   UNL     1      42.330 -16.690   3.478  1.00  0.00     0.113 C 
HETATM    2  C   UNL     1      43.374 -16.592   4.622  1.00  0.00     0.144 C 
HETATM    3  C   UNL     1      43.869 -17.990   5.011  1.00  0.00     0.034 C 
HETATM    4  C   UNL     1      44.437 -18.748   3.817  1.00  0.00     0.003 C 
HETATM    5  C   UNL     1      43.445 -18.811   2.662  1.00  0.00     0.002 C 
HETATM    6  C   UNL     1      42.941 -17.423   2.273  1.00  0.00     0.028 C 
ENDROOT
BRANCH   1   7
HETATM    7  N   UNL     1      41.845 -15.355   3.121  1.00  0.00    -0.349 N 
HETATM    8  C   UNL     1      40.542 -15.135   2.735  1.00  0.00     0.270 C 
HETATM    9  O   UNL     1      39.745 -16.043   2.517  1.00  0.00    -0.266 OA
HETATM   10  H   UNL     1      42.309 -14.588   3.590  1.00  0.00     0.163 HD
BRANCH   8  11
HETATM   11  C   UNL     1      40.160 -13.753   2.625  1.00  0.00     0.119 A 
HETATM   12  N   UNL     1      38.855 -13.365   2.776  1.00  0.00    -0.273 N 
HETATM   13  N   UNL     1      38.656 -12.043   2.653  1.00  0.00    -0.179 NA
HETATM   14  H   UNL     1      38.061 -13.969   2.968  1.00  0.00     0.189 HD
HETATM   15  C   UNL     1      39.876 -11.556   2.403  1.00  0.00     0.057 A 
HETATM   16  C   UNL     1      40.849 -12.585   2.367  1.00  0.00     0.065 A 
BRANCH  15  17
HETATM   17  C   UNL     1      40.076 -10.092   2.193  1.00  0.00     0.061 C 
BRANCH  17  18
HETATM   18  C   UNL     1      40.999  -9.448   3.231  1.00  0.00     0.002 C 
HETATM   19  C   UNL     1      40.242  -8.773   4.367  1.00  0.00     0.005 C 
ENDBRANCH  17  18
ENDBRANCH  15  17
ENDBRANCH   8  11
ENDBRANCH   1   7
BRANCH   2  20
HETATM   20  O   UNL     1      42.744 -15.925   5.728  1.00  0.00    -0.379 OA
BRANCH  20  21
HETATM   21  C   UNL     1      43.637 -15.117   6.497  1.00  0.00     0.206 C 
BRANCH  21  22
HETATM   22  C   UNL     1      43.309 -13.648   6.367  1.00  0.00    -0.035 A 
HETATM   23  C   UNL     1      42.032 -13.193   6.011  1.00  0.00     0.009 A 
HETATM   24  C   UNL     1      41.757 -11.825   5.945  1.00  0.00     0.001 A 
HETATM   25  C   UNL     1      42.752 -10.896   6.242  1.00  0.00     0.000 A 
HETATM   26  C   UNL     1      44.023 -11.333   6.608  1.00  0.00     0.001 A 
HETATM   27  C   UNL     1      44.299 -12.700   6.671  1.00  0.00     0.009 A 
ENDBRANCH  21  22
ENDBRANCH  20  21
ENDBRANCH   2  20
TORSDOF 7
ENDMDL
MODEL 10
REMARK VINA RESULT:      -7.3      3.405      7.074
REMARK  7 active torsions:
REMARK  status: ('A' for Active; 'I' for Inactive)
REMARK    1  A    between atoms: C_2  and  C_3 
REMARK    2  A    between atoms: C_3  and  C_4 
REMARK    3  A    between atoms: C_8  and  C_9 
REMARK       I    between atoms: C_9  and  N_10 
REMARK    4  A    between atoms: N_10  and  C_11 
REMARK    5  A    between atoms: C_12  and  O_13 
REMARK    6  A    between atoms: O_13  and  C_14 
REMARK    7  A    between atoms: C_14  and  C_15 
ROOT
HETATM    1  C   UNL     1      42.336 -16.796   2.876  1.00  0.00     0.113 C 
HETATM    2  C   UNL     1      43.178 -16.181   4.024  1.00  0.00     0.144 C 
HETATM    3  C   UNL     1      43.613 -17.275   5.008  1.00  0.00     0.034 C 
HETATM    4  C   UNL     1      44.374 -18.398   4.313  1.00  0.00     0.003 C 
HETATM    5  C   UNL     1      43.583 -18.980   3.147  1.00  0.00     0.002 C 
HETATM    6  C   UNL     1      43.140 -17.897   2.168  1.00  0.00     0.028 C 
ENDROOT
BRANCH   1   7
HETATM    7  N   UNL     1      41.905 -15.747   1.948  1.00  0.00    -0.349 N 
HETATM    8  C   UNL     1      40.605 -15.297   1.913  1.00  0.00     0.270 C 
HETATM    9  O   UNL     1      39.692 -15.835   2.533  1.00  0.00    -0.266 OA
HETATM   10  H   UNL     1      42.619 -15.074   1.697  1.00  0.00     0.163 HD
BRANCH   8  11
HETATM   11  C   UNL     1      40.382 -14.125   1.110  1.00  0.00     0.119 A 
HETATM   12  N   UNL     1      39.205 -13.428   1.185  1.00  0.00    -0.273 N 
HETATM   13  N   UNL     1      39.150 -12.354   0.381  1.00  0.00    -0.179 NA
HETATM   14  H   UNL     1      38.408 -13.646   1.776  1.00  0.00     0.189 HD
HETATM   15  C   UNL     1      40.330 -12.361  -0.247  1.00  0.00     0.057 A 
HETATM   16  C   UNL     1      41.133 -13.451   0.167  1.00  0.00     0.065 A 
BRANCH  15  17
HETATM   17  C   UNL     1      40.657 -11.305  -1.251  1.00  0.00     0.061 C 
BRANCH  17  18
HETATM   18  C   UNL     1      40.422  -9.882  -0.737  1.00  0.00     0.002 C 
HETATM   19  C   UNL     1      41.714  -9.138  -0.428  1.00  0.00     0.005 C 
ENDBRANCH  17  18
ENDBRANCH  15  17
ENDBRANCH   8  11
ENDBRANCH   1   7
BRANCH   2  20
HETATM   20  O   UNL     1      42.372 -15.180   4.667  1.00  0.00    -0.379 OA
BRANCH  20  21
HETATM   21  C   UNL     1      43.063 -13.954   4.910  1.00  0.00     0.206 C 
BRANCH  21  22
HETATM   22  C   UNL     1      42.375 -12.786   4.242  1.00  0.00    -0.035 A 
HETATM   23  C   UNL     1      43.017 -11.980   3.292  1.00  0.00     0.009 A 
HETATM   24  C   UNL     1      42.332 -10.937   2.664  1.00  0.00     0.001 A 
HETATM   25  C   UNL     1      40.995 -10.693   2.971  1.00  0.00     0.000 A 
HETATM   26  C   UNL     1      40.340 -11.493   3.905  1.00  0.00     0.001 A 
HETATM   27  C   UNL     1      41.025 -12.533   4.535  1.00  0.00     0.009 A 
ENDBRANCH  21  22
ENDBRANCH  20  21
ENDBRANCH   2  20
TORSDOF 7
ENDMDL
