MODEL 1
REMARK VINA RESULT:      -8.9      0.000      0.000
REMARK  11 active torsions:
REMARK  status: ('A' for Active; 'I' for Inactive)
REMARK    1  A    between atoms: C_2  and  O_3 
REMARK    2  A    between atoms: O_3  and  C_4 
REMARK    3  A    between atoms: C_7  and  N_8 
REMARK       I    between atoms: N_8  and  C_9 
REMARK    4  A    between atoms: C_9  and  C_10 
REMARK    5  A    between atoms: C_10  and  C_11 
REMARK    6  A    between atoms: N_12  and  C_13 
REMARK    7  A    between atoms: C_13  and  C_14 
REMARK    8  A    between atoms: C_14  and  C_15 
REMARK    9  A    between atoms: C_15  and  N_16 
REMARK   10  A    between atoms: C_20  and  C_21 
REMARK       I    between atoms: C_21  and  N_22 
REMARK   11  A    between atoms: N_28  and  C_29 
ROOT
HETATM    1  C   UNL     1      41.749 -12.961   5.488  1.00  0.00     0.188 C 
HETATM    2  N   UNL     1      40.942 -13.348   4.332  1.00  0.00    -0.344 N 
HETATM    3  C   UNL     1      41.083 -14.741   4.084  1.00  0.00     0.184 C 
HETATM    4  S   UNL     1      40.051 -15.569   3.060  1.00  0.00    -0.040 SA
HETATM    5  N   UNL     1      42.181 -15.192   4.819  1.00  0.00    -0.257 N 
HETATM    6  C   UNL     1      42.739 -14.114   5.489  1.00  0.00     0.254 C 
HETATM    7  O   UNL     1      43.859 -14.026   5.975  1.00  0.00    -0.270 OA
ENDROOT
BRANCH   2   8
HETATM    8  C   UNL     1      39.869 -12.472   3.837  1.00  0.00     0.128 C 
BRANCH   8   9
HETATM    9  C   UNL     1      40.059 -12.015   2.386  1.00  0.00     0.048 C 
BRANCH   9  10
HETATM   10  C   UNL     1      38.791 -11.845   1.550  1.00  0.00     0.236 C 
BRANCH  10  11
HETATM   11  N   UNL     1      38.706 -12.772   0.353  1.00  0.00    -0.071 N 
HETATM   12  H   UNL     1      38.103 -13.574   0.602  1.00  0.00     0.279 HD
HETATM   13  C   UNL     1      38.122 -12.084  -0.860  1.00  0.00     0.235 C 
HETATM   14  C   UNL     1      38.067 -13.041  -2.044  1.00  0.00     0.042 C 
HETATM   15  C   UNL     1      39.443 -13.614  -2.383  1.00  0.00     0.081 C 
HETATM   16  C   UNL     1      40.059 -14.265  -1.143  1.00  0.00     0.042 C 
HETATM   17  C   UNL     1      40.084 -13.351   0.075  1.00  0.00     0.235 C 
BRANCH  15  18
HETATM   18  C   UNL     1      40.341 -12.518  -2.943  1.00  0.00     0.219 C 
HETATM   19  N   UNL     1      41.637 -12.871  -3.153  1.00  0.00    -0.370 N 
HETATM   20  H   UNL     1      42.074 -13.646  -2.668  1.00  0.00     0.159 HD
HETATM   21  H   UNL     1      42.263 -12.133  -3.463  1.00  0.00     0.159 HD
HETATM   22  O   UNL     1      39.916 -11.423  -3.288  1.00  0.00    -0.273 OA
ENDBRANCH  15  18
ENDBRANCH  10  11
ENDBRANCH   9  10
ENDBRANCH   8   9
ENDBRANCH   2   8
BRANCH   1  23
HETATM   23  C   UNL     1      42.447 -11.613   5.407  1.00  0.00     0.138 C 
BRANCH  23  24
HETATM   24  C   UNL     1      42.143 -10.797   6.652  1.00  0.00     0.224 C 
HETATM   25  N   UNL     1      43.258 -10.580   7.432  1.00  0.00    -0.327 N 
HETATM   26  H   UNL     1      44.109 -11.059   7.170  1.00  0.00     0.169 HD
HETATM   27  O   UNL     1      40.998 -10.412   6.858  1.00  0.00    -0.273 OA
BRANCH  25  28
HETATM   28  C   UNL     1      43.334  -9.905   8.666  1.00  0.00     0.034 A 
HETATM   29  C   UNL     1      42.742  -8.671   8.931  1.00  0.00     0.032 A 
HETATM   30  C   UNL     1      42.857  -8.085  10.202  1.00  0.00     0.039 A 
HETATM   31  C   UNL     1      43.571  -8.727  11.213  1.00  0.00     0.068 A 
HETATM   32  C   UNL     1      44.169  -9.957  10.945  1.00  0.00     0.039 A 
HETATM   33  C   UNL     1      44.052 -10.544   9.685  1.00  0.00     0.032 A 
BRANCH  31  34
HETATM   34  O   UNL     1      43.762  -8.275  12.487  1.00  0.00    -0.352 OA
BRANCH  34  35
HETATM   35  C   UNL     1      42.615  -7.820  13.199  1.00  0.00     0.171 C 
HETATM   36  C   UNL     1      42.116  -8.974  14.051  1.00  0.00     0.034 C 
ENDBRANCH  34  35
ENDBRANCH  31  34
ENDBRANCH  25  28
ENDBRANCH  23  24
ENDBRANCH   1  23
BRANCH   5  37
HETATM   37  C   UNL     1      42.793 -16.496   4.868  1.00  0.00     0.045 A 
HETATM   38  C   UNL     1      42.769 -17.238   6.069  1.00  0.00     0.032 A 
HETATM   39  C   UNL     1      43.357 -18.506   6.180  1.00  0.00     0.026 A 
HETATM   40  C   UNL     1      43.974 -19.075   5.078  1.00  0.00     0.034 A 
HETATM   41 CL   UNL     1      44.696 -20.628   5.199  1.00  0.00    -0.084 Cl
HETATM   42  C   UNL     1      44.009 -18.380   3.877  1.00  0.00     0.026 A 
HETATM   43  C   UNL     1      43.431 -17.104   3.778  1.00  0.00     0.032 A 
ENDBRANCH   5  37
TORSDOF 11
ENDMDL
MODEL 2
REMARK VINA RESULT:      -8.8      2.237      9.398
REMARK  11 active torsions:
REMARK  status: ('A' for Active; 'I' for Inactive)
REMARK    1  A    between atoms: C_2  and  O_3 
REMARK    2  A    between atoms: O_3  and  C_4 
REMARK    3  A    between atoms: C_7  and  N_8 
REMARK       I    between atoms: N_8  and  C_9 
REMARK    4  A    between atoms: C_9  and  C_10 
REMARK    5  A    between atoms: C_10  and  C_11 
REMARK    6  A    between atoms: N_12  and  C_13 
REMARK    7  A    between atoms: C_13  and  C_14 
REMARK    8  A    between atoms: C_14  and  C_15 
REMARK    9  A    between atoms: C_15  and  N_16 
REMARK   10  A    between atoms: C_20  and  C_21 
REMARK       I    between atoms: C_21  and  N_22 
REMARK   11  A    between atoms: N_28  and  C_29 
ROOT
HETATM    1  C   UNL     1      42.667 -12.641   3.999  1.00  0.00     0.188 C 
HETATM    2  N   UNL     1      41.528 -13.100   4.792  1.00  0.00    -0.344 N 
HETATM    3  C   UNL     1      41.583 -14.513   4.950  1.00  0.00     0.184 C 
HETATM    4  S   UNL     1      40.635 -15.317   6.070  1.00  0.00    -0.040 SA
HETATM    5  N   UNL     1      42.512 -15.005   4.032  1.00  0.00    -0.257 N 
HETATM    6  C   UNL     1      43.011 -13.943   3.294  1.00  0.00     0.254 C 
HETATM    7  O   UNL     1      43.593 -13.981   2.218  1.00  0.00    -0.270 OA
ENDROOT
BRANCH   2   8
HETATM    8  C   UNL     1      40.749 -12.155   5.607  1.00  0.00     0.128 C 
BRANCH   8   9
HETATM    9  C   UNL     1      41.389 -10.766   5.728  1.00  0.00     0.048 C 
BRANCH   9  10
HETATM   10  C   UNL     1      41.343 -10.110   7.107  1.00  0.00     0.236 C 
BRANCH  10  11
HETATM   11  N   UNL     1      42.496 -10.490   8.015  1.00  0.00    -0.071 N 
HETATM   12  H   UNL     1      42.203 -11.289   8.602  1.00  0.00     0.279 HD
HETATM   13  C   UNL     1      43.729 -10.889   7.235  1.00  0.00     0.235 C 
HETATM   14  C   UNL     1      44.868 -11.248   8.181  1.00  0.00     0.042 C 
HETATM   15  C   UNL     1      45.205 -10.102   9.135  1.00  0.00     0.081 C 
HETATM   16  C   UNL     1      43.948  -9.662   9.888  1.00  0.00     0.042 C 
HETATM   17  C   UNL     1      42.772  -9.342   8.974  1.00  0.00     0.235 C 
BRANCH  15  18
HETATM   18  C   UNL     1      45.827  -8.946   8.362  1.00  0.00     0.219 C 
HETATM   19  N   UNL     1      46.889  -9.269   7.576  1.00  0.00    -0.370 N 
HETATM   20  H   UNL     1      47.453 -10.095   7.738  1.00  0.00     0.159 HD
HETATM   21  H   UNL     1      47.355  -8.499   7.106  1.00  0.00     0.159 HD
HETATM   22  O   UNL     1      45.350  -7.819   8.353  1.00  0.00    -0.273 OA
ENDBRANCH  15  18
ENDBRANCH  10  11
ENDBRANCH   9  10
ENDBRANCH   8   9
ENDBRANCH   2   8
BRANCH   1  23
HETATM   23  C   UNL     1      42.396 -11.516   3.013  1.00  0.00     0.138 C 
BRANCH  23  24
HETATM   24  C   UNL     1      41.269 -11.910   2.074  1.00  0.00     0.224 C 
HETATM   25  N   UNL     1      41.719 -12.562   0.946  1.00  0.00    -0.327 N 
HETATM   26  H   UNL     1      42.719 -12.612   0.806  1.00  0.00     0.169 HD
HETATM   27  O   UNL     1      40.112 -11.638   2.370  1.00  0.00    -0.273 OA
BRANCH  25  28
HETATM   28  C   UNL     1      40.961 -13.029  -0.146  1.00  0.00     0.034 A 
HETATM   29  C   UNL     1      40.231 -14.216  -0.153  1.00  0.00     0.032 A 
HETATM   30  C   UNL     1      39.488 -14.588  -1.285  1.00  0.00     0.039 A 
HETATM   31  C   UNL     1      39.476 -13.777  -2.418  1.00  0.00     0.068 A 
HETATM   32  C   UNL     1      40.212 -12.594  -2.414  1.00  0.00     0.039 A 
HETATM   33  C   UNL     1      40.947 -12.219  -1.289  1.00  0.00     0.032 A 
BRANCH  31  34
HETATM   34  O   UNL     1      38.801 -14.015  -3.581  1.00  0.00    -0.352 OA
BRANCH  34  35
HETATM   35  C   UNL     1      37.389 -14.183  -3.497  1.00  0.00     0.171 C 
HETATM   36  C   UNL     1      36.803 -12.887  -2.966  1.00  0.00     0.034 C 
ENDBRANCH  34  35
ENDBRANCH  31  34
ENDBRANCH  25  28
ENDBRANCH  23  24
ENDBRANCH   1  23
BRANCH   5  37
HETATM   37  C   UNL     1      42.891 -16.362   3.733  1.00  0.00     0.045 A 
HETATM   38  C   UNL     1      43.712 -17.077   4.633  1.00  0.00     0.032 A 
HETATM   39  C   UNL     1      44.122 -18.396   4.389  1.00  0.00     0.026 A 
HETATM   40  C   UNL     1      43.703 -19.043   3.238  1.00  0.00     0.034 A 
HETATM   41 CL   UNL     1      44.196 -20.659   2.928  1.00  0.00    -0.084 Cl
HETATM   42  C   UNL     1      42.888 -18.377   2.334  1.00  0.00     0.026 A 
HETATM   43  C   UNL     1      42.494 -17.051   2.578  1.00  0.00     0.032 A 
ENDBRANCH   5  37
TORSDOF 11
ENDMDL
MODEL 3
REMARK VINA RESULT:      -8.8      1.067      1.625
REMARK  11 active torsions:
REMARK  status: ('A' for Active; 'I' for Inactive)
REMARK    1  A    between atoms: C_2  and  O_3 
REMARK    2  A    between atoms: O_3  and  C_4 
REMARK    3  A    between atoms: C_7  and  N_8 
REMARK       I    between atoms: N_8  and  C_9 
REMARK    4  A    between atoms: C_9  and  C_10 
REMARK    5  A    between atoms: C_10  and  C_11 
REMARK    6  A    between atoms: N_12  and  C_13 
REMARK    7  A    between atoms: C_13  and  C_14 
REMARK    8  A    between atoms: C_14  and  C_15 
REMARK    9  A    between atoms: C_15  and  N_16 
REMARK   10  A    between atoms: C_20  and  C_21 
REMARK       I    between atoms: C_21  and  N_22 
REMARK   11  A    between atoms: N_28  and  C_29 
ROOT
HETATM    1  C   UNL     1      42.434 -12.882   5.427  1.00  0.00     0.188 C 
HETATM    2  N   UNL     1      41.936 -13.170   4.084  1.00  0.00    -0.344 N 
HETATM    3  C   UNL     1      41.952 -14.573   3.849  1.00  0.00     0.184 C 
HETATM    4  S   UNL     1      41.144 -15.266   2.558  1.00  0.00    -0.040 SA
HETATM    5  N   UNL     1      42.732 -15.160   4.847  1.00  0.00    -0.257 N 
HETATM    6  C   UNL     1      43.220 -14.159   5.672  1.00  0.00     0.254 C 
HETATM    7  O   UNL     1      44.163 -14.219   6.453  1.00  0.00    -0.270 OA
ENDROOT
BRANCH   2   8
HETATM    8  C   UNL     1      41.170 -12.163   3.333  1.00  0.00     0.128 C 
BRANCH   8   9
HETATM    9  C   UNL     1      41.923 -11.577   2.133  1.00  0.00     0.048 C 
BRANCH   9  10
HETATM   10  C   UNL     1      41.080 -11.191   0.918  1.00  0.00     0.236 C 
BRANCH  10  11
HETATM   11  N   UNL     1      41.013 -12.257  -0.158  1.00  0.00    -0.071 N 
HETATM   12  H   UNL     1      41.892 -12.800  -0.136  1.00  0.00     0.279 HD
HETATM   13  C   UNL     1      39.853 -13.204   0.050  1.00  0.00     0.235 C 
HETATM   14  C   UNL     1      39.810 -14.249  -1.058  1.00  0.00     0.042 C 
HETATM   15  C   UNL     1      39.720 -13.613  -2.444  1.00  0.00     0.081 C 
HETATM   16  C   UNL     1      40.863 -12.615  -2.637  1.00  0.00     0.042 C 
HETATM   17  C   UNL     1      40.966 -11.584  -1.520  1.00  0.00     0.235 C 
BRANCH  15  18
HETATM   18  C   UNL     1      38.361 -12.948  -2.625  1.00  0.00     0.219 C 
HETATM   19  N   UNL     1      37.288 -13.694  -2.253  1.00  0.00    -0.370 N 
HETATM   20  H   UNL     1      37.322 -14.706  -2.200  1.00  0.00     0.159 HD
HETATM   21  H   UNL     1      36.372 -13.291  -2.429  1.00  0.00     0.159 HD
HETATM   22  O   UNL     1      38.233 -11.782  -2.977  1.00  0.00    -0.273 OA
ENDBRANCH  15  18
ENDBRANCH  10  11
ENDBRANCH   9  10
ENDBRANCH   8   9
ENDBRANCH   2   8
BRANCH   1  23
HETATM   23  C   UNL     1      43.301 -11.643   5.577  1.00  0.00     0.138 C 
BRANCH  23  24
HETATM   24  C   UNL     1      42.822 -10.815   6.757  1.00  0.00     0.224 C 
HETATM   25  N   UNL     1      43.832 -10.522   7.648  1.00  0.00    -0.327 N 
HETATM   26  H   UNL     1      44.730 -10.962   7.493  1.00  0.00     0.169 HD
HETATM   27  O   UNL     1      41.644 -10.486   6.827  1.00  0.00    -0.273 OA
BRANCH  25  28
HETATM   28  C   UNL     1      43.739  -9.815   8.863  1.00  0.00     0.034 A 
HETATM   29  C   UNL     1      43.472  -8.451   8.966  1.00  0.00     0.032 A 
HETATM   30  C   UNL     1      43.378  -7.838  10.226  1.00  0.00     0.039 A 
HETATM   31  C   UNL     1      43.557  -8.585  11.389  1.00  0.00     0.068 A 
HETATM   32  C   UNL     1      43.832  -9.947  11.285  1.00  0.00     0.039 A 
HETATM   33  C   UNL     1      43.921 -10.560  10.035  1.00  0.00     0.032 A 
BRANCH  31  34
HETATM   34  O   UNL     1      43.494  -8.121  12.671  1.00  0.00    -0.352 OA
BRANCH  34  35
HETATM   35  C   UNL     1      42.485  -8.667  13.516  1.00  0.00     0.171 C 
HETATM   36  C   UNL     1      42.282  -7.702  14.671  1.00  0.00     0.034 C 
ENDBRANCH  34  35
ENDBRANCH  31  34
ENDBRANCH  25  28
ENDBRANCH  23  24
ENDBRANCH   1  23
BRANCH   5  37
HETATM   37  C   UNL     1      43.124 -16.534   5.031  1.00  0.00     0.045 A 
HETATM   38  C   UNL     1      43.794 -17.218   3.993  1.00  0.00     0.032 A 
HETATM   39  C   UNL     1      44.189 -18.558   4.111  1.00  0.00     0.026 A 
HETATM   40  C   UNL     1      43.937 -19.248   5.285  1.00  0.00     0.034 A 
HETATM   41 CL   UNL     1      44.418 -20.889   5.443  1.00  0.00    -0.084 Cl
HETATM   42  C   UNL     1      43.289 -18.606   6.332  1.00  0.00     0.026 A 
HETATM   43  C   UNL     1      42.883 -17.268   6.201  1.00  0.00     0.032 A 
ENDBRANCH   5  37
TORSDOF 11
ENDMDL
MODEL 4
REMARK VINA RESULT:      -8.7      3.840      7.844
REMARK  11 active torsions:
REMARK  status: ('A' for Active; 'I' for Inactive)
REMARK    1  A    between atoms: C_2  and  O_3 
REMARK    2  A    between atoms: O_3  and  C_4 
REMARK    3  A    between atoms: C_7  and  N_8 
REMARK       I    between atoms: N_8  and  C_9 
REMARK    4  A    between atoms: C_9  and  C_10 
REMARK    5  A    between atoms: C_10  and  C_11 
REMARK    6  A    between atoms: N_12  and  C_13 
REMARK    7  A    between atoms: C_13  and  C_14 
REMARK    8  A    between atoms: C_14  and  C_15 
REMARK    9  A    between atoms: C_15  and  N_16 
REMARK   10  A    between atoms: C_20  and  C_21 
REMARK       I    between atoms: C_21  and  N_22 
REMARK   11  A    between atoms: N_28  and  C_29 
ROOT
HETATM    1  C   UNL     1      40.298 -12.868   2.353  1.00  0.00     0.188 C 
HETATM    2  N   UNL     1      39.917 -13.745   1.247  1.00  0.00    -0.344 N 
HETATM    3  C   UNL     1      40.127 -13.084   0.006  1.00  0.00     0.184 C 
HETATM    4  S   UNL     1      40.116 -13.906  -1.451  1.00  0.00    -0.040 SA
HETATM    5  N   UNL     1      40.313 -11.727   0.276  1.00  0.00    -0.257 N 
HETATM    6  C   UNL     1      40.196 -11.528   1.643  1.00  0.00     0.254 C 
HETATM    7  O   UNL     1      39.990 -10.477   2.237  1.00  0.00    -0.270 OA
ENDROOT
BRANCH   2   8
HETATM    8  C   UNL     1      39.764 -15.194   1.456  1.00  0.00     0.128 C 
BRANCH   8   9
HETATM    9  C   UNL     1      41.083 -15.926   1.726  1.00  0.00     0.048 C 
BRANCH   9  10
HETATM   10  C   UNL     1      41.325 -16.395   3.161  1.00  0.00     0.236 C 
BRANCH  10  11
HETATM   11  N   UNL     1      42.736 -16.878   3.429  1.00  0.00    -0.071 N 
HETATM   12  H   UNL     1      43.398 -16.223   2.979  1.00  0.00     0.279 HD
HETATM   13  C   UNL     1      43.046 -16.940   4.908  1.00  0.00     0.235 C 
HETATM   14  C   UNL     1      44.465 -17.444   5.136  1.00  0.00     0.042 C 
HETATM   15  C   UNL     1      44.698 -18.813   4.498  1.00  0.00     0.081 C 
HETATM   16  C   UNL     1      44.336 -18.766   3.012  1.00  0.00     0.042 C 
HETATM   17  C   UNL     1      42.940 -18.220   2.744  1.00  0.00     0.235 C 
BRANCH  15  18
HETATM   18  C   UNL     1      43.894 -19.877   5.236  1.00  0.00     0.219 C 
HETATM   19  N   UNL     1      43.883 -21.109   4.661  1.00  0.00    -0.370 N 
HETATM   20  H   UNL     1      44.070 -21.249   3.675  1.00  0.00     0.159 HD
HETATM   21  H   UNL     1      43.299 -21.810   5.105  1.00  0.00     0.159 HD
HETATM   22  O   UNL     1      43.379 -19.681   6.329  1.00  0.00    -0.273 OA
ENDBRANCH  15  18
ENDBRANCH  10  11
ENDBRANCH   9  10
ENDBRANCH   8   9
ENDBRANCH   2   8
BRANCH   1  23
HETATM   23  C   UNL     1      39.421 -12.922   3.593  1.00  0.00     0.138 C 
BRANCH  23  24
HETATM   24  C   UNL     1      40.289 -12.979   4.838  1.00  0.00     0.224 C 
HETATM   25  N   UNL     1      41.390 -12.153   4.760  1.00  0.00    -0.327 N 
HETATM   26  H   UNL     1      41.564 -11.695   3.875  1.00  0.00     0.169 HD
HETATM   27  O   UNL     1      39.967 -13.710   5.768  1.00  0.00    -0.273 OA
BRANCH  25  28
HETATM   28  C   UNL     1      42.420 -11.988   5.706  1.00  0.00     0.034 A 
HETATM   29  C   UNL     1      43.527 -12.826   5.825  1.00  0.00     0.032 A 
HETATM   30  C   UNL     1      44.515 -12.568   6.789  1.00  0.00     0.039 A 
HETATM   31  C   UNL     1      44.396 -11.474   7.644  1.00  0.00     0.068 A 
HETATM   32  C   UNL     1      43.286 -10.641   7.531  1.00  0.00     0.039 A 
HETATM   33  C   UNL     1      42.305 -10.892   6.570  1.00  0.00     0.032 A 
BRANCH  31  34
HETATM   34  O   UNL     1      45.277 -11.107   8.621  1.00  0.00    -0.352 OA
BRANCH  34  35
HETATM   35  C   UNL     1      45.448  -9.712   8.859  1.00  0.00     0.171 C 
HETATM   36  C   UNL     1      46.554  -9.224   7.940  1.00  0.00     0.034 C 
ENDBRANCH  34  35
ENDBRANCH  31  34
ENDBRANCH  25  28
ENDBRANCH  23  24
ENDBRANCH   1  23
BRANCH   5  37
HETATM   37  C   UNL     1      40.492 -10.617  -0.625  1.00  0.00     0.045 A 
HETATM   38  C   UNL     1      41.756  -9.996  -0.732  1.00  0.00     0.032 A 
HETATM   39  C   UNL     1      41.985  -8.905  -1.584  1.00  0.00     0.026 A 
HETATM   40  C   UNL     1      40.953  -8.416  -2.368  1.00  0.00     0.034 A 
HETATM   41 CL   UNL     1      41.222  -7.083  -3.415  1.00  0.00    -0.084 Cl
HETATM   42  C   UNL     1      39.699  -9.007  -2.297  1.00  0.00     0.026 A 
HETATM   43  C   UNL     1      39.473 -10.089  -1.430  1.00  0.00     0.032 A 
ENDBRANCH   5  37
TORSDOF 11
ENDMDL
MODEL 5
REMARK VINA RESULT:      -8.4      2.671      8.702
REMARK  11 active torsions:
REMARK  status: ('A' for Active; 'I' for Inactive)
REMARK    1  A    between atoms: C_2  and  O_3 
REMARK    2  A    between atoms: O_3  and  C_4 
REMARK    3  A    between atoms: C_7  and  N_8 
REMARK       I    between atoms: N_8  and  C_9 
REMARK    4  A    between atoms: C_9  and  C_10 
REMARK    5  A    between atoms: C_10  and  C_11 
REMARK    6  A    between atoms: N_12  and  C_13 
REMARK    7  A    between atoms: C_13  and  C_14 
REMARK    8  A    between atoms: C_14  and  C_15 
REMARK    9  A    between atoms: C_15  and  N_16 
REMARK   10  A    between atoms: C_20  and  C_21 
REMARK       I    between atoms: C_21  and  N_22 
REMARK   11  A    between atoms: N_28  and  C_29 
ROOT
HETATM    1  C   UNL     1      40.880 -14.002   3.163  1.00  0.00     0.188 C 
HETATM    2  N   UNL     1      41.128 -13.656   4.561  1.00  0.00    -0.344 N 
HETATM    3  C   UNL     1      42.004 -14.608   5.151  1.00  0.00     0.184 C 
HETATM    4  S   UNL     1      42.755 -14.332   6.621  1.00  0.00    -0.040 SA
HETATM    5  N   UNL     1      42.066 -15.711   4.297  1.00  0.00    -0.257 N 
HETATM    6  C   UNL     1      41.233 -15.480   3.215  1.00  0.00     0.254 C 
HETATM    7  O   UNL     1      40.778 -16.298   2.425  1.00  0.00    -0.270 OA
ENDROOT
BRANCH   2   8
HETATM    8  C   UNL     1      40.829 -12.306   5.066  1.00  0.00     0.128 C 
BRANCH   8   9
HETATM    9  C   UNL     1      41.703 -11.206   4.452  1.00  0.00     0.048 C 
BRANCH   9  10
HETATM   10  C   UNL     1      42.124 -10.068   5.381  1.00  0.00     0.236 C 
BRANCH  10  11
HETATM   11  N   UNL     1      42.864 -10.522   6.625  1.00  0.00    -0.071 N 
HETATM   12  H   UNL     1      42.365 -11.333   7.025  1.00  0.00     0.279 HD
HETATM   13  C   UNL     1      44.289 -10.929   6.324  1.00  0.00     0.235 C 
HETATM   14  C   UNL     1      45.002 -11.362   7.598  1.00  0.00     0.042 C 
HETATM   15  C   UNL     1      44.988 -10.267   8.664  1.00  0.00     0.081 C 
HETATM   16  C   UNL     1      43.551  -9.817   8.933  1.00  0.00     0.042 C 
HETATM   17  C   UNL     1      42.792  -9.423   7.673  1.00  0.00     0.235 C 
BRANCH  15  18
HETATM   18  C   UNL     1      45.867  -9.102   8.227  1.00  0.00     0.219 C 
HETATM   19  N   UNL     1      47.009  -9.442   7.572  1.00  0.00    -0.370 N 
HETATM   20  H   UNL     1      47.438 -10.355   7.667  1.00  0.00     0.159 HD
HETATM   21  H   UNL     1      47.637  -8.680   7.333  1.00  0.00     0.159 HD
HETATM   22  O   UNL     1      45.529  -7.932   8.350  1.00  0.00    -0.273 OA
ENDBRANCH  15  18
ENDBRANCH  10  11
ENDBRANCH   9  10
ENDBRANCH   8   9
ENDBRANCH   2   8
BRANCH   1  23
HETATM   23  C   UNL     1      39.468 -13.773   2.648  1.00  0.00     0.138 C 
BRANCH  23  24
HETATM   24  C   UNL     1      39.453 -12.597   1.686  1.00  0.00     0.224 C 
HETATM   25  N   UNL     1      40.630 -12.471   0.980  1.00  0.00    -0.327 N 
HETATM   26  H   UNL     1      41.396 -13.077   1.242  1.00  0.00     0.169 HD
HETATM   27  O   UNL     1      38.455 -11.891   1.609  1.00  0.00    -0.273 OA
BRANCH  25  28
HETATM   28  C   UNL     1      40.976 -11.479   0.042  1.00  0.00     0.034 A 
HETATM   29  C   UNL     1      40.916 -11.642  -1.341  1.00  0.00     0.032 A 
HETATM   30  C   UNL     1      41.263 -10.586  -2.198  1.00  0.00     0.039 A 
HETATM   31  C   UNL     1      41.678  -9.362  -1.676  1.00  0.00     0.068 A 
HETATM   32  C   UNL     1      41.746  -9.201  -0.294  1.00  0.00     0.039 A 
HETATM   33  C   UNL     1      41.397 -10.248   0.560  1.00  0.00     0.032 A 
BRANCH  31  34
HETATM   34  O   UNL     1      42.043  -8.255  -2.389  1.00  0.00    -0.352 OA
BRANCH  34  35
HETATM   35  C   UNL     1      41.209  -7.105  -2.285  1.00  0.00     0.171 C 
HETATM   36  C   UNL     1      39.950  -7.378  -3.089  1.00  0.00     0.034 C 
ENDBRANCH  34  35
ENDBRANCH  31  34
ENDBRANCH  25  28
ENDBRANCH  23  24
ENDBRANCH   1  23
BRANCH   5  37
HETATM   37  C   UNL     1      42.749 -16.969   4.456  1.00  0.00     0.045 A 
HETATM   38  C   UNL     1      42.841 -17.563   5.733  1.00  0.00     0.032 A 
HETATM   39  C   UNL     1      43.503 -18.780   5.949  1.00  0.00     0.026 A 
HETATM   40  C   UNL     1      44.080 -19.447   4.881  1.00  0.00     0.034 A 
HETATM   41 CL   UNL     1      44.892 -20.939   5.132  1.00  0.00    -0.084 Cl
HETATM   42  C   UNL     1      44.002 -18.900   3.608  1.00  0.00     0.026 A 
HETATM   43  C   UNL     1      43.351 -17.672   3.402  1.00  0.00     0.032 A 
ENDBRANCH   5  37
TORSDOF 11
ENDMDL
MODEL 6
REMARK VINA RESULT:      -8.1      4.232      9.467
REMARK  11 active torsions:
REMARK  status: ('A' for Active; 'I' for Inactive)
REMARK    1  A    between atoms: C_2  and  O_3 
REMARK    2  A    between atoms: O_3  and  C_4 
REMARK    3  A    between atoms: C_7  and  N_8 
REMARK       I    between atoms: N_8  and  C_9 
REMARK    4  A    between atoms: C_9  and  C_10 
REMARK    5  A    between atoms: C_10  and  C_11 
REMARK    6  A    between atoms: N_12  and  C_13 
REMARK    7  A    between atoms: C_13  and  C_14 
REMARK    8  A    between atoms: C_14  and  C_15 
REMARK    9  A    between atoms: C_15  and  N_16 
REMARK   10  A    between atoms: C_20  and  C_21 
REMARK       I    between atoms: C_21  and  N_22 
REMARK   11  A    between atoms: N_28  and  C_29 
ROOT
HETATM    1  C   UNL     1      42.119  -9.288   8.193  1.00  0.00     0.188 C 
HETATM    2  N   UNL     1      43.472  -9.725   8.531  1.00  0.00    -0.344 N 
HETATM    3  C   UNL     1      43.620  -9.805   9.943  1.00  0.00     0.184 C 
HETATM    4  S   UNL     1      44.917 -10.585  10.657  1.00  0.00    -0.040 SA
HETATM    5  N   UNL     1      42.540  -9.134  10.519  1.00  0.00    -0.257 N 
HETATM    6  C   UNL     1      41.747  -8.619   9.506  1.00  0.00     0.254 C 
HETATM    7  O   UNL     1      40.905  -7.733   9.584  1.00  0.00    -0.270 OA
ENDROOT
BRANCH   2   8
HETATM    8  C   UNL     1      44.330 -10.364   7.520  1.00  0.00     0.128 C 
BRANCH   8   9
HETATM    9  C   UNL     1      44.198 -11.891   7.469  1.00  0.00     0.048 C 
BRANCH   9  10
HETATM   10  C   UNL     1      44.028 -12.518   6.086  1.00  0.00     0.236 C 
BRANCH  10  11
HETATM   11  N   UNL     1      42.906 -13.533   5.996  1.00  0.00    -0.071 N 
HETATM   12  H   UNL     1      42.010 -13.048   6.165  1.00  0.00     0.279 HD
HETATM   13  C   UNL     1      42.849 -14.200   4.640  1.00  0.00     0.235 C 
HETATM   14  C   UNL     1      41.721 -15.224   4.594  1.00  0.00     0.042 C 
HETATM   15  C   UNL     1      41.862 -16.282   5.688  1.00  0.00     0.081 C 
HETATM   16  C   UNL     1      41.972 -15.608   7.057  1.00  0.00     0.042 C 
HETATM   17  C   UNL     1      43.059 -14.542   7.124  1.00  0.00     0.235 C 
BRANCH  15  18
HETATM   18  C   UNL     1      43.066 -17.170   5.404  1.00  0.00     0.219 C 
HETATM   19  N   UNL     1      43.485 -17.941   6.442  1.00  0.00    -0.370 N 
HETATM   20  H   UNL     1      43.277 -17.712   7.407  1.00  0.00     0.159 HD
HETATM   21  H   UNL     1      44.326 -18.489   6.288  1.00  0.00     0.159 HD
HETATM   22  O   UNL     1      43.565 -17.276   4.291  1.00  0.00    -0.273 OA
ENDBRANCH  15  18
ENDBRANCH  10  11
ENDBRANCH   9  10
ENDBRANCH   8   9
ENDBRANCH   2   8
BRANCH   1  23
HETATM   23  C   UNL     1      41.988  -8.338   7.014  1.00  0.00     0.138 C 
BRANCH  23  24
HETATM   24  C   UNL     1      41.110  -8.960   5.942  1.00  0.00     0.224 C 
HETATM   25  N   UNL     1      41.683 -10.070   5.360  1.00  0.00    -0.327 N 
HETATM   26  H   UNL     1      42.638 -10.285   5.613  1.00  0.00     0.169 HD
HETATM   27  O   UNL     1      40.019  -8.461   5.689  1.00  0.00    -0.273 OA
BRANCH  25  28
HETATM   28  C   UNL     1      41.172 -10.862   4.314  1.00  0.00     0.034 A 
HETATM   29  C   UNL     1      41.735 -10.951   3.042  1.00  0.00     0.032 A 
HETATM   30  C   UNL     1      41.163 -11.785   2.068  1.00  0.00     0.039 A 
HETATM   31  C   UNL     1      40.022 -12.530   2.359  1.00  0.00     0.068 A 
HETATM   32  C   UNL     1      39.455 -12.435   3.629  1.00  0.00     0.039 A 
HETATM   33  C   UNL     1      40.024 -11.610   4.600  1.00  0.00     0.032 A 
BRANCH  31  34
HETATM   34  O   UNL     1      39.365 -13.377   1.513  1.00  0.00    -0.352 OA
BRANCH  34  35
HETATM   35  C   UNL     1      40.159 -14.217   0.680  1.00  0.00     0.171 C 
HETATM   36  C   UNL     1      40.156 -15.606   1.291  1.00  0.00     0.034 C 
ENDBRANCH  34  35
ENDBRANCH  31  34
ENDBRANCH  25  28
ENDBRANCH  23  24
ENDBRANCH   1  23
BRANCH   5  37
HETATM   37  C   UNL     1      42.249  -8.861  11.904  1.00  0.00     0.045 A 
HETATM   38  C   UNL     1      43.033  -7.927  12.616  1.00  0.00     0.032 A 
HETATM   39  C   UNL     1      42.804  -7.630  13.967  1.00  0.00     0.026 A 
HETATM   40  C   UNL     1      41.765  -8.253  14.640  1.00  0.00     0.034 A 
HETATM   41 CL   UNL     1      41.473  -7.897  16.294  1.00  0.00    -0.084 Cl
HETATM   42  C   UNL     1      40.966  -9.169  13.971  1.00  0.00     0.026 A 
HETATM   43  C   UNL     1      41.212  -9.473  12.622  1.00  0.00     0.032 A 
ENDBRANCH   5  37
TORSDOF 11
ENDMDL
MODEL 7
REMARK VINA RESULT:      -8.1      1.925      2.475
REMARK  11 active torsions:
REMARK  status: ('A' for Active; 'I' for Inactive)
REMARK    1  A    between atoms: C_2  and  O_3 
REMARK    2  A    between atoms: O_3  and  C_4 
REMARK    3  A    between atoms: C_7  and  N_8 
REMARK       I    between atoms: N_8  and  C_9 
REMARK    4  A    between atoms: C_9  and  C_10 
REMARK    5  A    between atoms: C_10  and  C_11 
REMARK    6  A    between atoms: N_12  and  C_13 
REMARK    7  A    between atoms: C_13  and  C_14 
REMARK    8  A    between atoms: C_14  and  C_15 
REMARK    9  A    between atoms: C_15  and  N_16 
REMARK   10  A    between atoms: C_20  and  C_21 
REMARK       I    between atoms: C_21  and  N_22 
REMARK   11  A    between atoms: N_28  and  C_29 
ROOT
HETATM    1  C   UNL     1      42.822 -11.935   6.496  1.00  0.00     0.188 C 
HETATM    2  N   UNL     1      41.784 -12.076   5.477  1.00  0.00    -0.344 N 
HETATM    3  C   UNL     1      41.595 -13.450   5.160  1.00  0.00     0.184 C 
HETATM    4  S   UNL     1      40.269 -13.986   4.292  1.00  0.00    -0.040 SA
HETATM    5  N   UNL     1      42.678 -14.157   5.685  1.00  0.00    -0.257 N 
HETATM    6  C   UNL     1      43.542 -13.258   6.291  1.00  0.00     0.254 C 
HETATM    7  O   UNL     1      44.718 -13.427   6.588  1.00  0.00    -0.270 OA
ENDROOT
BRANCH   2   8
HETATM    8  C   UNL     1      40.850 -10.974   5.198  1.00  0.00     0.128 C 
BRANCH   8   9
HETATM    9  C   UNL     1      41.081 -10.290   3.845  1.00  0.00     0.048 C 
BRANCH   9  10
HETATM   10  C   UNL     1      39.834  -9.952   3.028  1.00  0.00     0.236 C 
BRANCH  10  11
HETATM   11  N   UNL     1      39.846 -10.505   1.617  1.00  0.00    -0.071 N 
HETATM   12  H   UNL     1      39.570  -9.751   0.967  1.00  0.00     0.279 HD
HETATM   13  C   UNL     1      41.212 -11.016   1.217  1.00  0.00     0.235 C 
HETATM   14  C   UNL     1      41.179 -11.578  -0.199  1.00  0.00     0.042 C 
HETATM   15  C   UNL     1      40.142 -12.691  -0.351  1.00  0.00     0.081 C 
HETATM   16  C   UNL     1      38.769 -12.192   0.102  1.00  0.00     0.042 C 
HETATM   17  C   UNL     1      38.775 -11.578   1.496  1.00  0.00     0.235 C 
BRANCH  15  18
HETATM   18  C   UNL     1      40.578 -13.921   0.435  1.00  0.00     0.219 C 
HETATM   19  N   UNL     1      39.692 -14.952   0.449  1.00  0.00    -0.370 N 
HETATM   20  H   UNL     1      38.702 -14.820   0.277  1.00  0.00     0.159 HD
HETATM   21  H   UNL     1      39.939 -15.753   1.023  1.00  0.00     0.159 HD
HETATM   22  O   UNL     1      41.691 -14.031   0.932  1.00  0.00    -0.273 OA
ENDBRANCH  15  18
ENDBRANCH  10  11
ENDBRANCH   9  10
ENDBRANCH   8   9
ENDBRANCH   2   8
BRANCH   1  23
HETATM   23  C   UNL     1      43.761 -10.749   6.348  1.00  0.00     0.138 C 
BRANCH  23  24
HETATM   24  C   UNL     1      44.163 -10.233   7.719  1.00  0.00     0.224 C 
HETATM   25  N   UNL     1      43.092 -10.114   8.579  1.00  0.00    -0.327 N 
HETATM   26  H   UNL     1      42.169 -10.269   8.195  1.00  0.00     0.169 HD
HETATM   27  O   UNL     1      45.339  -9.977   7.949  1.00  0.00    -0.273 OA
BRANCH  25  28
HETATM   28  C   UNL     1      43.092  -9.633   9.902  1.00  0.00     0.034 A 
HETATM   29  C   UNL     1      43.175 -10.437  11.037  1.00  0.00     0.032 A 
HETATM   30  C   UNL     1      43.188  -9.862  12.318  1.00  0.00     0.039 A 
HETATM   31  C   UNL     1      43.112  -8.479  12.471  1.00  0.00     0.068 A 
HETATM   32  C   UNL     1      43.021  -7.675  11.336  1.00  0.00     0.039 A 
HETATM   33  C   UNL     1      43.012  -8.244  10.062  1.00  0.00     0.032 A 
BRANCH  31  34
HETATM   34  O   UNL     1      43.115  -7.789  13.649  1.00  0.00    -0.352 OA
BRANCH  34  35
HETATM   35  C   UNL     1      41.997  -7.966  14.515  1.00  0.00     0.171 C 
HETATM   36  C   UNL     1      42.205  -7.069  15.722  1.00  0.00     0.034 C 
ENDBRANCH  34  35
ENDBRANCH  31  34
ENDBRANCH  25  28
ENDBRANCH  23  24
ENDBRANCH   1  23
BRANCH   5  37
HETATM   37  C   UNL     1      43.008 -15.556   5.586  1.00  0.00     0.045 A 
HETATM   38  C   UNL     1      42.941 -16.377   6.733  1.00  0.00     0.032 A 
HETATM   39  C   UNL     1      43.261 -17.742   6.699  1.00  0.00     0.026 A 
HETATM   40  C   UNL     1      43.644 -18.327   5.503  1.00  0.00     0.034 A 
HETATM   41 CL   UNL     1      44.038 -19.998   5.447  1.00  0.00    -0.084 Cl
HETATM   42  C   UNL     1      43.713 -17.555   4.352  1.00  0.00     0.026 A 
HETATM   43  C   UNL     1      43.405 -16.185   4.397  1.00  0.00     0.032 A 
ENDBRANCH   5  37
TORSDOF 11
ENDMDL
MODEL 8
REMARK VINA RESULT:      -8.0      3.746      9.399
REMARK  11 active torsions:
REMARK  status: ('A' for Active; 'I' for Inactive)
REMARK    1  A    between atoms: C_2  and  O_3 
REMARK    2  A    between atoms: O_3  and  C_4 
REMARK    3  A    between atoms: C_7  and  N_8 
REMARK       I    between atoms: N_8  and  C_9 
REMARK    4  A    between atoms: C_9  and  C_10 
REMARK    5  A    between atoms: C_10  and  C_11 
REMARK    6  A    between atoms: N_12  and  C_13 
REMARK    7  A    between atoms: C_13  and  C_14 
REMARK    8  A    between atoms: C_14  and  C_15 
REMARK    9  A    between atoms: C_15  and  N_16 
REMARK   10  A    between atoms: C_20  and  C_21 
REMARK       I    between atoms: C_21  and  N_22 
REMARK   11  A    between atoms: N_28  and  C_29 
ROOT
HETATM    1  C   UNL     1      41.928 -10.286   6.693  1.00  0.00     0.188 C 
HETATM    2  N   UNL     1      43.384 -10.408   6.712  1.00  0.00    -0.344 N 
HETATM    3  C   UNL     1      43.878 -10.150   8.020  1.00  0.00     0.184 C 
HETATM    4  S   UNL     1      45.445 -10.529   8.468  1.00  0.00    -0.040 SA
HETATM    5  N   UNL     1      42.846  -9.558   8.752  1.00  0.00    -0.257 N 
HETATM    6  C   UNL     1      41.742  -9.417   7.926  1.00  0.00     0.254 C 
HETATM    7  O   UNL     1      40.771  -8.687   8.084  1.00  0.00    -0.270 OA
ENDROOT
BRANCH   2   8
HETATM    8  C   UNL     1      44.094 -11.101   5.626  1.00  0.00     0.128 C 
BRANCH   8   9
HETATM    9  C   UNL     1      43.667 -12.562   5.437  1.00  0.00     0.048 C 
BRANCH   9  10
HETATM   10  C   UNL     1      43.777 -13.470   6.662  1.00  0.00     0.236 C 
BRANCH  10  11
HETATM   11  N   UNL     1      42.850 -14.669   6.632  1.00  0.00    -0.071 N 
HETATM   12  H   UNL     1      42.847 -15.105   7.569  1.00  0.00     0.279 HD
HETATM   13  C   UNL     1      41.432 -14.284   6.273  1.00  0.00     0.235 C 
HETATM   14  C   UNL     1      40.536 -15.516   6.238  1.00  0.00     0.042 C 
HETATM   15  C   UNL     1      41.051 -16.573   5.262  1.00  0.00     0.081 C 
HETATM   16  C   UNL     1      42.502 -16.927   5.592  1.00  0.00     0.042 C 
HETATM   17  C   UNL     1      43.418 -15.713   5.683  1.00  0.00     0.235 C 
BRANCH  15  18
HETATM   18  C   UNL     1      40.909 -16.075   3.829  1.00  0.00     0.219 C 
HETATM   19  N   UNL     1      41.618 -16.763   2.895  1.00  0.00    -0.370 N 
HETATM   20  H   UNL     1      42.435 -17.314   3.131  1.00  0.00     0.159 HD
HETATM   21  H   UNL     1      41.585 -16.403   1.946  1.00  0.00     0.159 HD
HETATM   22  O   UNL     1      40.129 -15.188   3.509  1.00  0.00    -0.273 OA
ENDBRANCH  15  18
ENDBRANCH  10  11
ENDBRANCH   9  10
ENDBRANCH   8   9
ENDBRANCH   2   8
BRANCH   1  23
HETATM   23  C   UNL     1      41.316  -9.652   5.454  1.00  0.00     0.138 C 
BRANCH  23  24
HETATM   24  C   UNL     1      40.615 -10.712   4.623  1.00  0.00     0.224 C 
HETATM   25  N   UNL     1      41.043 -10.732   3.313  1.00  0.00    -0.327 N 
HETATM   26  H   UNL     1      41.673  -9.997   3.019  1.00  0.00     0.169 HD
HETATM   27  O   UNL     1      39.771 -11.432   5.145  1.00  0.00    -0.273 OA
BRANCH  25  28
HETATM   28  C   UNL     1      40.584 -11.551   2.263  1.00  0.00     0.034 A 
HETATM   29  C   UNL     1      39.321 -11.455   1.679  1.00  0.00     0.032 A 
HETATM   30  C   UNL     1      38.960 -12.304   0.621  1.00  0.00     0.039 A 
HETATM   31  C   UNL     1      39.858 -13.258   0.145  1.00  0.00     0.068 A 
HETATM   32  C   UNL     1      41.117 -13.359   0.733  1.00  0.00     0.039 A 
HETATM   33  C   UNL     1      41.480 -12.513   1.782  1.00  0.00     0.032 A 
BRANCH  31  34
HETATM   34  O   UNL     1      39.640 -14.143  -0.872  1.00  0.00    -0.352 OA
BRANCH  34  35
HETATM   35  C   UNL     1      40.197 -13.828  -2.145  1.00  0.00     0.171 C 
HETATM   36  C   UNL     1      39.062 -13.366  -3.041  1.00  0.00     0.034 C 
ENDBRANCH  34  35
ENDBRANCH  31  34
ENDBRANCH  25  28
ENDBRANCH  23  24
ENDBRANCH   1  23
BRANCH   5  37
HETATM   37  C   UNL     1      42.841  -9.041  10.096  1.00  0.00     0.045 A 
HETATM   38  C   UNL     1      42.805  -9.931  11.192  1.00  0.00     0.032 A 
HETATM   39  C   UNL     1      42.787  -9.485  12.521  1.00  0.00     0.026 A 
HETATM   40  C   UNL     1      42.822  -8.126  12.790  1.00  0.00     0.034 A 
HETATM   41 CL   UNL     1      42.802  -7.567  14.413  1.00  0.00    -0.084 Cl
HETATM   42  C   UNL     1      42.868  -7.220  11.740  1.00  0.00     0.026 A 
HETATM   43  C   UNL     1      42.870  -7.674  10.411  1.00  0.00     0.032 A 
ENDBRANCH   5  37
TORSDOF 11
ENDMDL
MODEL 9
REMARK VINA RESULT:      -7.9     17.770     20.351
REMARK  11 active torsions:
REMARK  status: ('A' for Active; 'I' for Inactive)
REMARK    1  A    between atoms: C_2  and  O_3 
REMARK    2  A    between atoms: O_3  and  C_4 
REMARK    3  A    between atoms: C_7  and  N_8 
REMARK       I    between atoms: N_8  and  C_9 
REMARK    4  A    between atoms: C_9  and  C_10 
REMARK    5  A    between atoms: C_10  and  C_11 
REMARK    6  A    between atoms: N_12  and  C_13 
REMARK    7  A    between atoms: C_13  and  C_14 
REMARK    8  A    between atoms: C_14  and  C_15 
REMARK    9  A    between atoms: C_15  and  N_16 
REMARK   10  A    between atoms: C_20  and  C_21 
REMARK       I    between atoms: C_21  and  N_22 
REMARK   11  A    between atoms: N_28  and  C_29 
ROOT
HETATM    1  C   UNL     1      43.017 -30.979   3.168  1.00  0.00     0.188 C 
HETATM    2  N   UNL     1      43.935 -31.630   4.101  1.00  0.00    -0.344 N 
HETATM    3  C   UNL     1      43.214 -32.494   4.970  1.00  0.00     0.184 C 
HETATM    4  S   UNL     1      43.981 -33.634   5.925  1.00  0.00    -0.040 SA
HETATM    5  N   UNL     1      41.859 -32.181   4.849  1.00  0.00    -0.257 N 
HETATM    6  C   UNL     1      41.725 -31.131   3.954  1.00  0.00     0.254 C 
HETATM    7  O   UNL     1      40.769 -30.379   3.811  1.00  0.00    -0.270 OA
ENDROOT
BRANCH   2   8
HETATM    8  C   UNL     1      45.382 -31.658   3.836  1.00  0.00     0.128 C 
BRANCH   8   9
HETATM    9  C   UNL     1      45.746 -32.140   2.427  1.00  0.00     0.048 C 
BRANCH   9  10
HETATM   10  C   UNL     1      47.169 -31.848   1.950  1.00  0.00     0.236 C 
BRANCH  10  11
HETATM   11  N   UNL     1      47.245 -30.947   0.734  1.00  0.00    -0.071 N 
HETATM   12  H   UNL     1      46.297 -30.595   0.526  1.00  0.00     0.279 HD
HETATM   13  C   UNL     1      48.163 -29.766   0.957  1.00  0.00     0.235 C 
HETATM   14  C   UNL     1      48.227 -28.895  -0.292  1.00  0.00     0.042 C 
HETATM   15  C   UNL     1      48.682 -29.683  -1.520  1.00  0.00     0.081 C 
HETATM   16  C   UNL     1      47.786 -30.907  -1.717  1.00  0.00     0.042 C 
HETATM   17  C   UNL     1      47.661 -31.776  -0.472  1.00  0.00     0.235 C 
BRANCH  15  18
HETATM   18  C   UNL     1      50.146 -30.078  -1.372  1.00  0.00     0.219 C 
HETATM   19  N   UNL     1      50.776 -30.435  -2.523  1.00  0.00    -0.370 N 
HETATM   20  H   UNL     1      50.272 -30.763  -3.339  1.00  0.00     0.159 HD
HETATM   21  H   UNL     1      51.732 -30.765  -2.432  1.00  0.00     0.159 HD
HETATM   22  O   UNL     1      50.757 -29.981  -0.316  1.00  0.00    -0.273 OA
ENDBRANCH  15  18
ENDBRANCH  10  11
ENDBRANCH   9  10
ENDBRANCH   8   9
ENDBRANCH   2   8
BRANCH   1  23
HETATM   23  C   UNL     1      43.310 -29.526   2.831  1.00  0.00     0.138 C 
BRANCH  23  24
HETATM   24  C   UNL     1      43.095 -29.284   1.347  1.00  0.00     0.224 C 
HETATM   25  N   UNL     1      44.230 -29.517   0.600  1.00  0.00    -0.327 N 
HETATM   26  H   UNL     1      45.086 -29.708   1.103  1.00  0.00     0.169 HD
HETATM   27  O   UNL     1      41.995 -28.924   0.946  1.00  0.00    -0.273 OA
BRANCH  25  28
HETATM   28  C   UNL     1      44.401 -29.354  -0.789  1.00  0.00     0.034 A 
HETATM   29  C   UNL     1      44.879 -28.194  -1.397  1.00  0.00     0.032 A 
HETATM   30  C   UNL     1      45.035 -28.134  -2.790  1.00  0.00     0.039 A 
HETATM   31  C   UNL     1      44.708 -29.231  -3.585  1.00  0.00     0.068 A 
HETATM   32  C   UNL     1      44.223 -30.388  -2.978  1.00  0.00     0.039 A 
HETATM   33  C   UNL     1      44.071 -30.452  -1.592  1.00  0.00     0.032 A 
BRANCH  31  34
HETATM   34  O   UNL     1      44.810 -29.311  -4.944  1.00  0.00    -0.352 OA
BRANCH  34  35
HETATM   35  C   UNL     1      44.292 -30.480  -5.573  1.00  0.00     0.171 C 
HETATM   36  C   UNL     1      45.473 -31.322  -6.020  1.00  0.00     0.034 C 
ENDBRANCH  34  35
ENDBRANCH  31  34
ENDBRANCH  25  28
ENDBRANCH  23  24
ENDBRANCH   1  23
BRANCH   5  37
HETATM   37  C   UNL     1      40.718 -32.706   5.555  1.00  0.00     0.045 A 
HETATM   38  C   UNL     1      40.385 -32.197   6.829  1.00  0.00     0.032 A 
HETATM   39  C   UNL     1      39.294 -32.677   7.567  1.00  0.00     0.026 A 
HETATM   40  C   UNL     1      38.492 -33.676   7.038  1.00  0.00     0.034 A 
HETATM   41 CL   UNL     1      37.152 -34.272   7.931  1.00  0.00    -0.084 Cl
HETATM   42  C   UNL     1      38.783 -34.195   5.784  1.00  0.00     0.026 A 
HETATM   43  C   UNL     1      39.886 -33.720   5.057  1.00  0.00     0.032 A 
ENDBRANCH   5  37
TORSDOF 11
ENDMDL
MODEL 10
REMARK VINA RESULT:      -7.8      3.293      4.741
REMARK  11 active torsions:
REMARK  status: ('A' for Active; 'I' for Inactive)
REMARK    1  A    between atoms: C_2  and  O_3 
REMARK    2  A    between atoms: O_3  and  C_4 
REMARK    3  A    between atoms: C_7  and  N_8 
REMARK       I    between atoms: N_8  and  C_9 
REMARK    4  A    between atoms: C_9  and  C_10 
REMARK    5  A    between atoms: C_10  and  C_11 
REMARK    6  A    between atoms: N_12  and  C_13 
REMARK    7  A    between atoms: C_13  and  C_14 
REMARK    8  A    between atoms: C_14  and  C_15 
REMARK    9  A    between atoms: C_15  and  N_16 
REMARK   10  A    between atoms: C_20  and  C_21 
REMARK       I    between atoms: C_21  and  N_22 
REMARK   11  A    between atoms: N_28  and  C_29 
ROOT
HETATM    1  C   UNL     1      42.389 -12.580   5.742  1.00  0.00     0.188 C 
HETATM    2  N   UNL     1      41.897 -12.806   4.384  1.00  0.00    -0.344 N 
HETATM    3  C   UNL     1      41.913 -14.196   4.086  1.00  0.00     0.184 C 
HETATM    4  S   UNL     1      41.110 -14.828   2.761  1.00  0.00    -0.040 SA
HETATM    5  N   UNL     1      42.688 -14.829   5.059  1.00  0.00    -0.257 N 
HETATM    6  C   UNL     1      43.174 -13.867   5.932  1.00  0.00     0.254 C 
HETATM    7  O   UNL     1      44.113 -13.964   6.713  1.00  0.00    -0.270 OA
ENDROOT
BRANCH   2   8
HETATM    8  C   UNL     1      41.136 -11.764   3.678  1.00  0.00     0.128 C 
BRANCH   8   9
HETATM    9  C   UNL     1      39.889 -11.287   4.432  1.00  0.00     0.048 C 
BRANCH   9  10
HETATM   10  C   UNL     1      38.855 -10.506   3.621  1.00  0.00     0.236 C 
BRANCH  10  11
HETATM   11  N   UNL     1      38.797  -9.026   3.947  1.00  0.00    -0.071 N 
HETATM   12  H   UNL     1      38.590  -8.507   3.078  1.00  0.00     0.279 HD
HETATM   13  C   UNL     1      37.728  -8.709   4.968  1.00  0.00     0.235 C 
HETATM   14  C   UNL     1      37.712  -7.218   5.281  1.00  0.00     0.042 C 
HETATM   15  C   UNL     1      39.069  -6.721   5.777  1.00  0.00     0.081 C 
HETATM   16  C   UNL     1      40.161  -7.086   4.770  1.00  0.00     0.042 C 
HETATM   17  C   UNL     1      40.174  -8.563   4.397  1.00  0.00     0.235 C 
BRANCH  15  18
HETATM   18  C   UNL     1      39.364  -7.299   7.156  1.00  0.00     0.219 C 
HETATM   19  N   UNL     1      40.678  -7.353   7.500  1.00  0.00    -0.370 N 
HETATM   20  H   UNL     1      41.421  -7.359   6.810  1.00  0.00     0.159 HD
HETATM   21  H   UNL     1      40.895  -7.796   8.388  1.00  0.00     0.159 HD
HETATM   22  O   UNL     1      38.485  -7.596   7.954  1.00  0.00    -0.273 OA
ENDBRANCH  15  18
ENDBRANCH  10  11
ENDBRANCH   9  10
ENDBRANCH   8   9
ENDBRANCH   2   8
BRANCH   1  23
HETATM   23  C   UNL     1      43.257 -11.349   5.953  1.00  0.00     0.138 C 
BRANCH  23  24
HETATM   24  C   UNL     1      42.753 -10.559   7.147  1.00  0.00     0.224 C 
HETATM   25  N   UNL     1      43.717 -10.383   8.116  1.00  0.00    -0.327 N 
HETATM   26  H   UNL     1      44.594 -10.872   7.993  1.00  0.00     0.169 HD
HETATM   27  O   UNL     1      41.595 -10.156   7.162  1.00  0.00    -0.273 OA
BRANCH  25  28
HETATM   28  C   UNL     1      43.587  -9.740   9.363  1.00  0.00     0.034 A 
HETATM   29  C   UNL     1      43.436  -8.365   9.532  1.00  0.00     0.032 A 
HETATM   30  C   UNL     1      43.293  -7.817  10.817  1.00  0.00     0.039 A 
HETATM   31  C   UNL     1      43.307  -8.642  11.940  1.00  0.00     0.068 A 
HETATM   32  C   UNL     1      43.466 -10.016  11.771  1.00  0.00     0.039 A 
HETATM   33  C   UNL     1      43.604 -10.563  10.495  1.00  0.00     0.032 A 
BRANCH  31  34
HETATM   34  O   UNL     1      43.179  -8.247  13.241  1.00  0.00    -0.352 OA
BRANCH  34  35
HETATM   35  C   UNL     1      42.181  -8.893  14.027  1.00  0.00     0.171 C 
HETATM   36  C   UNL     1      40.947  -8.009  14.017  1.00  0.00     0.034 C 
ENDBRANCH  34  35
ENDBRANCH  31  34
ENDBRANCH  25  28
ENDBRANCH  23  24
ENDBRANCH   1  23
BRANCH   5  37
HETATM   37  C   UNL     1      43.079 -16.210   5.181  1.00  0.00     0.045 A 
HETATM   38  C   UNL     1      43.718 -16.857   4.101  1.00  0.00     0.032 A 
HETATM   39  C   UNL     1      44.110 -18.203   4.159  1.00  0.00     0.026 A 
HETATM   40  C   UNL     1      43.886 -18.935   5.313  1.00  0.00     0.034 A 
HETATM   41 CL   UNL     1      44.362 -20.582   5.397  1.00  0.00    -0.084 Cl
HETATM   42  C   UNL     1      43.269 -18.330   6.399  1.00  0.00     0.026 A 
HETATM   43  C   UNL     1      42.865 -16.987   6.329  1.00  0.00     0.032 A 
ENDBRANCH   5  37
TORSDOF 11
ENDMDL
