MODEL 1
REMARK VINA RESULT:      -8.8      0.000      0.000
REMARK  3 active torsions:
REMARK  status: ('A' for Active; 'I' for Inactive)
REMARK    1  A    between atoms: C_6  and  N_7 
REMARK       I    between atoms: N_7  and  C_8 
REMARK    2  A    between atoms: C_8  and  C_9 
REMARK    3  A    between atoms: C_9  and  C_10 
ROOT
HETATM    1  C   UNL     1      40.391 -14.069   0.404  1.00  0.00     0.286 C 
HETATM    2  N   UNL     1      40.932 -13.815  -0.998  1.00  0.00    -0.056 N 
HETATM    3  H   UNL     1      41.578 -13.000  -0.900  1.00  0.00     0.278 HD
HETATM    4  H   UNL     1      41.524 -14.591  -1.314  1.00  0.00     0.278 HD
HETATM    5  C   UNL     1      39.893 -13.465  -2.025  1.00  0.00     0.209 C 
HETATM    6  C   UNL     1      39.011 -12.303  -1.503  1.00  0.00     0.115 C 
HETATM    7  N   UNL     1      38.548 -12.498  -0.127  1.00  0.00    -0.353 N 
HETATM    8  C   UNL     1      39.354 -13.025   0.855  1.00  0.00     0.249 C 
HETATM    9  O   UNL     1      39.155 -12.751   2.033  1.00  0.00    -0.271 OA
HETATM   10  C   UNL     1      39.102 -14.718  -2.403  1.00  0.00     0.035 C 
HETATM   11  C   UNL     1      37.972 -14.383  -3.373  1.00  0.00     0.002 C 
HETATM   12  C   UNL     1      37.056 -13.309  -2.797  1.00  0.00     0.002 C 
HETATM   13  C   UNL     1      37.829 -12.039  -2.445  1.00  0.00     0.027 C 
HETATM   14  H   UNL     1      37.904 -11.804   0.248  1.00  0.00     0.163 HD
ENDROOT
BRANCH   1  15
HETATM   15  C   UNL     1      41.518 -14.233   1.430  1.00  0.00     0.146 C 
BRANCH  15  16
HETATM   16  C   UNL     1      41.449 -15.563   2.148  1.00  0.00     0.224 C 
HETATM   17  N   UNL     1      42.671 -16.187   2.217  1.00  0.00    -0.327 N 
HETATM   18  H   UNL     1      43.324 -15.960   1.472  1.00  0.00     0.169 HD
HETATM   19  O   UNL     1      40.384 -15.919   2.648  1.00  0.00    -0.273 OA
BRANCH  17  20
HETATM   20  C   UNL     1      43.097 -17.253   3.047  1.00  0.00     0.040 A 
HETATM   21  C   UNL     1      43.448 -17.177   4.406  1.00  0.00    -0.035 A 
HETATM   22  C   UNL     1      43.878 -18.353   5.063  1.00  0.00     0.015 A 
HETATM   23  C   UNL     1      43.453 -15.926   5.235  1.00  0.00     0.050 C 
HETATM   24  C   UNL     1      44.006 -19.576   4.395  1.00  0.00    -0.061 A 
HETATM   25  C   UNL     1      44.538 -20.784   5.106  1.00  0.00     0.048 C 
HETATM   26  C   UNL     1      43.707 -19.627   3.038  1.00  0.00     0.009 A 
HETATM   27  C   UNL     1      43.257 -18.481   2.377  1.00  0.00     0.030 A 
ENDBRANCH  17  20
ENDBRANCH  15  16
ENDBRANCH   1  15
TORSDOF 3
ENDMDL
MODEL 2
REMARK VINA RESULT:      -8.6      4.703      7.744
REMARK  3 active torsions:
REMARK  status: ('A' for Active; 'I' for Inactive)
REMARK    1  A    between atoms: C_6  and  N_7 
REMARK       I    between atoms: N_7  and  C_8 
REMARK    2  A    between atoms: C_8  and  C_9 
REMARK    3  A    between atoms: C_9  and  C_10 
ROOT
HETATM    1  C   UNL     1      42.792 -11.861   6.029  1.00  0.00     0.286 C 
HETATM    2  N   UNL     1      43.624 -12.455   7.160  1.00  0.00    -0.056 N 
HETATM    3  H   UNL     1      42.935 -12.914   7.796  1.00  0.00     0.278 HD
HETATM    4  H   UNL     1      44.225 -13.214   6.820  1.00  0.00     0.278 HD
HETATM    5  C   UNL     1      44.406 -11.455   7.964  1.00  0.00     0.209 C 
HETATM    6  C   UNL     1      43.467 -10.319   8.442  1.00  0.00     0.115 C 
HETATM    7  N   UNL     1      42.605  -9.792   7.382  1.00  0.00    -0.353 N 
HETATM    8  C   UNL     1      42.009 -10.603   6.444  1.00  0.00     0.249 C 
HETATM    9  O   UNL     1      40.968 -10.257   5.898  1.00  0.00    -0.271 OA
HETATM   10  C   UNL     1      45.604 -10.964   7.150  1.00  0.00     0.035 C 
HETATM   11  C   UNL     1      46.366  -9.874   7.897  1.00  0.00     0.002 C 
HETATM   12  C   UNL     1      45.446  -8.717   8.271  1.00  0.00     0.002 C 
HETATM   13  C   UNL     1      44.261  -9.190   9.113  1.00  0.00     0.027 C 
HETATM   14  H   UNL     1      42.018  -8.994   7.616  1.00  0.00     0.163 HD
ENDROOT
BRANCH   1  15
HETATM   15  C   UNL     1      41.882 -12.909   5.378  1.00  0.00     0.146 C 
BRANCH  15  16
HETATM   16  C   UNL     1      42.643 -13.829   4.446  1.00  0.00     0.224 C 
HETATM   17  N   UNL     1      42.537 -15.149   4.808  1.00  0.00    -0.327 N 
HETATM   18  H   UNL     1      42.378 -15.323   5.797  1.00  0.00     0.169 HD
HETATM   19  O   UNL     1      43.197 -13.353   3.457  1.00  0.00    -0.273 OA
BRANCH  17  20
HETATM   20  C   UNL     1      42.816 -16.318   4.058  1.00  0.00     0.040 A 
HETATM   21  C   UNL     1      42.142 -16.764   2.907  1.00  0.00    -0.035 A 
HETATM   22  C   UNL     1      42.551 -17.978   2.309  1.00  0.00     0.015 A 
HETATM   23  C   UNL     1      40.971 -16.079   2.264  1.00  0.00     0.050 C 
HETATM   24  C   UNL     1      43.572 -18.768   2.849  1.00  0.00    -0.061 A 
HETATM   25  C   UNL     1      43.927 -20.087   2.230  1.00  0.00     0.048 C 
HETATM   26  C   UNL     1      44.195 -18.343   4.017  1.00  0.00     0.009 A 
HETATM   27  C   UNL     1      43.822 -17.135   4.609  1.00  0.00     0.030 A 
ENDBRANCH  17  20
ENDBRANCH  15  16
ENDBRANCH   1  15
TORSDOF 3
ENDMDL
MODEL 3
REMARK VINA RESULT:      -8.4      3.987      5.461
REMARK  3 active torsions:
REMARK  status: ('A' for Active; 'I' for Inactive)
REMARK    1  A    between atoms: C_6  and  N_7 
REMARK       I    between atoms: N_7  and  C_8 
REMARK    2  A    between atoms: C_8  and  C_9 
REMARK    3  A    between atoms: C_9  and  C_10 
ROOT
HETATM    1  C   UNL     1      41.962 -12.911   6.136  1.00  0.00     0.286 C 
HETATM    2  N   UNL     1      40.508 -13.355   6.241  1.00  0.00    -0.056 N 
HETATM    3  H   UNL     1      40.454 -14.249   5.702  1.00  0.00     0.278 HD
HETATM    4  H   UNL     1      40.266 -13.607   7.206  1.00  0.00     0.278 HD
HETATM    5  C   UNL     1      39.509 -12.398   5.657  1.00  0.00     0.209 C 
HETATM    6  C   UNL     1      39.920 -12.030   4.209  1.00  0.00     0.115 C 
HETATM    7  N   UNL     1      41.335 -11.676   4.079  1.00  0.00    -0.353 N 
HETATM    8  C   UNL     1      42.329 -12.350   4.750  1.00  0.00     0.249 C 
HETATM    9  O   UNL     1      43.468 -12.383   4.300  1.00  0.00    -0.271 OA
HETATM   10  C   UNL     1      39.354 -11.189   6.581  1.00  0.00     0.035 C 
HETATM   11  C   UNL     1      38.419 -10.148   5.972  1.00  0.00     0.002 C 
HETATM   12  C   UNL     1      38.897  -9.724   4.587  1.00  0.00     0.002 C 
HETATM   13  C   UNL     1      39.024 -10.920   3.645  1.00  0.00     0.027 C 
HETATM   14  H   UNL     1      41.650 -11.353   3.166  1.00  0.00     0.163 HD
ENDROOT
BRANCH   1  15
HETATM   15  C   UNL     1      42.930 -14.013   6.578  1.00  0.00     0.146 C 
BRANCH  15  16
HETATM   16  C   UNL     1      42.565 -15.363   5.999  1.00  0.00     0.224 C 
HETATM   17  N   UNL     1      43.029 -15.529   4.717  1.00  0.00    -0.327 N 
HETATM   18  H   UNL     1      43.146 -14.675   4.178  1.00  0.00     0.169 HD
HETATM   19  O   UNL     1      41.982 -16.181   6.709  1.00  0.00    -0.273 OA
BRANCH  17  20
HETATM   20  C   UNL     1      43.179 -16.713   3.955  1.00  0.00     0.040 A 
HETATM   21  C   UNL     1      42.440 -17.087   2.819  1.00  0.00    -0.035 A 
HETATM   22  C   UNL     1      42.719 -18.330   2.206  1.00  0.00     0.015 A 
HETATM   23  C   UNL     1      41.324 -16.291   2.207  1.00  0.00     0.050 C 
HETATM   24  C   UNL     1      43.673 -19.216   2.718  1.00  0.00    -0.061 A 
HETATM   25  C   UNL     1      43.887 -20.559   2.085  1.00  0.00     0.048 C 
HETATM   26  C   UNL     1      44.360 -18.859   3.872  1.00  0.00     0.009 A 
HETATM   27  C   UNL     1      44.116 -17.625   4.479  1.00  0.00     0.030 A 
ENDBRANCH  17  20
ENDBRANCH  15  16
ENDBRANCH   1  15
TORSDOF 3
ENDMDL
MODEL 4
REMARK VINA RESULT:      -8.1      4.335      7.838
REMARK  3 active torsions:
REMARK  status: ('A' for Active; 'I' for Inactive)
REMARK    1  A    between atoms: C_6  and  N_7 
REMARK       I    between atoms: N_7  and  C_8 
REMARK    2  A    between atoms: C_8  and  C_9 
REMARK    3  A    between atoms: C_9  and  C_10 
ROOT
HETATM    1  C   UNL     1      41.481 -15.632   4.819  1.00  0.00     0.286 C 
HETATM    2  N   UNL     1      42.991 -15.575   5.014  1.00  0.00    -0.056 N 
HETATM    3  H   UNL     1      43.308 -14.745   4.464  1.00  0.00     0.278 HD
HETATM    4  H   UNL     1      43.232 -15.360   5.988  1.00  0.00     0.278 HD
HETATM    5  C   UNL     1      43.741 -16.777   4.516  1.00  0.00     0.209 C 
HETATM    6  C   UNL     1      43.336 -17.077   3.050  1.00  0.00     0.115 C 
HETATM    7  N   UNL     1      41.888 -17.057   2.831  1.00  0.00    -0.353 N 
HETATM    8  C   UNL     1      41.065 -16.126   3.421  1.00  0.00     0.249 C 
HETATM    9  O   UNL     1      40.003 -15.816   2.895  1.00  0.00    -0.271 OA
HETATM   10  C   UNL     1      43.519 -17.953   5.469  1.00  0.00     0.035 C 
HETATM   11  C   UNL     1      44.186 -19.220   4.943  1.00  0.00     0.002 C 
HETATM   12  C   UNL     1      43.699 -19.555   3.538  1.00  0.00     0.002 C 
HETATM   13  C   UNL     1      43.945 -18.400   2.567  1.00  0.00     0.027 C 
HETATM   14  H   UNL     1      41.556 -17.319   1.905  1.00  0.00     0.163 HD
ENDROOT
BRANCH   1  15
HETATM   15  C   UNL     1      40.808 -14.301   5.175  1.00  0.00     0.146 C 
BRANCH  15  16
HETATM   16  C   UNL     1      41.781 -13.142   5.150  1.00  0.00     0.224 C 
HETATM   17  N   UNL     1      41.938 -12.561   6.384  1.00  0.00    -0.327 N 
HETATM   18  H   UNL     1      41.144 -12.641   7.013  1.00  0.00     0.169 HD
HETATM   19  O   UNL     1      42.373 -12.881   4.105  1.00  0.00    -0.273 OA
BRANCH  17  20
HETATM   20  C   UNL     1      42.953 -11.690   6.851  1.00  0.00     0.040 A 
HETATM   21  C   UNL     1      42.791 -10.366   7.296  1.00  0.00    -0.035 A 
HETATM   22  C   UNL     1      43.936  -9.641   7.701  1.00  0.00     0.015 A 
HETATM   23  C   UNL     1      41.492  -9.615   7.339  1.00  0.00     0.050 C 
HETATM   24  C   UNL     1      45.224 -10.184   7.633  1.00  0.00    -0.061 A 
HETATM   25  C   UNL     1      46.422  -9.358   7.999  1.00  0.00     0.048 C 
HETATM   26  C   UNL     1      45.377 -11.475   7.142  1.00  0.00     0.009 A 
HETATM   27  C   UNL     1      44.256 -12.216   6.759  1.00  0.00     0.030 A 
ENDBRANCH  17  20
ENDBRANCH  15  16
ENDBRANCH   1  15
TORSDOF 3
ENDMDL
MODEL 5
REMARK VINA RESULT:      -7.9      2.054      3.268
REMARK  3 active torsions:
REMARK  status: ('A' for Active; 'I' for Inactive)
REMARK    1  A    between atoms: C_6  and  N_7 
REMARK       I    between atoms: N_7  and  C_8 
REMARK    2  A    between atoms: C_8  and  C_9 
REMARK    3  A    between atoms: C_9  and  C_10 
ROOT
HETATM    1  C   UNL     1      39.468 -13.829  -0.938  1.00  0.00     0.286 C 
HETATM    2  N   UNL     1      38.760 -12.777  -0.092  1.00  0.00    -0.056 N 
HETATM    3  H   UNL     1      37.910 -13.253   0.284  1.00  0.00     0.278 HD
HETATM    4  H   UNL     1      39.316 -12.527   0.733  1.00  0.00     0.278 HD
HETATM    5  C   UNL     1      38.315 -11.554  -0.843  1.00  0.00     0.209 C 
HETATM    6  C   UNL     1      37.494 -11.975  -2.089  1.00  0.00     0.115 C 
HETATM    7  N   UNL     1      38.126 -13.041  -2.868  1.00  0.00    -0.353 N 
HETATM    8  C   UNL     1      38.765 -14.108  -2.278  1.00  0.00     0.249 C 
HETATM    9  O   UNL     1      38.856 -15.178  -2.867  1.00  0.00    -0.271 OA
HETATM   10  C   UNL     1      39.527 -10.681  -1.170  1.00  0.00     0.035 C 
HETATM   11  C   UNL     1      39.126  -9.478  -2.018  1.00  0.00     0.002 C 
HETATM   12  C   UNL     1      38.408  -9.918  -3.289  1.00  0.00     0.002 C 
HETATM   13  C   UNL     1      37.175 -10.764  -2.976  1.00  0.00     0.027 C 
HETATM   14  H   UNL     1      37.672 -13.310  -3.739  1.00  0.00     0.163 HD
ENDROOT
BRANCH   1  15
HETATM   15  C   UNL     1      39.723 -15.119  -0.150  1.00  0.00     0.146 C 
BRANCH  15  16
HETATM   16  C   UNL     1      40.495 -14.867   1.127  1.00  0.00     0.224 C 
HETATM   17  N   UNL     1      40.387 -15.905   2.021  1.00  0.00    -0.327 N 
HETATM   18  H   UNL     1      39.537 -16.456   1.953  1.00  0.00     0.169 HD
HETATM   19  O   UNL     1      41.176 -13.848   1.223  1.00  0.00    -0.273 OA
BRANCH  17  20
HETATM   20  C   UNL     1      41.178 -16.206   3.156  1.00  0.00     0.040 A 
HETATM   21  C   UNL     1      42.486 -16.722   3.162  1.00  0.00    -0.035 A 
HETATM   22  C   UNL     1      43.106 -16.986   4.405  1.00  0.00     0.015 A 
HETATM   23  C   UNL     1      43.289 -17.072   1.943  1.00  0.00     0.050 C 
HETATM   24  C   UNL     1      42.446 -16.790   5.623  1.00  0.00    -0.061 A 
HETATM   25  C   UNL     1      43.110 -17.153   6.919  1.00  0.00     0.048 C 
HETATM   26  C   UNL     1      41.135 -16.329   5.603  1.00  0.00     0.009 A 
HETATM   27  C   UNL     1      40.513 -16.041   4.387  1.00  0.00     0.030 A 
ENDBRANCH  17  20
ENDBRANCH  15  16
ENDBRANCH   1  15
TORSDOF 3
ENDMDL
MODEL 6
REMARK VINA RESULT:      -7.8      1.600      2.025
REMARK  3 active torsions:
REMARK  status: ('A' for Active; 'I' for Inactive)
REMARK    1  A    between atoms: C_6  and  N_7 
REMARK       I    between atoms: N_7  and  C_8 
REMARK    2  A    between atoms: C_8  and  C_9 
REMARK    3  A    between atoms: C_9  and  C_10 
ROOT
HETATM    1  C   UNL     1      40.359 -12.397   0.949  1.00  0.00     0.286 C 
HETATM    2  N   UNL     1      40.938 -12.066  -0.421  1.00  0.00    -0.056 N 
HETATM    3  H   UNL     1      41.057 -11.029  -0.426  1.00  0.00     0.278 HD
HETATM    4  H   UNL     1      41.886 -12.446  -0.526  1.00  0.00     0.278 HD
HETATM    5  C   UNL     1      40.067 -12.441  -1.586  1.00  0.00     0.209 C 
HETATM    6  C   UNL     1      38.643 -11.863  -1.381  1.00  0.00     0.115 C 
HETATM    7  N   UNL     1      38.105 -12.106  -0.042  1.00  0.00    -0.353 N 
HETATM    8  C   UNL     1      38.876 -12.009   1.093  1.00  0.00     0.249 C 
HETATM    9  O   UNL     1      38.361 -11.742   2.172  1.00  0.00    -0.271 OA
HETATM   10  C   UNL     1      40.095 -13.957  -1.783  1.00  0.00     0.035 C 
HETATM   11  C   UNL     1      39.143 -14.385  -2.896  1.00  0.00     0.002 C 
HETATM   12  C   UNL     1      37.725 -13.893  -2.626  1.00  0.00     0.002 C 
HETATM   13  C   UNL     1      37.679 -12.374  -2.460  1.00  0.00     0.027 C 
HETATM   14  H   UNL     1      37.144 -11.816   0.132  1.00  0.00     0.163 HD
ENDROOT
BRANCH   1  15
HETATM   15  C   UNL     1      41.211 -11.820   2.084  1.00  0.00     0.146 C 
BRANCH  15  16
HETATM   16  C   UNL     1      42.154 -12.848   2.672  1.00  0.00     0.224 C 
HETATM   17  N   UNL     1      41.552 -14.069   2.858  1.00  0.00    -0.327 N 
HETATM   18  H   UNL     1      40.547 -14.045   3.009  1.00  0.00     0.169 HD
HETATM   19  O   UNL     1      43.331 -12.545   2.854  1.00  0.00    -0.273 OA
BRANCH  17  20
HETATM   20  C   UNL     1      42.135 -15.341   3.075  1.00  0.00     0.040 A 
HETATM   21  C   UNL     1      42.348 -15.973   4.313  1.00  0.00    -0.035 A 
HETATM   22  C   UNL     1      42.974 -17.241   4.330  1.00  0.00     0.015 A 
HETATM   23  C   UNL     1      42.006 -15.394   5.655  1.00  0.00     0.050 C 
HETATM   24  C   UNL     1      43.425 -17.864   3.162  1.00  0.00    -0.061 A 
HETATM   25  C   UNL     1      44.153 -19.174   3.227  1.00  0.00     0.048 C 
HETATM   26  C   UNL     1      43.257 -17.206   1.949  1.00  0.00     0.009 A 
HETATM   27  C   UNL     1      42.620 -15.964   1.909  1.00  0.00     0.030 A 
ENDBRANCH  17  20
ENDBRANCH  15  16
ENDBRANCH   1  15
TORSDOF 3
ENDMDL
MODEL 7
REMARK VINA RESULT:      -7.8      1.962      7.738
REMARK  3 active torsions:
REMARK  status: ('A' for Active; 'I' for Inactive)
REMARK    1  A    between atoms: C_6  and  N_7 
REMARK       I    between atoms: N_7  and  C_8 
REMARK    2  A    between atoms: C_8  and  C_9 
REMARK    3  A    between atoms: C_9  and  C_10 
ROOT
HETATM    1  C   UNL     1      42.394 -14.286   3.900  1.00  0.00     0.286 C 
HETATM    2  N   UNL     1      41.480 -15.464   3.584  1.00  0.00    -0.056 N 
HETATM    3  H   UNL     1      40.666 -15.362   4.231  1.00  0.00     0.278 HD
HETATM    4  H   UNL     1      41.086 -15.386   2.640  1.00  0.00     0.278 HD
HETATM    5  C   UNL     1      42.089 -16.818   3.813  1.00  0.00     0.209 C 
HETATM    6  C   UNL     1      42.687 -16.889   5.241  1.00  0.00     0.115 C 
HETATM    7  N   UNL     1      43.504 -15.724   5.587  1.00  0.00    -0.353 N 
HETATM    8  C   UNL     1      43.152 -14.443   5.230  1.00  0.00     0.249 C 
HETATM    9  O   UNL     1      43.539 -13.487   5.892  1.00  0.00    -0.271 OA
HETATM   10  C   UNL     1      43.100 -17.122   2.706  1.00  0.00     0.035 C 
HETATM   11  C   UNL     1      43.811 -18.447   2.959  1.00  0.00     0.002 C 
HETATM   12  C   UNL     1      44.479 -18.460   4.329  1.00  0.00     0.002 C 
HETATM   13  C   UNL     1      43.473 -18.190   5.448  1.00  0.00     0.027 C 
HETATM   14  H   UNL     1      43.985 -15.745   6.484  1.00  0.00     0.163 HD
ENDROOT
BRANCH   1  15
HETATM   15  C   UNL     1      41.648 -12.949   3.824  1.00  0.00     0.146 C 
BRANCH  15  16
HETATM   16  C   UNL     1      40.462 -13.006   2.885  1.00  0.00     0.224 C 
HETATM   17  N   UNL     1      40.806 -12.725   1.585  1.00  0.00    -0.327 N 
HETATM   18  H   UNL     1      41.616 -12.123   1.465  1.00  0.00     0.169 HD
HETATM   19  O   UNL     1      39.368 -13.354   3.325  1.00  0.00    -0.273 OA
BRANCH  17  20
HETATM   20  C   UNL     1      40.093 -12.972   0.388  1.00  0.00     0.040 A 
HETATM   21  C   UNL     1      39.265 -12.071  -0.304  1.00  0.00    -0.035 A 
HETATM   22  C   UNL     1      38.610 -12.514  -1.477  1.00  0.00     0.015 A 
HETATM   23  C   UNL     1      38.966 -10.663   0.120  1.00  0.00     0.050 C 
HETATM   24  C   UNL     1      38.726 -13.827  -1.945  1.00  0.00    -0.061 A 
HETATM   25  C   UNL     1      37.956 -14.280  -3.150  1.00  0.00     0.048 C 
HETATM   26  C   UNL     1      39.506 -14.723  -1.223  1.00  0.00     0.009 A 
HETATM   27  C   UNL     1      40.179 -14.300  -0.076  1.00  0.00     0.030 A 
ENDBRANCH  17  20
ENDBRANCH  15  16
ENDBRANCH   1  15
TORSDOF 3
ENDMDL
MODEL 8
REMARK VINA RESULT:      -7.8      7.472     10.358
REMARK  3 active torsions:
REMARK  status: ('A' for Active; 'I' for Inactive)
REMARK    1  A    between atoms: C_6  and  N_7 
REMARK       I    between atoms: N_7  and  C_8 
REMARK    2  A    between atoms: C_8  and  C_9 
REMARK    3  A    between atoms: C_9  and  C_10 
ROOT
HETATM    1  C   UNL     1      43.172  -9.724   9.013  1.00  0.00     0.286 C 
HETATM    2  N   UNL     1      41.803  -9.818   9.678  1.00  0.00    -0.056 N 
HETATM    3  H   UNL     1      41.146  -9.338   9.023  1.00  0.00     0.278 HD
HETATM    4  H   UNL     1      41.478 -10.790   9.722  1.00  0.00     0.278 HD
HETATM    5  C   UNL     1      41.701  -9.144  11.016  1.00  0.00     0.209 C 
HETATM    6  C   UNL     1      42.219  -7.687  10.910  1.00  0.00     0.115 C 
HETATM    7  N   UNL     1      43.496  -7.574  10.204  1.00  0.00    -0.353 N 
HETATM    8  C   UNL     1      43.788  -8.316   9.082  1.00  0.00     0.249 C 
HETATM    9  O   UNL     1      44.593  -7.901   8.257  1.00  0.00    -0.271 OA
HETATM   10  C   UNL     1      42.428  -9.981  12.070  1.00  0.00     0.035 C 
HETATM   11  C   UNL     1      42.430  -9.279  13.425  1.00  0.00     0.002 C 
HETATM   12  C   UNL     1      43.035  -7.884  13.319  1.00  0.00     0.002 C 
HETATM   13  C   UNL     1      42.297  -7.026  12.292  1.00  0.00     0.027 C 
HETATM   14  H   UNL     1      43.925  -6.651  10.166  1.00  0.00     0.163 HD
ENDROOT
BRANCH   1  15
HETATM   15  C   UNL     1      43.149 -10.266   7.579  1.00  0.00     0.146 C 
BRANCH  15  16
HETATM   16  C   UNL     1      43.763 -11.645   7.478  1.00  0.00     0.224 C 
HETATM   17  N   UNL     1      42.848 -12.603   7.111  1.00  0.00    -0.327 N 
HETATM   18  H   UNL     1      41.884 -12.412   7.369  1.00  0.00     0.169 HD
HETATM   19  O   UNL     1      44.974 -11.775   7.647  1.00  0.00    -0.273 OA
BRANCH  17  20
HETATM   20  C   UNL     1      43.060 -13.910   6.611  1.00  0.00     0.040 A 
HETATM   21  C   UNL     1      43.082 -14.306   5.262  1.00  0.00    -0.035 A 
HETATM   22  C   UNL     1      43.281 -15.672   4.958  1.00  0.00     0.015 A 
HETATM   23  C   UNL     1      42.862 -13.399   4.086  1.00  0.00     0.050 C 
HETATM   24  C   UNL     1      43.415 -16.645   5.954  1.00  0.00    -0.061 A 
HETATM   25  C   UNL     1      43.548 -18.095   5.593  1.00  0.00     0.048 C 
HETATM   26  C   UNL     1      43.338 -16.250   7.284  1.00  0.00     0.009 A 
HETATM   27  C   UNL     1      43.165 -14.902   7.605  1.00  0.00     0.030 A 
ENDBRANCH  17  20
ENDBRANCH  15  16
ENDBRANCH   1  15
TORSDOF 3
ENDMDL
MODEL 9
REMARK VINA RESULT:      -7.7      2.475      8.286
REMARK  3 active torsions:
REMARK  status: ('A' for Active; 'I' for Inactive)
REMARK    1  A    between atoms: C_6  and  N_7 
REMARK       I    between atoms: N_7  and  C_8 
REMARK    2  A    between atoms: C_8  and  C_9 
REMARK    3  A    between atoms: C_9  and  C_10 
ROOT
HETATM    1  C   UNL     1      40.996 -15.835   2.856  1.00  0.00     0.286 C 
HETATM    2  N   UNL     1      40.353 -15.019   3.972  1.00  0.00    -0.056 N 
HETATM    3  H   UNL     1      40.218 -14.064   3.571  1.00  0.00     0.278 HD
HETATM    4  H   UNL     1      39.408 -15.359   4.183  1.00  0.00     0.278 HD
HETATM    5  C   UNL     1      41.180 -14.888   5.219  1.00  0.00     0.209 C 
HETATM    6  C   UNL     1      42.602 -14.390   4.855  1.00  0.00     0.115 C 
HETATM    7  N   UNL     1      43.200 -15.114   3.732  1.00  0.00    -0.353 N 
HETATM    8  C   UNL     1      42.477 -15.486   2.623  1.00  0.00     0.249 C 
HETATM    9  O   UNL     1      43.034 -15.640   1.543  1.00  0.00    -0.271 OA
HETATM   10  C   UNL     1      41.167 -16.212   5.986  1.00  0.00     0.035 C 
HETATM   11  C   UNL     1      42.076 -16.147   7.209  1.00  0.00     0.002 C 
HETATM   12  C   UNL     1      43.496 -15.753   6.818  1.00  0.00     0.002 C 
HETATM   13  C   UNL     1      43.526 -14.416   6.079  1.00  0.00     0.027 C 
HETATM   14  H   UNL     1      44.163 -14.884   3.493  1.00  0.00     0.163 HD
ENDROOT
BRANCH   1  15
HETATM   15  C   UNL     1      40.184 -15.767   1.558  1.00  0.00     0.146 C 
BRANCH  15  16
HETATM   16  C   UNL     1      40.057 -14.352   1.035  1.00  0.00     0.224 C 
HETATM   17  N   UNL     1      40.613 -14.200  -0.212  1.00  0.00    -0.327 N 
HETATM   18  H   UNL     1      41.371 -14.839  -0.436  1.00  0.00     0.169 HD
HETATM   19  O   UNL     1      39.436 -13.523   1.698  1.00  0.00    -0.273 OA
BRANCH  17  20
HETATM   20  C   UNL     1      40.436 -13.164  -1.160  1.00  0.00     0.040 A 
HETATM   21  C   UNL     1      39.722 -13.237  -2.369  1.00  0.00    -0.035 A 
HETATM   22  C   UNL     1      39.681 -12.096  -3.204  1.00  0.00     0.015 A 
HETATM   23  C   UNL     1      39.020 -14.456  -2.892  1.00  0.00     0.050 C 
HETATM   24  C   UNL     1      40.362 -10.916  -2.887  1.00  0.00    -0.061 A 
HETATM   25  C   UNL     1      40.357  -9.753  -3.834  1.00  0.00     0.048 C 
HETATM   26  C   UNL     1      41.108 -10.873  -1.715  1.00  0.00     0.009 A 
HETATM   27  C   UNL     1      41.141 -11.981  -0.865  1.00  0.00     0.030 A 
ENDBRANCH  17  20
ENDBRANCH  15  16
ENDBRANCH   1  15
TORSDOF 3
ENDMDL
MODEL 10
REMARK VINA RESULT:      -7.6      2.471      3.335
REMARK  3 active torsions:
REMARK  status: ('A' for Active; 'I' for Inactive)
REMARK    1  A    between atoms: C_6  and  N_7 
REMARK       I    between atoms: N_7  and  C_8 
REMARK    2  A    between atoms: C_8  and  C_9 
REMARK    3  A    between atoms: C_9  and  C_10 
ROOT
HETATM    1  C   UNL     1      40.455 -12.956  -0.967  1.00  0.00     0.286 C 
HETATM    2  N   UNL     1      39.809 -11.737  -0.319  1.00  0.00    -0.056 N 
HETATM    3  H   UNL     1      38.792 -11.967  -0.254  1.00  0.00     0.278 HD
HETATM    4  H   UNL     1      40.122 -11.622   0.651  1.00  0.00     0.278 HD
HETATM    5  C   UNL     1      39.949 -10.458  -1.095  1.00  0.00     0.209 C 
HETATM    6  C   UNL     1      39.483 -10.678  -2.556  1.00  0.00     0.115 C 
HETATM    7  N   UNL     1      40.035 -11.889  -3.165  1.00  0.00    -0.353 N 
HETATM    8  C   UNL     1      40.163 -13.072  -2.474  1.00  0.00     0.249 C 
HETATM    9  O   UNL     1      40.160 -14.142  -3.070  1.00  0.00    -0.271 OA
HETATM   10  C   UNL     1      41.382  -9.938  -0.975  1.00  0.00     0.035 C 
HETATM   11  C   UNL     1      41.588  -8.692  -1.831  1.00  0.00     0.002 C 
HETATM   12  C   UNL     1      41.220  -8.957  -3.286  1.00  0.00     0.002 C 
HETATM   13  C   UNL     1      39.778  -9.446  -3.422  1.00  0.00     0.027 C 
HETATM   14  H   UNL     1      39.826 -12.050  -4.149  1.00  0.00     0.163 HD
ENDROOT
BRANCH   1  15
HETATM   15  C   UNL     1      40.112 -14.249  -0.220  1.00  0.00     0.146 C 
BRANCH  15  16
HETATM   16  C   UNL     1      40.951 -14.430   1.027  1.00  0.00     0.224 C 
HETATM   17  N   UNL     1      40.825 -15.687   1.568  1.00  0.00    -0.327 N 
HETATM   18  H   UNL     1      39.944 -16.158   1.385  1.00  0.00     0.169 HD
HETATM   19  O   UNL     1      41.691 -13.517   1.388  1.00  0.00    -0.273 OA
BRANCH  17  20
HETATM   20  C   UNL     1      41.646 -16.352   2.511  1.00  0.00     0.040 A 
HETATM   21  C   UNL     1      41.656 -16.163   3.904  1.00  0.00    -0.035 A 
HETATM   22  C   UNL     1      42.574 -16.905   4.683  1.00  0.00     0.015 A 
HETATM   23  C   UNL     1      40.795 -15.191   4.656  1.00  0.00     0.050 C 
HETATM   24  C   UNL     1      43.497 -17.786   4.110  1.00  0.00    -0.061 A 
HETATM   25  C   UNL     1      44.506 -18.498   4.962  1.00  0.00     0.048 C 
HETATM   26  C   UNL     1      43.514 -17.924   2.727  1.00  0.00     0.009 A 
HETATM   27  C   UNL     1      42.600 -17.218   1.941  1.00  0.00     0.030 A 
ENDBRANCH  17  20
ENDBRANCH  15  16
ENDBRANCH   1  15
TORSDOF 3
ENDMDL
