MODEL 1
REMARK VINA RESULT:      -8.8      0.000      0.000
REMARK  8 active torsions:
REMARK  status: ('A' for Active; 'I' for Inactive)
REMARK    1  A    between atoms: C_7  and  N_8 
REMARK    2  A    between atoms: C_9  and  S_10 
REMARK    3  A    between atoms: S_10  and  C_11 
REMARK    4  A    between atoms: C_11  and  C_12 
REMARK       I    between atoms: C_12  and  N_13 
REMARK    5  A    between atoms: N_13  and  C_14 
REMARK    6  A    between atoms: C_14  and  C_15 
REMARK    7  A    between atoms: C_15  and  C_16 
REMARK    8  A    between atoms: C_26  and  N_27 
ROOT
HETATM    1  N   UNL     1      40.050 -12.949   0.983  1.00  0.00    -0.276 N 
HETATM    2  C   UNL     1      40.322 -14.312   0.683  1.00  0.00     0.177 A 
HETATM    3  N   UNL     1      39.862 -14.976  -0.349  1.00  0.00    -0.204 NA
HETATM    4  C   UNL     1      39.074 -14.247  -1.167  1.00  0.00     0.162 A 
HETATM    5  C   UNL     1      38.697 -12.937  -1.064  1.00  0.00     0.081 A 
HETATM    6  C   UNL     1      39.169 -12.214   0.078  1.00  0.00     0.124 A 
HETATM    7  N   UNL     1      38.492 -14.701  -2.313  1.00  0.00    -0.260 N 
HETATM    8  H   UNL     1      38.548 -15.632  -2.713  1.00  0.00     0.191 HD
HETATM    9  N   UNL     1      37.778 -13.750  -2.954  1.00  0.00    -0.177 NA
HETATM   10  C   UNL     1      37.907 -12.655  -2.188  1.00  0.00     0.068 A 
HETATM   11  C   UNL     1      37.252 -11.393  -2.609  1.00  0.00     0.073 C 
ENDROOT
BRANCH   2  12
HETATM   12  S   UNL     1      41.421 -15.255   1.720  1.00  0.00    -0.082 SA
BRANCH  12  13
HETATM   13  C   UNL     1      40.223 -15.859   2.950  1.00  0.00     0.185 C 
BRANCH  13  14
HETATM   14  C   UNL     1      40.853 -16.125   4.303  1.00  0.00     0.227 C 
HETATM   15  N   UNL     1      42.231 -16.081   4.339  1.00  0.00    -0.360 N 
HETATM   16  H   UNL     1      42.719 -15.912   3.467  1.00  0.00     0.162 HD
HETATM   17  O   UNL     1      40.167 -16.455   5.269  1.00  0.00    -0.273 OA
BRANCH  15  18
HETATM   18  C   UNL     1      42.981 -16.619   5.461  1.00  0.00     0.127 C 
BRANCH  18  19
HETATM   19  C   UNL     1      44.327 -17.202   5.031  1.00  0.00     0.058 C 
BRANCH  19  20
HETATM   20  C   UNL     1      44.151 -18.518   4.314  1.00  0.00    -0.057 A 
HETATM   21  C   UNL     1      43.937 -18.548   2.929  1.00  0.00     0.007 A 
HETATM   22  C   UNL     1      43.733 -19.762   2.271  1.00  0.00     0.001 A 
HETATM   23  C   UNL     1      43.738 -20.955   2.990  1.00  0.00     0.000 A 
HETATM   24  C   UNL     1      43.949 -20.937   4.367  1.00  0.00     0.001 A 
HETATM   25  C   UNL     1      44.153 -19.724   5.028  1.00  0.00     0.007 A 
ENDBRANCH  19  20
ENDBRANCH  18  19
ENDBRANCH  15  18
ENDBRANCH  13  14
ENDBRANCH  12  13
ENDBRANCH   2  12
BRANCH   1  26
HETATM   26  C   UNL     1      40.626 -12.292   2.110  1.00  0.00     0.043 A 
HETATM   27  C   UNL     1      41.892 -11.701   2.038  1.00  0.00     0.032 A 
HETATM   28  C   UNL     1      42.473 -11.138   3.177  1.00  0.00     0.026 A 
HETATM   29  C   UNL     1      41.803 -11.170   4.401  1.00  0.00     0.040 A 
HETATM   30  C   UNL     1      40.535 -11.762   4.504  1.00  0.00    -0.038 A 
HETATM   31 CL   UNL     1      42.590 -10.479   5.774  1.00  0.00    -0.084 Cl
HETATM   32  C   UNL     1      39.792 -11.826   5.810  1.00  0.00     0.050 C 
HETATM   33  C   UNL     1      39.957 -12.316   3.348  1.00  0.00     0.038 A 
ENDBRANCH   1  26
BRANCH   6  34
HETATM   34  N   UNL     1      38.786 -10.971   0.301  1.00  0.00    -0.384 N 
HETATM   35  H   UNL     1      37.832 -10.674   0.160  1.00  0.00     0.157 HD
HETATM   36  H   UNL     1      39.446 -10.292   0.661  1.00  0.00     0.157 HD
ENDBRANCH   6  34
TORSDOF 8
ENDMDL
MODEL 2
REMARK VINA RESULT:      -8.8      3.412      7.334
REMARK  8 active torsions:
REMARK  status: ('A' for Active; 'I' for Inactive)
REMARK    1  A    between atoms: C_7  and  N_8 
REMARK    2  A    between atoms: C_9  and  S_10 
REMARK    3  A    between atoms: S_10  and  C_11 
REMARK    4  A    between atoms: C_11  and  C_12 
REMARK       I    between atoms: C_12  and  N_13 
REMARK    5  A    between atoms: N_13  and  C_14 
REMARK    6  A    between atoms: C_14  and  C_15 
REMARK    7  A    between atoms: C_15  and  C_16 
REMARK    8  A    between atoms: C_26  and  N_27 
ROOT
HETATM    1  N   UNL     1      42.936 -16.329   3.877  1.00  0.00    -0.276 N 
HETATM    2  C   UNL     1      43.277 -16.538   5.241  1.00  0.00     0.177 A 
HETATM    3  N   UNL     1      43.691 -17.666   5.764  1.00  0.00    -0.204 NA
HETATM    4  C   UNL     1      43.788 -18.680   4.879  1.00  0.00     0.162 A 
HETATM    5  C   UNL     1      43.517 -18.689   3.539  1.00  0.00     0.081 A 
HETATM    6  C   UNL     1      43.034 -17.468   2.967  1.00  0.00     0.124 A 
HETATM    7  N   UNL     1      44.212 -19.943   5.170  1.00  0.00    -0.260 N 
HETATM    8  H   UNL     1      44.500 -20.311   6.070  1.00  0.00     0.191 HD
HETATM    9  N   UNL     1      44.240 -20.752   4.087  1.00  0.00    -0.177 NA
HETATM   10  C   UNL     1      43.816 -19.978   3.075  1.00  0.00     0.068 A 
HETATM   11  C   UNL     1      43.738 -20.549   1.709  1.00  0.00     0.073 C 
ENDROOT
BRANCH   2  12
HETATM   12  S   UNL     1      43.221 -15.183   6.396  1.00  0.00    -0.082 SA
BRANCH  12  13
HETATM   13  C   UNL     1      41.447 -15.214   6.803  1.00  0.00     0.185 C 
BRANCH  13  14
HETATM   14  C   UNL     1      40.745 -13.910   6.475  1.00  0.00     0.227 C 
HETATM   15  N   UNL     1      41.571 -12.837   6.213  1.00  0.00    -0.360 N 
HETATM   16  H   UNL     1      42.571 -12.983   6.292  1.00  0.00     0.162 HD
HETATM   17  O   UNL     1      39.521 -13.814   6.541  1.00  0.00    -0.273 OA
BRANCH  15  18
HETATM   18  C   UNL     1      41.068 -11.474   6.200  1.00  0.00     0.127 C 
BRANCH  18  19
HETATM   19  C   UNL     1      42.105 -10.479   5.684  1.00  0.00     0.058 C 
BRANCH  19  20
HETATM   20  C   UNL     1      43.425 -10.640   6.398  1.00  0.00    -0.057 A 
HETATM   21  C   UNL     1      43.597 -10.136   7.694  1.00  0.00     0.007 A 
HETATM   22  C   UNL     1      44.829 -10.248   8.340  1.00  0.00     0.001 A 
HETATM   23  C   UNL     1      45.901 -10.861   7.696  1.00  0.00     0.000 A 
HETATM   24  C   UNL     1      45.742 -11.366   6.407  1.00  0.00     0.001 A 
HETATM   25  C   UNL     1      44.510 -11.255   5.759  1.00  0.00     0.007 A 
ENDBRANCH  19  20
ENDBRANCH  18  19
ENDBRANCH  15  18
ENDBRANCH  13  14
ENDBRANCH  12  13
ENDBRANCH   2  12
BRANCH   1  26
HETATM   26  C   UNL     1      42.531 -15.054   3.383  1.00  0.00     0.043 A 
HETATM   27  C   UNL     1      43.461 -14.030   3.168  1.00  0.00     0.032 A 
HETATM   28  C   UNL     1      43.033 -12.762   2.765  1.00  0.00     0.026 A 
HETATM   29  C   UNL     1      41.673 -12.499   2.588  1.00  0.00     0.040 A 
HETATM   30  C   UNL     1      40.719 -13.505   2.804  1.00  0.00    -0.038 A 
HETATM   31 CL   UNL     1      41.212 -10.904   2.116  1.00  0.00    -0.084 Cl
HETATM   32  C   UNL     1      39.246 -13.252   2.635  1.00  0.00     0.050 C 
HETATM   33  C   UNL     1      41.164 -14.779   3.198  1.00  0.00     0.038 A 
ENDBRANCH   1  26
BRANCH   6  34
HETATM   34  N   UNL     1      42.668 -17.410   1.701  1.00  0.00    -0.384 N 
HETATM   35  H   UNL     1      41.789 -17.000   1.419  1.00  0.00     0.157 HD
HETATM   36  H   UNL     1      43.290 -17.745   0.975  1.00  0.00     0.157 HD
ENDBRANCH   6  34
TORSDOF 8
ENDMDL
MODEL 3
REMARK VINA RESULT:      -8.8      2.371      3.530
REMARK  8 active torsions:
REMARK  status: ('A' for Active; 'I' for Inactive)
REMARK    1  A    between atoms: C_7  and  N_8 
REMARK    2  A    between atoms: C_9  and  S_10 
REMARK    3  A    between atoms: S_10  and  C_11 
REMARK    4  A    between atoms: C_11  and  C_12 
REMARK       I    between atoms: C_12  and  N_13 
REMARK    5  A    between atoms: N_13  and  C_14 
REMARK    6  A    between atoms: C_14  and  C_15 
REMARK    7  A    between atoms: C_15  and  C_16 
REMARK    8  A    between atoms: C_26  and  N_27 
ROOT
HETATM    1  N   UNL     1      41.156 -11.694   4.380  1.00  0.00    -0.276 N 
HETATM    2  C   UNL     1      40.325 -12.836   4.539  1.00  0.00     0.177 A 
HETATM    3  N   UNL     1      39.615 -13.406   3.596  1.00  0.00    -0.204 NA
HETATM    4  C   UNL     1      39.731 -12.816   2.388  1.00  0.00     0.162 A 
HETATM    5  C   UNL     1      40.471 -11.725   2.024  1.00  0.00     0.081 A 
HETATM    6  C   UNL     1      41.224 -11.079   3.057  1.00  0.00     0.124 A 
HETATM    7  N   UNL     1      39.112 -13.229   1.245  1.00  0.00    -0.260 N 
HETATM    8  H   UNL     1      38.478 -14.013   1.129  1.00  0.00     0.191 HD
HETATM    9  N   UNL     1      39.428 -12.472   0.171  1.00  0.00    -0.177 NA
HETATM   10  C   UNL     1      40.274 -11.544   0.647  1.00  0.00     0.068 A 
HETATM   11  C   UNL     1      40.845 -10.538  -0.280  1.00  0.00     0.073 C 
ENDROOT
BRANCH   2  12
HETATM   12  S   UNL     1      40.228 -13.661   6.115  1.00  0.00    -0.082 SA
BRANCH  12  13
HETATM   13  C   UNL     1      40.773 -15.323   5.614  1.00  0.00     0.185 C 
BRANCH  13  14
HETATM   14  C   UNL     1      42.151 -15.324   4.979  1.00  0.00     0.227 C 
HETATM   15  N   UNL     1      42.178 -15.503   3.612  1.00  0.00    -0.360 N 
HETATM   16  H   UNL     1      41.295 -15.654   3.140  1.00  0.00     0.162 HD
HETATM   17  O   UNL     1      43.167 -15.268   5.669  1.00  0.00    -0.273 OA
BRANCH  15  18
HETATM   18  C   UNL     1      43.406 -15.843   2.914  1.00  0.00     0.127 C 
BRANCH  18  19
HETATM   19  C   UNL     1      43.240 -17.067   2.015  1.00  0.00     0.058 C 
BRANCH  19  20
HETATM   20  C   UNL     1      43.555 -18.342   2.758  1.00  0.00    -0.057 A 
HETATM   21  C   UNL     1      43.323 -19.588   2.160  1.00  0.00     0.007 A 
HETATM   22  C   UNL     1      43.575 -20.768   2.863  1.00  0.00     0.001 A 
HETATM   23  C   UNL     1      44.057 -20.713   4.168  1.00  0.00     0.000 A 
HETATM   24  C   UNL     1      44.291 -19.480   4.773  1.00  0.00     0.001 A 
HETATM   25  C   UNL     1      44.040 -18.298   4.073  1.00  0.00     0.007 A 
ENDBRANCH  19  20
ENDBRANCH  18  19
ENDBRANCH  15  18
ENDBRANCH  13  14
ENDBRANCH  12  13
ENDBRANCH   2  12
BRANCH   1  26
HETATM   26  C   UNL     1      41.926 -11.162   5.456  1.00  0.00     0.043 A 
HETATM   27  C   UNL     1      41.407 -10.176   6.302  1.00  0.00     0.032 A 
HETATM   28  C   UNL     1      42.208  -9.607   7.296  1.00  0.00     0.026 A 
HETATM   29  C   UNL     1      43.538 -10.006   7.446  1.00  0.00     0.040 A 
HETATM   30  C   UNL     1      44.086 -10.987   6.606  1.00  0.00    -0.038 A 
HETATM   31 CL   UNL     1      44.478  -9.244   8.677  1.00  0.00    -0.084 Cl
HETATM   32  C   UNL     1      45.518 -11.430   6.731  1.00  0.00     0.050 C 
HETATM   33  C   UNL     1      43.266 -11.559   5.617  1.00  0.00     0.038 A 
ENDBRANCH   1  26
BRANCH   6  34
HETATM   34  N   UNL     1      41.899  -9.971   2.813  1.00  0.00    -0.384 N 
HETATM   35  H   UNL     1      41.975  -9.233   3.497  1.00  0.00     0.157 HD
HETATM   36  H   UNL     1      42.393  -9.860   1.936  1.00  0.00     0.157 HD
ENDBRANCH   6  34
TORSDOF 8
ENDMDL
MODEL 4
REMARK VINA RESULT:      -8.8      4.214      8.199
REMARK  8 active torsions:
REMARK  status: ('A' for Active; 'I' for Inactive)
REMARK    1  A    between atoms: C_7  and  N_8 
REMARK    2  A    between atoms: C_9  and  S_10 
REMARK    3  A    between atoms: S_10  and  C_11 
REMARK    4  A    between atoms: C_11  and  C_12 
REMARK       I    between atoms: C_12  and  N_13 
REMARK    5  A    between atoms: N_13  and  C_14 
REMARK    6  A    between atoms: C_14  and  C_15 
REMARK    7  A    between atoms: C_15  and  C_16 
REMARK    8  A    between atoms: C_26  and  N_27 
ROOT
HETATM    1  N   UNL     1      41.863 -14.858   3.647  1.00  0.00    -0.276 N 
HETATM    2  C   UNL     1      42.487 -14.590   4.896  1.00  0.00     0.177 A 
HETATM    3  N   UNL     1      43.307 -15.391   5.531  1.00  0.00    -0.204 NA
HETATM    4  C   UNL     1      43.548 -16.554   4.890  1.00  0.00     0.162 A 
HETATM    5  C   UNL     1      43.060 -17.000   3.693  1.00  0.00     0.081 A 
HETATM    6  C   UNL     1      42.139 -16.143   3.009  1.00  0.00     0.124 A 
HETATM    7  N   UNL     1      44.377 -17.542   5.332  1.00  0.00    -0.260 N 
HETATM    8  H   UNL     1      44.917 -17.563   6.191  1.00  0.00     0.191 HD
HETATM    9  N   UNL     1      44.457 -18.585   4.477  1.00  0.00    -0.177 NA
HETATM   10  C   UNL     1      43.648 -18.251   3.459  1.00  0.00     0.068 A 
HETATM   11  C   UNL     1      43.506 -19.178   2.310  1.00  0.00     0.073 C 
ENDROOT
BRANCH   2  12
HETATM   12  S   UNL     1      42.229 -13.026   5.710  1.00  0.00    -0.082 SA
BRANCH  12  13
HETATM   13  C   UNL     1      43.844 -12.253   5.384  1.00  0.00     0.185 C 
BRANCH  13  14
HETATM   14  C   UNL     1      44.526 -11.763   6.647  1.00  0.00     0.227 C 
HETATM   15  N   UNL     1      45.616 -10.939   6.455  1.00  0.00    -0.360 N 
HETATM   16  H   UNL     1      45.900 -10.750   5.502  1.00  0.00     0.162 HD
HETATM   17  O   UNL     1      44.177 -12.166   7.754  1.00  0.00    -0.273 OA
BRANCH  15  18
HETATM   18  C   UNL     1      46.552 -10.653   7.529  1.00  0.00     0.127 C 
BRANCH  18  19
HETATM   19  C   UNL     1      46.495  -9.193   7.973  1.00  0.00     0.058 C 
BRANCH  19  20
HETATM   20  C   UNL     1      45.388  -8.966   8.974  1.00  0.00    -0.057 A 
HETATM   21  C   UNL     1      44.402  -7.999   8.735  1.00  0.00     0.007 A 
HETATM   22  C   UNL     1      43.402  -7.759   9.679  1.00  0.00     0.001 A 
HETATM   23  C   UNL     1      43.380  -8.481  10.870  1.00  0.00     0.000 A 
HETATM   24  C   UNL     1      44.356  -9.444  11.119  1.00  0.00     0.001 A 
HETATM   25  C   UNL     1      45.357  -9.686  10.177  1.00  0.00     0.007 A 
ENDBRANCH  19  20
ENDBRANCH  18  19
ENDBRANCH  15  18
ENDBRANCH  13  14
ENDBRANCH  12  13
ENDBRANCH   2  12
BRANCH   1  26
HETATM   26  C   UNL     1      41.013 -13.910   3.006  1.00  0.00     0.043 A 
HETATM   27  C   UNL     1      39.655 -13.817   3.330  1.00  0.00     0.032 A 
HETATM   28  C   UNL     1      38.821 -12.941   2.631  1.00  0.00     0.026 A 
HETATM   29  C   UNL     1      39.331 -12.159   1.592  1.00  0.00     0.040 A 
HETATM   30  C   UNL     1      40.687 -12.237   1.241  1.00  0.00    -0.038 A 
HETATM   31 CL   UNL     1      38.240 -11.117   0.752  1.00  0.00    -0.084 Cl
HETATM   32  C   UNL     1      41.266 -11.419   0.120  1.00  0.00     0.050 C 
HETATM   33  C   UNL     1      41.517 -13.115   1.961  1.00  0.00     0.038 A 
ENDBRANCH   1  26
BRANCH   6  34
HETATM   34  N   UNL     1      41.555 -16.529   1.890  1.00  0.00    -0.384 N 
HETATM   35  H   UNL     1      41.772 -16.103   1.002  1.00  0.00     0.157 HD
HETATM   36  H   UNL     1      40.897 -17.299   1.900  1.00  0.00     0.157 HD
ENDBRANCH   6  34
TORSDOF 8
ENDMDL
MODEL 5
REMARK VINA RESULT:      -8.8      3.231      5.466
REMARK  8 active torsions:
REMARK  status: ('A' for Active; 'I' for Inactive)
REMARK    1  A    between atoms: C_7  and  N_8 
REMARK    2  A    between atoms: C_9  and  S_10 
REMARK    3  A    between atoms: S_10  and  C_11 
REMARK    4  A    between atoms: C_11  and  C_12 
REMARK       I    between atoms: C_12  and  N_13 
REMARK    5  A    between atoms: N_13  and  C_14 
REMARK    6  A    between atoms: C_14  and  C_15 
REMARK    7  A    between atoms: C_15  and  C_16 
REMARK    8  A    between atoms: C_26  and  N_27 
ROOT
HETATM    1  N   UNL     1      41.887 -11.534   5.110  1.00  0.00    -0.276 N 
HETATM    2  C   UNL     1      42.108 -11.303   3.725  1.00  0.00     0.177 A 
HETATM    3  N   UNL     1      41.887 -10.178   3.090  1.00  0.00    -0.204 NA
HETATM    4  C   UNL     1      41.417  -9.186   3.874  1.00  0.00     0.162 A 
HETATM    5  C   UNL     1      41.143  -9.198   5.214  1.00  0.00     0.081 A 
HETATM    6  C   UNL     1      41.352 -10.433   5.908  1.00  0.00     0.124 A 
HETATM    7  N   UNL     1      41.129  -7.920   3.458  1.00  0.00    -0.260 N 
HETATM    8  H   UNL     1      41.208  -7.540   2.520  1.00  0.00     0.191 HD
HETATM    9  N   UNL     1      40.701  -7.121   4.460  1.00  0.00    -0.177 NA
HETATM   10  C   UNL     1      40.714  -7.906   5.549  1.00  0.00     0.068 A 
HETATM   11  C   UNL     1      40.312  -7.337   6.858  1.00  0.00     0.073 C 
ENDROOT
BRANCH   2  12
HETATM   12  S   UNL     1      42.799 -12.588   2.702  1.00  0.00    -0.082 SA
BRANCH  12  13
HETATM   13  C   UNL     1      41.332 -12.991   1.701  1.00  0.00     0.185 C 
BRANCH  13  14
HETATM   14  C   UNL     1      40.957 -14.458   1.772  1.00  0.00     0.227 C 
HETATM   15  N   UNL     1      41.742 -15.236   2.598  1.00  0.00    -0.360 N 
HETATM   16  H   UNL     1      42.522 -14.788   3.063  1.00  0.00     0.162 HD
HETATM   17  O   UNL     1      40.072 -14.922   1.056  1.00  0.00    -0.273 OA
BRANCH  15  18
HETATM   18  C   UNL     1      41.716 -16.687   2.527  1.00  0.00     0.127 C 
BRANCH  18  19
HETATM   19  C   UNL     1      43.046 -17.267   2.049  1.00  0.00     0.058 C 
BRANCH  19  20
HETATM   20  C   UNL     1      43.458 -18.456   2.882  1.00  0.00    -0.057 A 
HETATM   21  C   UNL     1      43.441 -19.746   2.334  1.00  0.00     0.007 A 
HETATM   22  C   UNL     1      43.781 -20.852   3.116  1.00  0.00     0.001 A 
HETATM   23  C   UNL     1      44.138 -20.679   4.451  1.00  0.00     0.000 A 
HETATM   24  C   UNL     1      44.156 -19.401   5.007  1.00  0.00     0.001 A 
HETATM   25  C   UNL     1      43.817 -18.294   4.227  1.00  0.00     0.007 A 
ENDBRANCH  19  20
ENDBRANCH  18  19
ENDBRANCH  15  18
ENDBRANCH  13  14
ENDBRANCH  12  13
ENDBRANCH   2  12
BRANCH   1  26
HETATM   26  C   UNL     1      42.193 -12.782   5.729  1.00  0.00     0.043 A 
HETATM   27  C   UNL     1      43.471 -13.049   6.232  1.00  0.00     0.032 A 
HETATM   28  C   UNL     1      43.772 -14.308   6.757  1.00  0.00     0.026 A 
HETATM   29  C   UNL     1      42.807 -15.317   6.772  1.00  0.00     0.040 A 
HETATM   30  C   UNL     1      41.520 -15.079   6.267  1.00  0.00    -0.038 A 
HETATM   31 CL   UNL     1      43.255 -16.857   7.411  1.00  0.00    -0.084 Cl
HETATM   32  C   UNL     1      40.461 -16.147   6.256  1.00  0.00     0.050 C 
HETATM   33  C   UNL     1      41.226 -13.804   5.752  1.00  0.00     0.038 A 
ENDBRANCH   1  26
BRANCH   6  34
HETATM   34  N   UNL     1      41.034 -10.558   7.182  1.00  0.00    -0.384 N 
HETATM   35  H   UNL     1      40.074 -10.587   7.492  1.00  0.00     0.157 HD
HETATM   36  H   UNL     1      41.761 -10.669   7.879  1.00  0.00     0.157 HD
ENDBRANCH   6  34
TORSDOF 8
ENDMDL
MODEL 6
REMARK VINA RESULT:      -8.5      4.764      8.604
REMARK  8 active torsions:
REMARK  status: ('A' for Active; 'I' for Inactive)
REMARK    1  A    between atoms: C_7  and  N_8 
REMARK    2  A    between atoms: C_9  and  S_10 
REMARK    3  A    between atoms: S_10  and  C_11 
REMARK    4  A    between atoms: C_11  and  C_12 
REMARK       I    between atoms: C_12  and  N_13 
REMARK    5  A    between atoms: N_13  and  C_14 
REMARK    6  A    between atoms: C_14  and  C_15 
REMARK    7  A    between atoms: C_15  and  C_16 
REMARK    8  A    between atoms: C_26  and  N_27 
ROOT
HETATM    1  N   UNL     1      41.954 -14.579   3.790  1.00  0.00    -0.276 N 
HETATM    2  C   UNL     1      42.649 -14.419   5.020  1.00  0.00     0.177 A 
HETATM    3  N   UNL     1      43.436 -15.306   5.578  1.00  0.00    -0.204 NA
HETATM    4  C   UNL     1      43.565 -16.449   4.872  1.00  0.00     0.162 A 
HETATM    5  C   UNL     1      42.995 -16.799   3.679  1.00  0.00     0.081 A 
HETATM    6  C   UNL     1      42.109 -15.847   3.080  1.00  0.00     0.124 A 
HETATM    7  N   UNL     1      44.340 -17.513   5.228  1.00  0.00    -0.260 N 
HETATM    8  H   UNL     1      44.913 -17.615   6.059  1.00  0.00     0.191 HD
HETATM    9  N   UNL     1      44.308 -18.515   4.321  1.00  0.00    -0.177 NA
HETATM   10  C   UNL     1      43.481 -18.074   3.358  1.00  0.00     0.068 A 
HETATM   11  C   UNL     1      43.224 -18.931   2.176  1.00  0.00     0.073 C 
ENDROOT
BRANCH   2  12
HETATM   12  S   UNL     1      42.539 -12.884   5.917  1.00  0.00    -0.082 SA
BRANCH  12  13
HETATM   13  C   UNL     1      44.190 -12.868   6.682  1.00  0.00     0.185 C 
BRANCH  13  14
HETATM   14  C   UNL     1      44.470 -11.591   7.450  1.00  0.00     0.227 C 
HETATM   15  N   UNL     1      43.653 -11.356   8.536  1.00  0.00    -0.360 N 
HETATM   16  H   UNL     1      42.913 -12.023   8.720  1.00  0.00     0.162 HD
HETATM   17  O   UNL     1      45.309 -10.784   7.055  1.00  0.00    -0.273 OA
BRANCH  15  18
HETATM   18  C   UNL     1      43.583 -10.050   9.168  1.00  0.00     0.127 C 
BRANCH  18  19
HETATM   19  C   UNL     1      44.436  -9.972  10.433  1.00  0.00     0.058 C 
BRANCH  19  20
HETATM   20  C   UNL     1      43.622  -9.514  11.618  1.00  0.00    -0.057 A 
HETATM   21  C   UNL     1      43.703  -8.188  12.065  1.00  0.00     0.007 A 
HETATM   22  C   UNL     1      42.982  -7.774  13.186  1.00  0.00     0.001 A 
HETATM   23  C   UNL     1      42.178  -8.680  13.872  1.00  0.00     0.000 A 
HETATM   24  C   UNL     1      42.091 -10.002  13.438  1.00  0.00     0.001 A 
HETATM   25  C   UNL     1      42.810 -10.418  12.316  1.00  0.00     0.007 A 
ENDBRANCH  19  20
ENDBRANCH  18  19
ENDBRANCH  15  18
ENDBRANCH  13  14
ENDBRANCH  12  13
ENDBRANCH   2  12
BRANCH   1  26
HETATM   26  C   UNL     1      41.147 -13.543   3.235  1.00  0.00     0.043 A 
HETATM   27  C   UNL     1      39.768 -13.492   3.471  1.00  0.00     0.032 A 
HETATM   28  C   UNL     1      38.983 -12.518   2.848  1.00  0.00     0.026 A 
HETATM   29  C   UNL     1      39.562 -11.596   1.974  1.00  0.00     0.040 A 
HETATM   30  C   UNL     1      40.940 -11.630   1.713  1.00  0.00    -0.038 A 
HETATM   31 CL   UNL     1      38.529 -10.437   1.219  1.00  0.00    -0.084 Cl
HETATM   32  C   UNL     1      41.593 -10.661   0.767  1.00  0.00     0.050 C 
HETATM   33  C   UNL     1      41.721 -12.608   2.355  1.00  0.00     0.038 A 
ENDBRANCH   1  26
BRANCH   6  34
HETATM   34  N   UNL     1      41.451 -16.135   1.973  1.00  0.00    -0.384 N 
HETATM   35  H   UNL     1      41.623 -15.643   1.108  1.00  0.00     0.157 HD
HETATM   36  H   UNL     1      40.780 -16.893   1.963  1.00  0.00     0.157 HD
ENDBRANCH   6  34
TORSDOF 8
ENDMDL
MODEL 7
REMARK VINA RESULT:      -8.5      4.026      7.037
REMARK  8 active torsions:
REMARK  status: ('A' for Active; 'I' for Inactive)
REMARK    1  A    between atoms: C_7  and  N_8 
REMARK    2  A    between atoms: C_9  and  S_10 
REMARK    3  A    between atoms: S_10  and  C_11 
REMARK    4  A    between atoms: C_11  and  C_12 
REMARK       I    between atoms: C_12  and  N_13 
REMARK    5  A    between atoms: N_13  and  C_14 
REMARK    6  A    between atoms: C_14  and  C_15 
REMARK    7  A    between atoms: C_15  and  C_16 
REMARK    8  A    between atoms: C_26  and  N_27 
ROOT
HETATM    1  N   UNL     1      41.786 -13.556   1.770  1.00  0.00    -0.276 N 
HETATM    2  C   UNL     1      42.246 -12.257   2.120  1.00  0.00     0.177 A 
HETATM    3  N   UNL     1      41.795 -11.127   1.634  1.00  0.00    -0.204 NA
HETATM    4  C   UNL     1      40.802 -11.273   0.732  1.00  0.00     0.162 A 
HETATM    5  C   UNL     1      40.218 -12.417   0.265  1.00  0.00     0.081 A 
HETATM    6  C   UNL     1      40.727 -13.657   0.768  1.00  0.00     0.124 A 
HETATM    7  N   UNL     1      40.155 -10.253   0.099  1.00  0.00    -0.260 N 
HETATM    8  H   UNL     1      40.321  -9.256   0.194  1.00  0.00     0.191 HD
HETATM    9  N   UNL     1      39.181 -10.683  -0.733  1.00  0.00    -0.177 NA
HETATM   10  C   UNL     1      39.212 -12.021  -0.629  1.00  0.00     0.068 A 
HETATM   11  C   UNL     1      38.247 -12.833  -1.409  1.00  0.00     0.073 C 
ENDROOT
BRANCH   2  12
HETATM   12  S   UNL     1      43.505 -12.059   3.365  1.00  0.00    -0.082 SA
BRANCH  12  13
HETATM   13  C   UNL     1      42.642 -10.905   4.477  1.00  0.00     0.185 C 
BRANCH  13  14
HETATM   14  C   UNL     1      43.209 -10.909   5.884  1.00  0.00     0.227 C 
HETATM   15  N   UNL     1      44.561 -11.165   5.982  1.00  0.00    -0.360 N 
HETATM   16  H   UNL     1      45.065 -11.365   5.126  1.00  0.00     0.162 HD
HETATM   17  O   UNL     1      42.476 -10.789   6.864  1.00  0.00    -0.273 OA
BRANCH  15  18
HETATM   18  C   UNL     1      45.179 -11.516   7.249  1.00  0.00     0.127 C 
BRANCH  18  19
HETATM   19  C   UNL     1      45.963 -10.352   7.852  1.00  0.00     0.058 C 
BRANCH  19  20
HETATM   20  C   UNL     1      45.137  -9.598   8.865  1.00  0.00    -0.057 A 
HETATM   21  C   UNL     1      44.999 -10.084  10.172  1.00  0.00     0.007 A 
HETATM   22  C   UNL     1      44.201  -9.409  11.097  1.00  0.00     0.001 A 
HETATM   23  C   UNL     1      43.530  -8.247  10.724  1.00  0.00     0.000 A 
HETATM   24  C   UNL     1      43.658  -7.756   9.427  1.00  0.00     0.001 A 
HETATM   25  C   UNL     1      44.456  -8.428   8.499  1.00  0.00     0.007 A 
ENDBRANCH  19  20
ENDBRANCH  18  19
ENDBRANCH  15  18
ENDBRANCH  13  14
ENDBRANCH  12  13
ENDBRANCH   2  12
BRANCH   1  26
HETATM   26  C   UNL     1      42.308 -14.735   2.379  1.00  0.00     0.043 A 
HETATM   27  C   UNL     1      43.172 -15.590   1.686  1.00  0.00     0.032 A 
HETATM   28  C   UNL     1      43.603 -16.783   2.271  1.00  0.00     0.026 A 
HETATM   29  C   UNL     1      43.166 -17.142   3.548  1.00  0.00     0.040 A 
HETATM   30  C   UNL     1      42.295 -16.307   4.263  1.00  0.00    -0.038 A 
HETATM   31 CL   UNL     1      43.718 -18.642   4.201  1.00  0.00    -0.084 Cl
HETATM   32  C   UNL     1      41.794 -16.669   5.634  1.00  0.00     0.050 C 
HETATM   33  C   UNL     1      41.877 -15.104   3.667  1.00  0.00     0.038 A 
ENDBRANCH   1  26
BRANCH   6  34
HETATM   34  N   UNL     1      40.280 -14.811   0.310  1.00  0.00    -0.384 N 
HETATM   35  H   UNL     1      40.193 -15.623   0.904  1.00  0.00     0.157 HD
HETATM   36  H   UNL     1      39.974 -14.892  -0.652  1.00  0.00     0.157 HD
ENDBRANCH   6  34
TORSDOF 8
ENDMDL
MODEL 8
REMARK VINA RESULT:      -8.4      5.303      8.922
REMARK  8 active torsions:
REMARK  status: ('A' for Active; 'I' for Inactive)
REMARK    1  A    between atoms: C_7  and  N_8 
REMARK    2  A    between atoms: C_9  and  S_10 
REMARK    3  A    between atoms: S_10  and  C_11 
REMARK    4  A    between atoms: C_11  and  C_12 
REMARK       I    between atoms: C_12  and  N_13 
REMARK    5  A    between atoms: N_13  and  C_14 
REMARK    6  A    between atoms: C_14  and  C_15 
REMARK    7  A    between atoms: C_15  and  C_16 
REMARK    8  A    between atoms: C_26  and  N_27 
ROOT
HETATM    1  N   UNL     1      41.938 -14.054   4.940  1.00  0.00    -0.276 N 
HETATM    2  C   UNL     1      42.593 -12.993   5.623  1.00  0.00     0.177 A 
HETATM    3  N   UNL     1      42.282 -11.722   5.544  1.00  0.00    -0.204 NA
HETATM    4  C   UNL     1      41.234 -11.461   4.735  1.00  0.00     0.162 A 
HETATM    5  C   UNL     1      40.472 -12.325   3.999  1.00  0.00     0.081 A 
HETATM    6  C   UNL     1      40.826 -13.711   4.055  1.00  0.00     0.124 A 
HETATM    7  N   UNL     1      40.706 -10.226   4.502  1.00  0.00    -0.260 N 
HETATM    8  H   UNL     1      41.015  -9.335   4.878  1.00  0.00     0.191 HD
HETATM    9  N   UNL     1      39.641 -10.256   3.671  1.00  0.00    -0.177 NA
HETATM   10  C   UNL     1      39.489 -11.554   3.362  1.00  0.00     0.068 A 
HETATM   11  C   UNL     1      38.381 -11.962   2.465  1.00  0.00     0.073 C 
ENDROOT
BRANCH   2  12
HETATM   12  S   UNL     1      43.928 -13.343   6.749  1.00  0.00    -0.082 SA
BRANCH  12  13
HETATM   13  C   UNL     1      44.733 -11.711   6.770  1.00  0.00     0.185 C 
BRANCH  13  14
HETATM   14  C   UNL     1      44.748 -11.080   8.149  1.00  0.00     0.227 C 
HETATM   15  N   UNL     1      43.525 -10.654   8.624  1.00  0.00    -0.360 N 
HETATM   16  H   UNL     1      42.722 -10.758   8.015  1.00  0.00     0.162 HD
HETATM   17  O   UNL     1      45.805 -10.880   8.744  1.00  0.00    -0.273 OA
BRANCH  15  18
HETATM   18  C   UNL     1      43.420  -9.758   9.763  1.00  0.00     0.127 C 
BRANCH  18  19
HETATM   19  C   UNL     1      43.203 -10.512  11.074  1.00  0.00     0.058 C 
BRANCH  19  20
HETATM   20  C   UNL     1      42.923  -9.563  12.213  1.00  0.00    -0.057 A 
HETATM   21  C   UNL     1      41.971  -9.886  13.189  1.00  0.00     0.007 A 
HETATM   22  C   UNL     1      41.681  -8.991  14.220  1.00  0.00     0.001 A 
HETATM   23  C   UNL     1      42.338  -7.764  14.283  1.00  0.00     0.000 A 
HETATM   24  C   UNL     1      43.285  -7.431  13.317  1.00  0.00     0.001 A 
HETATM   25  C   UNL     1      43.577  -8.325  12.285  1.00  0.00     0.007 A 
ENDBRANCH  19  20
ENDBRANCH  18  19
ENDBRANCH  15  18
ENDBRANCH  13  14
ENDBRANCH  12  13
ENDBRANCH   2  12
BRANCH   1  26
HETATM   26  C   UNL     1      42.318 -15.417   5.114  1.00  0.00     0.043 A 
HETATM   27  C   UNL     1      42.259 -16.033   6.369  1.00  0.00     0.032 A 
HETATM   28  C   UNL     1      42.717 -17.342   6.534  1.00  0.00     0.026 A 
HETATM   29  C   UNL     1      43.251 -18.046   5.453  1.00  0.00     0.040 A 
HETATM   30  C   UNL     1      43.329 -17.450   4.185  1.00  0.00    -0.038 A 
HETATM   31 CL   UNL     1      43.822 -19.650   5.733  1.00  0.00    -0.084 Cl
HETATM   32  C   UNL     1      43.910 -18.174   3.002  1.00  0.00     0.050 C 
HETATM   33  C   UNL     1      42.855 -16.135   4.030  1.00  0.00     0.038 A 
ENDBRANCH   1  26
BRANCH   6  34
HETATM   34  N   UNL     1      40.199 -14.604   3.312  1.00  0.00    -0.384 N 
HETATM   35  H   UNL     1      39.750 -14.352   2.444  1.00  0.00     0.157 HD
HETATM   36  H   UNL     1      40.190 -15.578   3.587  1.00  0.00     0.157 HD
ENDBRANCH   6  34
TORSDOF 8
ENDMDL
MODEL 9
REMARK VINA RESULT:      -8.3      3.575      7.625
REMARK  8 active torsions:
REMARK  status: ('A' for Active; 'I' for Inactive)
REMARK    1  A    between atoms: C_7  and  N_8 
REMARK    2  A    between atoms: C_9  and  S_10 
REMARK    3  A    between atoms: S_10  and  C_11 
REMARK    4  A    between atoms: C_11  and  C_12 
REMARK       I    between atoms: C_12  and  N_13 
REMARK    5  A    between atoms: N_13  and  C_14 
REMARK    6  A    between atoms: C_14  and  C_15 
REMARK    7  A    between atoms: C_15  and  C_16 
REMARK    8  A    between atoms: C_26  and  N_27 
ROOT
HETATM    1  N   UNL     1      41.335 -14.773   2.813  1.00  0.00    -0.276 N 
HETATM    2  C   UNL     1      40.690 -14.338   4.003  1.00  0.00     0.177 A 
HETATM    3  N   UNL     1      40.863 -14.846   5.199  1.00  0.00    -0.204 NA
HETATM    4  C   UNL     1      41.749 -15.863   5.242  1.00  0.00     0.162 A 
HETATM    5  C   UNL     1      42.473 -16.425   4.227  1.00  0.00     0.081 A 
HETATM    6  C   UNL     1      42.265 -15.896   2.913  1.00  0.00     0.124 A 
HETATM    7  N   UNL     1      42.116 -16.543   6.366  1.00  0.00    -0.260 N 
HETATM    8  H   UNL     1      41.783 -16.404   7.314  1.00  0.00     0.191 HD
HETATM    9  N   UNL     1      43.044 -17.495   6.126  1.00  0.00    -0.177 NA
HETATM   10  C   UNL     1      43.272 -17.422   4.805  1.00  0.00     0.068 A 
HETATM   11  C   UNL     1      44.268 -18.330   4.188  1.00  0.00     0.073 C 
ENDROOT
BRANCH   2  12
HETATM   12  S   UNL     1      39.576 -12.948   3.962  1.00  0.00    -0.082 SA
BRANCH  12  13
HETATM   13  C   UNL     1      40.373 -11.893   5.213  1.00  0.00     0.185 C 
BRANCH  13  14
HETATM   14  C   UNL     1      41.757 -11.432   4.799  1.00  0.00     0.227 C 
HETATM   15  N   UNL     1      42.810 -12.098   5.390  1.00  0.00    -0.360 N 
HETATM   16  H   UNL     1      42.590 -12.811   6.075  1.00  0.00     0.162 HD
HETATM   17  O   UNL     1      41.907 -10.461   4.060  1.00  0.00    -0.273 OA
BRANCH  15  18
HETATM   18  C   UNL     1      44.164 -11.573   5.346  1.00  0.00     0.127 C 
BRANCH  18  19
HETATM   19  C   UNL     1      45.012 -12.060   6.519  1.00  0.00     0.058 C 
BRANCH  19  20
HETATM   20  C   UNL     1      45.041 -11.046   7.636  1.00  0.00    -0.057 A 
HETATM   21  C   UNL     1      44.039 -11.040   8.616  1.00  0.00     0.007 A 
HETATM   22  C   UNL     1      44.041 -10.076   9.625  1.00  0.00     0.001 A 
HETATM   23  C   UNL     1      45.042  -9.108   9.663  1.00  0.00     0.000 A 
HETATM   24  C   UNL     1      46.043  -9.103   8.693  1.00  0.00     0.001 A 
HETATM   25  C   UNL     1      46.043 -10.067   7.683  1.00  0.00     0.007 A 
ENDBRANCH  19  20
ENDBRANCH  18  19
ENDBRANCH  15  18
ENDBRANCH  13  14
ENDBRANCH  12  13
ENDBRANCH   2  12
BRANCH   1  26
HETATM   26  C   UNL     1      41.117 -14.135   1.557  1.00  0.00     0.043 A 
HETATM   27  C   UNL     1      41.597 -12.846   1.304  1.00  0.00     0.032 A 
HETATM   28  C   UNL     1      41.299 -12.207   0.097  1.00  0.00     0.026 A 
HETATM   29  C   UNL     1      40.507 -12.841  -0.862  1.00  0.00     0.040 A 
HETATM   30  C   UNL     1      40.007 -14.132  -0.631  1.00  0.00    -0.038 A 
HETATM   31 CL   UNL     1      40.156 -11.984  -2.318  1.00  0.00    -0.084 Cl
HETATM   32  C   UNL     1      39.141 -14.839  -1.637  1.00  0.00     0.050 C 
HETATM   33  C   UNL     1      40.323 -14.768   0.582  1.00  0.00     0.038 A 
ENDBRANCH   1  26
BRANCH   6  34
HETATM   34  N   UNL     1      42.858 -16.432   1.863  1.00  0.00    -0.384 N 
HETATM   35  H   UNL     1      42.872 -17.430   1.712  1.00  0.00     0.157 HD
HETATM   36  H   UNL     1      43.281 -15.839   1.160  1.00  0.00     0.157 HD
ENDBRANCH   6  34
TORSDOF 8
ENDMDL
MODEL 10
REMARK VINA RESULT:      -8.2      1.899      2.187
REMARK  8 active torsions:
REMARK  status: ('A' for Active; 'I' for Inactive)
REMARK    1  A    between atoms: C_7  and  N_8 
REMARK    2  A    between atoms: C_9  and  S_10 
REMARK    3  A    between atoms: S_10  and  C_11 
REMARK    4  A    between atoms: C_11  and  C_12 
REMARK       I    between atoms: C_12  and  N_13 
REMARK    5  A    between atoms: N_13  and  C_14 
REMARK    6  A    between atoms: C_14  and  C_15 
REMARK    7  A    between atoms: C_15  and  C_16 
REMARK    8  A    between atoms: C_26  and  N_27 
ROOT
HETATM    1  N   UNL     1      39.697 -11.686   1.533  1.00  0.00    -0.276 N 
HETATM    2  C   UNL     1      40.973 -12.303   1.427  1.00  0.00     0.177 A 
HETATM    3  N   UNL     1      41.360 -13.104   0.464  1.00  0.00    -0.204 NA
HETATM    4  C   UNL     1      40.425 -13.317  -0.484  1.00  0.00     0.162 A 
HETATM    5  C   UNL     1      39.153 -12.822  -0.573  1.00  0.00     0.081 A 
HETATM    6  C   UNL     1      38.712 -11.972   0.492  1.00  0.00     0.124 A 
HETATM    7  N   UNL     1      40.589 -14.091  -1.595  1.00  0.00    -0.260 N 
HETATM    8  H   UNL     1      41.409 -14.622  -1.868  1.00  0.00     0.191 HD
HETATM    9  N   UNL     1      39.499 -14.105  -2.393  1.00  0.00    -0.177 NA
HETATM   10  C   UNL     1      38.610 -13.316  -1.768  1.00  0.00     0.068 A 
HETATM   11  C   UNL     1      37.281 -13.089  -2.385  1.00  0.00     0.073 C 
ENDROOT
BRANCH   2  12
HETATM   12  S   UNL     1      42.235 -11.965   2.639  1.00  0.00    -0.082 SA
BRANCH  12  13
HETATM   13  C   UNL     1      43.136 -13.546   2.577  1.00  0.00     0.185 C 
BRANCH  13  14
HETATM   14  C   UNL     1      42.523 -14.607   3.470  1.00  0.00     0.227 C 
HETATM   15  N   UNL     1      43.303 -15.020   4.529  1.00  0.00    -0.360 N 
HETATM   16  H   UNL     1      44.229 -14.618   4.615  1.00  0.00     0.162 HD
HETATM   17  O   UNL     1      41.443 -15.124   3.191  1.00  0.00    -0.273 OA
BRANCH  15  18
HETATM   18  C   UNL     1      43.001 -16.232   5.271  1.00  0.00     0.127 C 
BRANCH  18  19
HETATM   19  C   UNL     1      44.198 -17.179   5.344  1.00  0.00     0.058 C 
BRANCH  19  20
HETATM   20  C   UNL     1      44.018 -18.365   4.429  1.00  0.00    -0.057 A 
HETATM   21  C   UNL     1      43.605 -18.182   3.103  1.00  0.00     0.007 A 
HETATM   22  C   UNL     1      43.398 -19.281   2.268  1.00  0.00     0.001 A 
HETATM   23  C   UNL     1      43.598 -20.572   2.751  1.00  0.00     0.000 A 
HETATM   24  C   UNL     1      44.007 -20.766   4.068  1.00  0.00     0.001 A 
HETATM   25  C   UNL     1      44.215 -19.668   4.906  1.00  0.00     0.007 A 
ENDBRANCH  19  20
ENDBRANCH  18  19
ENDBRANCH  15  18
ENDBRANCH  13  14
ENDBRANCH  12  13
ENDBRANCH   2  12
BRANCH   1  26
HETATM   26  C   UNL     1      39.372 -10.795   2.598  1.00  0.00     0.043 A 
HETATM   27  C   UNL     1      39.394  -9.408   2.416  1.00  0.00     0.032 A 
HETATM   28  C   UNL     1      39.156  -8.551   3.494  1.00  0.00     0.026 A 
HETATM   29  C   UNL     1      38.908  -9.070   4.766  1.00  0.00     0.040 A 
HETATM   30  C   UNL     1      38.887 -10.456   4.979  1.00  0.00    -0.038 A 
HETATM   31 CL   UNL     1      38.648  -7.955   6.058  1.00  0.00    -0.084 Cl
HETATM   32  C   UNL     1      38.635 -11.048   6.338  1.00  0.00     0.050 C 
HETATM   33  C   UNL     1      39.117 -11.307   3.883  1.00  0.00     0.038 A 
ENDBRANCH   1  26
BRANCH   6  34
HETATM   34  N   UNL     1      37.474 -11.519   0.531  1.00  0.00    -0.384 N 
HETATM   35  H   UNL     1      37.258 -10.587   0.853  1.00  0.00     0.157 HD
HETATM   36  H   UNL     1      36.711 -12.094   0.195  1.00  0.00     0.157 HD
ENDBRANCH   6  34
TORSDOF 8
ENDMDL
