MODEL 1
REMARK VINA RESULT:     -10.2      0.000      0.000
REMARK  6 active torsions:
REMARK  status: ('A' for Active; 'I' for Inactive)
REMARK    1  A    between atoms: C_4  and  C_5 
REMARK    2  A    between atoms: C_5  and  C_6 
REMARK    3  A    between atoms: C_10  and  C_11 
REMARK    4  A    between atoms: C_10  and  C_15 
REMARK    5  A    between atoms: N_19  and  C_20 
REMARK    6  A    between atoms: C_20  and  C_21 
ROOT
HETATM    1  C   UNL     1      43.557 -16.182   4.757  1.00  0.00     0.084 C 
HETATM    2  N   UNL     1      43.466 -15.089   5.484  1.00  0.00    -0.331 N 
HETATM    3  C   UNL     1      42.629 -14.043   5.167  1.00  0.00     0.128 C 
HETATM    4  C   UNL     1      41.955 -14.079   4.009  1.00  0.00     0.100 C 
HETATM    5  C   UNL     1      42.060 -15.193   2.996  1.00  0.00     0.264 C 
HETATM    6  N   UNL     1      42.501 -12.984   6.052  1.00  0.00    -0.278 N 
HETATM    7  C   UNL     1      41.736 -11.867   5.747  1.00  0.00     0.331 C 
HETATM    8  O   UNL     1      41.591 -10.903   6.490  1.00  0.00    -0.246 OA
HETATM    9  N   UNL     1      41.104 -11.894   4.540  1.00  0.00    -0.275 N 
HETATM   10  C   UNL     1      41.078 -12.947   3.692  1.00  0.00     0.262 C 
HETATM   11  O   UNL     1      40.368 -12.986   2.702  1.00  0.00    -0.267 OA
HETATM   12  N   UNL     1      42.891 -16.322   3.632  1.00  0.00    -0.351 N 
HETATM   13  H   UNL     1      42.977 -17.200   3.110  1.00  0.00     0.162 HD
HETATM   14  H   UNL     1      44.078 -15.020   6.300  1.00  0.00     0.168 HD
HETATM   15  H   UNL     1      40.500 -11.106   4.335  1.00  0.00     0.173 HD
ENDROOT
BRANCH   5  16
HETATM   16  C   UNL     1      42.794 -14.759   1.723  1.00  0.00     0.426 C 
HETATM   17  F   UNL     1      43.819 -13.932   2.065  1.00  0.00    -0.168 F 
HETATM   18  F   UNL     1      43.363 -15.829   1.120  1.00  0.00    -0.168 F 
HETATM   19  F   UNL     1      42.047 -14.112   0.822  1.00  0.00    -0.168 F 
ENDBRANCH   5  16
BRANCH   5  20
HETATM   20  C   UNL     1      40.741 -15.822   2.532  1.00  0.00     0.426 C 
HETATM   21  F   UNL     1      39.906 -15.975   3.589  1.00  0.00    -0.168 F 
HETATM   22  F   UNL     1      40.088 -15.180   1.559  1.00  0.00    -0.168 F 
HETATM   23  F   UNL     1      40.999 -17.080   2.075  1.00  0.00    -0.168 F 
ENDBRANCH   5  20
BRANCH   1  24
HETATM   24  C   UNL     1      44.428 -17.300   5.231  1.00  0.00     0.114 C 
BRANCH  24  25
HETATM   25  C   UNL     1      44.249 -18.609   4.499  1.00  0.00    -0.051 A 
HETATM   26  C   UNL     1      44.101 -19.791   5.244  1.00  0.00     0.007 A 
HETATM   27  C   UNL     1      43.863 -21.011   4.608  1.00  0.00     0.001 A 
HETATM   28  C   UNL     1      43.761 -21.065   3.221  1.00  0.00     0.000 A 
HETATM   29  C   UNL     1      43.896 -19.902   2.470  1.00  0.00     0.001 A 
HETATM   30  C   UNL     1      44.131 -18.679   3.103  1.00  0.00     0.007 A 
ENDBRANCH  24  25
ENDBRANCH   1  24
BRANCH   6  31
HETATM   31  C   UNL     1      43.144 -12.981   7.370  1.00  0.00     0.200 C 
BRANCH  31  32
HETATM   32  C   UNL     1      44.315 -12.067   7.355  1.00  0.00     0.070 A 
HETATM   33  O   UNL     1      44.543 -11.357   8.503  1.00  0.00    -0.325 OA
HETATM   34  C   UNL     1      45.650 -10.600   8.280  1.00  0.00     0.142 A 
HETATM   35  C   UNL     1      46.136 -10.819   7.013  1.00  0.00     0.027 A 
HETATM   36  C   UNL     1      45.275 -11.767   6.412  1.00  0.00     0.036 A 
ENDBRANCH  31  32
ENDBRANCH   6  31
TORSDOF 6
ENDMDL
MODEL 2
REMARK VINA RESULT:      -9.6      2.728      5.149
REMARK  6 active torsions:
REMARK  status: ('A' for Active; 'I' for Inactive)
REMARK    1  A    between atoms: C_4  and  C_5 
REMARK    2  A    between atoms: C_5  and  C_6 
REMARK    3  A    between atoms: C_10  and  C_11 
REMARK    4  A    between atoms: C_10  and  C_15 
REMARK    5  A    between atoms: N_19  and  C_20 
REMARK    6  A    between atoms: C_20  and  C_21 
ROOT
HETATM    1  C   UNL     1      42.749 -16.171   3.025  1.00  0.00     0.084 C 
HETATM    2  N   UNL     1      41.745 -15.542   2.452  1.00  0.00    -0.331 N 
HETATM    3  C   UNL     1      40.973 -14.608   3.104  1.00  0.00     0.128 C 
HETATM    4  C   UNL     1      41.171 -14.401   4.414  1.00  0.00     0.100 C 
HETATM    5  C   UNL     1      42.185 -15.145   5.250  1.00  0.00     0.264 C 
HETATM    6  N   UNL     1      40.015 -13.903   2.393  1.00  0.00    -0.278 N 
HETATM    7  C   UNL     1      39.154 -13.009   3.016  1.00  0.00     0.331 C 
HETATM    8  O   UNL     1      38.289 -12.363   2.437  1.00  0.00    -0.246 OA
HETATM    9  N   UNL     1      39.331 -12.855   4.358  1.00  0.00    -0.275 N 
HETATM   10  C   UNL     1      40.328 -13.408   5.086  1.00  0.00     0.262 C 
HETATM   11  O   UNL     1      40.544 -13.114   6.250  1.00  0.00    -0.267 OA
HETATM   12  N   UNL     1      43.047 -15.990   4.293  1.00  0.00    -0.351 N 
HETATM   13  H   UNL     1      43.851 -16.485   4.690  1.00  0.00     0.162 HD
HETATM   14  H   UNL     1      41.524 -15.799   1.488  1.00  0.00     0.168 HD
HETATM   15  H   UNL     1      38.743 -12.164   4.810  1.00  0.00     0.173 HD
ENDROOT
BRANCH   5  16
HETATM   16  C   UNL     1      41.531 -16.116   6.238  1.00  0.00     0.426 C 
HETATM   17  F   UNL     1      40.357 -16.559   5.710  1.00  0.00    -0.168 F 
HETATM   18  F   UNL     1      42.305 -17.214   6.401  1.00  0.00    -0.168 F 
HETATM   19  F   UNL     1      41.256 -15.608   7.445  1.00  0.00    -0.168 F 
ENDBRANCH   5  16
BRANCH   5  20
HETATM   20  C   UNL     1      43.152 -14.287   6.075  1.00  0.00     0.426 C 
HETATM   21  F   UNL     1      43.542 -13.208   5.353  1.00  0.00    -0.168 F 
HETATM   22  F   UNL     1      42.707 -13.871   7.264  1.00  0.00    -0.168 F 
HETATM   23  F   UNL     1      44.284 -15.011   6.304  1.00  0.00    -0.168 F 
ENDBRANCH   5  20
BRANCH   1  24
HETATM   24  C   UNL     1      43.585 -17.102   2.208  1.00  0.00     0.114 C 
BRANCH  24  25
HETATM   25  C   UNL     1      43.777 -18.480   2.798  1.00  0.00    -0.051 A 
HETATM   26  C   UNL     1      44.205 -18.595   4.131  1.00  0.00     0.007 A 
HETATM   27  C   UNL     1      44.326 -19.848   4.735  1.00  0.00     0.001 A 
HETATM   28  C   UNL     1      44.014 -21.000   4.020  1.00  0.00     0.000 A 
HETATM   29  C   UNL     1      43.579 -20.901   2.702  1.00  0.00     0.001 A 
HETATM   30  C   UNL     1      43.453 -19.649   2.095  1.00  0.00     0.007 A 
ENDBRANCH  24  25
ENDBRANCH   1  24
BRANCH   6  31
HETATM   31  C   UNL     1      39.861 -14.036   0.940  1.00  0.00     0.200 C 
BRANCH  31  32
HETATM   32  C   UNL     1      40.264 -12.771   0.275  1.00  0.00     0.070 A 
HETATM   33  O   UNL     1      39.403 -12.285  -0.672  1.00  0.00    -0.325 OA
HETATM   34  C   UNL     1      39.951 -11.133  -1.143  1.00  0.00     0.142 A 
HETATM   35  C   UNL     1      41.143 -10.872  -0.509  1.00  0.00     0.027 A 
HETATM   36  C   UNL     1      41.347 -11.930   0.409  1.00  0.00     0.036 A 
ENDBRANCH  31  32
ENDBRANCH   6  31
TORSDOF 6
ENDMDL
MODEL 3
REMARK VINA RESULT:      -9.1      3.793      5.278
REMARK  6 active torsions:
REMARK  status: ('A' for Active; 'I' for Inactive)
REMARK    1  A    between atoms: C_4  and  C_5 
REMARK    2  A    between atoms: C_5  and  C_6 
REMARK    3  A    between atoms: C_10  and  C_11 
REMARK    4  A    between atoms: C_10  and  C_15 
REMARK    5  A    between atoms: N_19  and  C_20 
REMARK    6  A    between atoms: C_20  and  C_21 
ROOT
HETATM    1  C   UNL     1      39.762 -14.469   0.601  1.00  0.00     0.084 C 
HETATM    2  N   UNL     1      39.928 -13.432   1.393  1.00  0.00    -0.331 N 
HETATM    3  C   UNL     1      39.698 -12.135   0.993  1.00  0.00     0.128 C 
HETATM    4  C   UNL     1      39.398 -11.896  -0.292  1.00  0.00     0.100 C 
HETATM    5  C   UNL     1      39.312 -12.961  -1.359  1.00  0.00     0.264 C 
HETATM    6  N   UNL     1      39.776 -11.112   1.925  1.00  0.00    -0.278 N 
HETATM    7  C   UNL     1      39.634  -9.781   1.560  1.00  0.00     0.331 C 
HETATM    8  O   UNL     1      39.698  -8.838   2.341  1.00  0.00    -0.246 OA
HETATM    9  N   UNL     1      39.389  -9.551   0.240  1.00  0.00    -0.275 N 
HETATM   10  C   UNL     1      39.168 -10.505  -0.693  1.00  0.00     0.262 C 
HETATM   11  O   UNL     1      38.791 -10.253  -1.826  1.00  0.00    -0.267 OA
HETATM   12  N   UNL     1      39.420 -14.328  -0.661  1.00  0.00    -0.351 N 
HETATM   13  H   UNL     1      39.281 -15.166  -1.234  1.00  0.00     0.162 HD
HETATM   14  H   UNL     1      40.277 -13.617   2.336  1.00  0.00     0.168 HD
HETATM   15  H   UNL     1      39.230  -8.585  -0.023  1.00  0.00     0.173 HD
ENDROOT
BRANCH   5  16
HETATM   16  C   UNL     1      40.466 -12.878  -2.363  1.00  0.00     0.426 C 
HETATM   17  F   UNL     1      41.577 -12.423  -1.721  1.00  0.00    -0.168 F 
HETATM   18  F   UNL     1      40.779 -14.112  -2.822  1.00  0.00    -0.168 F 
HETATM   19  F   UNL     1      40.258 -12.076  -3.413  1.00  0.00    -0.168 F 
ENDBRANCH   5  16
BRANCH   5  20
HETATM   20  C   UNL     1      38.026 -12.989  -2.193  1.00  0.00     0.426 C 
HETATM   21  F   UNL     1      36.962 -12.678  -1.412  1.00  0.00    -0.168 F 
HETATM   22  F   UNL     1      38.004 -12.208  -3.277  1.00  0.00    -0.168 F 
HETATM   23  F   UNL     1      37.815 -14.267  -2.619  1.00  0.00    -0.168 F 
ENDBRANCH   5  20
BRANCH   1  24
HETATM   24  C   UNL     1      39.951 -15.844   1.154  1.00  0.00     0.114 C 
BRANCH  24  25
HETATM   25  C   UNL     1      41.114 -16.001   2.106  1.00  0.00    -0.051 A 
HETATM   26  C   UNL     1      40.853 -16.209   3.470  1.00  0.00     0.007 A 
HETATM   27  C   UNL     1      41.897 -16.429   4.371  1.00  0.00     0.001 A 
HETATM   28  C   UNL     1      43.213 -16.454   3.920  1.00  0.00     0.000 A 
HETATM   29  C   UNL     1      43.487 -16.261   2.569  1.00  0.00     0.001 A 
HETATM   30  C   UNL     1      42.445 -16.043   1.664  1.00  0.00     0.007 A 
ENDBRANCH  24  25
ENDBRANCH   1  24
BRANCH   6  31
HETATM   31  C   UNL     1      39.993 -11.368   3.353  1.00  0.00     0.200 C 
BRANCH  31  32
HETATM   32  C   UNL     1      41.442 -11.561   3.613  1.00  0.00     0.070 A 
HETATM   33  O   UNL     1      41.876 -12.857   3.685  1.00  0.00    -0.325 OA
HETATM   34  C   UNL     1      43.215 -12.809   3.918  1.00  0.00     0.142 A 
HETATM   35  C   UNL     1      43.644 -11.504   3.991  1.00  0.00     0.027 A 
HETATM   36  C   UNL     1      42.500 -10.696   3.794  1.00  0.00     0.036 A 
ENDBRANCH  31  32
ENDBRANCH   6  31
TORSDOF 6
ENDMDL
MODEL 4
REMARK VINA RESULT:      -9.0      3.643      6.704
REMARK  6 active torsions:
REMARK  status: ('A' for Active; 'I' for Inactive)
REMARK    1  A    between atoms: C_4  and  C_5 
REMARK    2  A    between atoms: C_5  and  C_6 
REMARK    3  A    between atoms: C_10  and  C_11 
REMARK    4  A    between atoms: C_10  and  C_15 
REMARK    5  A    between atoms: N_19  and  C_20 
REMARK    6  A    between atoms: C_20  and  C_21 
ROOT
HETATM    1  C   UNL     1      40.141 -14.458   0.528  1.00  0.00     0.084 C 
HETATM    2  N   UNL     1      39.564 -13.522   1.252  1.00  0.00    -0.331 N 
HETATM    3  C   UNL     1      39.994 -13.175   2.512  1.00  0.00     0.128 C 
HETATM    4  C   UNL     1      40.973 -13.890   3.084  1.00  0.00     0.100 C 
HETATM    5  C   UNL     1      41.640 -15.085   2.446  1.00  0.00     0.264 C 
HETATM    6  N   UNL     1      39.410 -12.095   3.156  1.00  0.00    -0.278 N 
HETATM    7  C   UNL     1      39.747 -11.751   4.457  1.00  0.00     0.331 C 
HETATM    8  O   UNL     1      39.261 -10.810   5.073  1.00  0.00    -0.246 OA
HETATM    9  N   UNL     1      40.702 -12.525   5.045  1.00  0.00    -0.275 N 
HETATM   10  C   UNL     1      41.405 -13.505   4.432  1.00  0.00     0.262 C 
HETATM   11  O   UNL     1      42.361 -14.060   4.946  1.00  0.00    -0.267 OA
HETATM   12  N   UNL     1      41.141 -15.174   0.993  1.00  0.00    -0.351 N 
HETATM   13  H   UNL     1      41.573 -15.877   0.384  1.00  0.00     0.162 HD
HETATM   14  H   UNL     1      38.739 -13.068   0.854  1.00  0.00     0.168 HD
HETATM   15  H   UNL     1      40.992 -12.247   5.976  1.00  0.00     0.173 HD
ENDROOT
BRANCH   5  16
HETATM   16  C   UNL     1      41.262 -16.402   3.131  1.00  0.00     0.426 C 
HETATM   17  F   UNL     1      39.937 -16.373   3.442  1.00  0.00    -0.168 F 
HETATM   18  F   UNL     1      41.423 -17.440   2.277  1.00  0.00    -0.168 F 
HETATM   19  F   UNL     1      41.927 -16.674   4.259  1.00  0.00    -0.168 F 
ENDBRANCH   5  16
BRANCH   5  20
HETATM   20  C   UNL     1      43.172 -15.062   2.388  1.00  0.00     0.426 C 
HETATM   21  F   UNL     1      43.610 -13.786   2.249  1.00  0.00    -0.168 F 
HETATM   22  F   UNL     1      43.813 -15.626   3.415  1.00  0.00    -0.168 F 
HETATM   23  F   UNL     1      43.572 -15.717   1.261  1.00  0.00    -0.168 F 
ENDBRANCH   5  20
BRANCH   1  24
HETATM   24  C   UNL     1      39.657 -14.702  -0.864  1.00  0.00     0.114 C 
BRANCH  24  25
HETATM   25  C   UNL     1      39.468 -13.462  -1.707  1.00  0.00    -0.051 A 
HETATM   26  C   UNL     1      38.173 -12.943  -1.871  1.00  0.00     0.007 A 
HETATM   27  C   UNL     1      37.963 -11.759  -2.582  1.00  0.00     0.001 A 
HETATM   28  C   UNL     1      39.044 -11.075  -3.130  1.00  0.00     0.000 A 
HETATM   29  C   UNL     1      40.334 -11.572  -2.967  1.00  0.00     0.001 A 
HETATM   30  C   UNL     1      40.548 -12.753  -2.254  1.00  0.00     0.007 A 
ENDBRANCH  24  25
ENDBRANCH   1  24
BRANCH   6  31
HETATM   31  C   UNL     1      38.418 -11.236   2.501  1.00  0.00     0.200 C 
BRANCH  31  32
HETATM   32  C   UNL     1      39.108 -10.191   1.703  1.00  0.00     0.070 A 
HETATM   33  O   UNL     1      39.307  -8.988   2.324  1.00  0.00    -0.325 OA
HETATM   34  C   UNL     1      39.954  -8.190   1.433  1.00  0.00     0.142 A 
HETATM   35  C   UNL     1      40.175  -8.864   0.255  1.00  0.00     0.027 A 
HETATM   36  C   UNL     1      39.630 -10.158   0.427  1.00  0.00     0.036 A 
ENDBRANCH  31  32
ENDBRANCH   6  31
TORSDOF 6
ENDMDL
MODEL 5
REMARK VINA RESULT:      -8.8      3.196      6.054
REMARK  6 active torsions:
REMARK  status: ('A' for Active; 'I' for Inactive)
REMARK    1  A    between atoms: C_4  and  C_5 
REMARK    2  A    between atoms: C_5  and  C_6 
REMARK    3  A    between atoms: C_10  and  C_11 
REMARK    4  A    between atoms: C_10  and  C_15 
REMARK    5  A    between atoms: N_19  and  C_20 
REMARK    6  A    between atoms: C_20  and  C_21 
ROOT
HETATM    1  C   UNL     1      41.366 -12.722   0.753  1.00  0.00     0.084 C 
HETATM    2  N   UNL     1      41.422 -11.993   1.847  1.00  0.00    -0.331 N 
HETATM    3  C   UNL     1      41.876 -12.480   3.052  1.00  0.00     0.128 C 
HETATM    4  C   UNL     1      42.171 -13.783   3.157  1.00  0.00     0.100 C 
HETATM    5  C   UNL     1      42.022 -14.783   2.035  1.00  0.00     0.264 C 
HETATM    6  N   UNL     1      42.020 -11.613   4.124  1.00  0.00    -0.278 N 
HETATM    7  C   UNL     1      42.394 -12.063   5.382  1.00  0.00     0.331 C 
HETATM    8  O   UNL     1      42.533 -11.342   6.363  1.00  0.00    -0.246 OA
HETATM    9  N   UNL     1      42.633 -13.401   5.484  1.00  0.00    -0.275 N 
HETATM   10  C   UNL     1      42.641 -14.277   4.454  1.00  0.00     0.262 C 
HETATM   11  O   UNL     1      43.020 -15.431   4.566  1.00  0.00    -0.267 OA
HETATM   12  N   UNL     1      41.686 -13.998   0.754  1.00  0.00    -0.351 N 
HETATM   13  H   UNL     1      41.648 -14.520  -0.127  1.00  0.00     0.162 HD
HETATM   14  H   UNL     1      41.077 -11.033   1.785  1.00  0.00     0.168 HD
HETATM   15  H   UNL     1      42.959 -13.728   6.387  1.00  0.00     0.173 HD
ENDROOT
BRANCH   5  16
HETATM   16  C   UNL     1      40.869 -15.764   2.274  1.00  0.00     0.426 C 
HETATM   17  F   UNL     1      40.160 -15.901   1.120  1.00  0.00    -0.168 F 
HETATM   18  F   UNL     1      41.352 -16.995   2.564  1.00  0.00    -0.168 F 
HETATM   19  F   UNL     1      40.004 -15.411   3.231  1.00  0.00    -0.168 F 
ENDBRANCH   5  16
BRANCH   5  20
HETATM   20  C   UNL     1      43.251 -15.642   1.718  1.00  0.00     0.426 C 
HETATM   21  F   UNL     1      44.327 -14.846   1.497  1.00  0.00    -0.168 F 
HETATM   22  F   UNL     1      43.580 -16.565   2.626  1.00  0.00    -0.168 F 
HETATM   23  F   UNL     1      43.028 -16.300   0.545  1.00  0.00    -0.168 F 
ENDBRANCH   5  20
BRANCH   1  24
HETATM   24  C   UNL     1      40.944 -12.079  -0.528  1.00  0.00     0.114 C 
BRANCH  24  25
HETATM   25  C   UNL     1      39.884 -12.826  -1.304  1.00  0.00    -0.051 A 
HETATM   26  C   UNL     1      38.552 -12.383  -1.235  1.00  0.00     0.007 A 
HETATM   27  C   UNL     1      37.555 -13.001  -1.992  1.00  0.00     0.001 A 
HETATM   28  C   UNL     1      37.875 -14.062  -2.833  1.00  0.00     0.000 A 
HETATM   29  C   UNL     1      39.191 -14.504  -2.920  1.00  0.00     0.001 A 
HETATM   30  C   UNL     1      40.193 -13.887  -2.167  1.00  0.00     0.007 A 
ENDBRANCH  24  25
ENDBRANCH   1  24
BRANCH   6  31
HETATM   31  C   UNL     1      41.808 -10.167   3.996  1.00  0.00     0.200 C 
BRANCH  31  32
HETATM   32  C   UNL     1      40.369  -9.852   4.187  1.00  0.00     0.070 A 
HETATM   33  O   UNL     1      39.609  -9.785   3.051  1.00  0.00    -0.325 OA
HETATM   34  C   UNL     1      38.340  -9.498   3.446  1.00  0.00     0.142 A 
HETATM   35  C   UNL     1      38.276  -9.386   4.815  1.00  0.00     0.027 A 
HETATM   36  C   UNL     1      39.586  -9.615   5.297  1.00  0.00     0.036 A 
ENDBRANCH  31  32
ENDBRANCH   6  31
TORSDOF 6
ENDMDL
MODEL 6
REMARK VINA RESULT:      -8.8      3.015      6.220
REMARK  6 active torsions:
REMARK  status: ('A' for Active; 'I' for Inactive)
REMARK    1  A    between atoms: C_4  and  C_5 
REMARK    2  A    between atoms: C_5  and  C_6 
REMARK    3  A    between atoms: C_10  and  C_11 
REMARK    4  A    between atoms: C_10  and  C_15 
REMARK    5  A    between atoms: N_19  and  C_20 
REMARK    6  A    between atoms: C_20  and  C_21 
ROOT
HETATM    1  C   UNL     1      43.183 -12.617   3.173  1.00  0.00     0.084 C 
HETATM    2  N   UNL     1      42.528 -12.198   2.112  1.00  0.00    -0.331 N 
HETATM    3  C   UNL     1      41.504 -12.911   1.530  1.00  0.00     0.128 C 
HETATM    4  C   UNL     1      41.226 -14.140   1.988  1.00  0.00     0.100 C 
HETATM    5  C   UNL     1      41.980 -14.824   3.103  1.00  0.00     0.264 C 
HETATM    6  N   UNL     1      40.784 -12.341   0.492  1.00  0.00    -0.278 N 
HETATM    7  C   UNL     1      39.797 -13.045  -0.184  1.00  0.00     0.331 C 
HETATM    8  O   UNL     1      39.133 -12.591  -1.109  1.00  0.00    -0.246 OA
HETATM    9  N   UNL     1      39.568 -14.314   0.256  1.00  0.00    -0.275 N 
HETATM   10  C   UNL     1      40.138 -14.881   1.344  1.00  0.00     0.262 C 
HETATM   11  O   UNL     1      39.783 -15.957   1.795  1.00  0.00    -0.267 OA
HETATM   12  N   UNL     1      42.940 -13.790   3.718  1.00  0.00    -0.351 N 
HETATM   13  H   UNL     1      43.461 -14.064   4.557  1.00  0.00     0.162 HD
HETATM   14  H   UNL     1      42.832 -11.315   1.696  1.00  0.00     0.168 HD
HETATM   15  H   UNL     1      38.812 -14.814  -0.197  1.00  0.00     0.173 HD
ENDROOT
BRANCH   5  16
HETATM   16  C   UNL     1      42.839 -15.989   2.601  1.00  0.00     0.426 C 
HETATM   17  F   UNL     1      43.487 -15.603   1.468  1.00  0.00    -0.168 F 
HETATM   18  F   UNL     1      43.805 -16.284   3.502  1.00  0.00    -0.168 F 
HETATM   19  F   UNL     1      42.172 -17.112   2.312  1.00  0.00    -0.168 F 
ENDBRANCH   5  16
BRANCH   5  20
HETATM   20  C   UNL     1      41.137 -15.384   4.254  1.00  0.00     0.426 C 
HETATM   21  F   UNL     1      40.106 -14.545   4.523  1.00  0.00    -0.168 F 
HETATM   22  F   UNL     1      40.653 -16.618   4.089  1.00  0.00    -0.168 F 
HETATM   23  F   UNL     1      41.903 -15.406   5.382  1.00  0.00    -0.168 F 
ENDBRANCH   5  20
BRANCH   1  24
HETATM   24  C   UNL     1      44.219 -11.732   3.785  1.00  0.00     0.114 C 
BRANCH  24  25
HETATM   25  C   UNL     1      43.996 -11.391   5.240  1.00  0.00    -0.051 A 
HETATM   26  C   UNL     1      45.033 -11.622   6.159  1.00  0.00     0.007 A 
HETATM   27  C   UNL     1      44.893 -11.255   7.500  1.00  0.00     0.001 A 
HETATM   28  C   UNL     1      43.721 -10.646   7.936  1.00  0.00     0.000 A 
HETATM   29  C   UNL     1      42.690 -10.401   7.035  1.00  0.00     0.001 A 
HETATM   30  C   UNL     1      42.826 -10.763   5.693  1.00  0.00     0.007 A 
ENDBRANCH  24  25
ENDBRANCH   1  24
BRANCH   6  31
HETATM   31  C   UNL     1      41.001 -10.958   0.054  1.00  0.00     0.200 C 
BRANCH  31  32
HETATM   32  C   UNL     1      40.292 -10.026   0.967  1.00  0.00     0.070 A 
HETATM   33  O   UNL     1      41.045  -9.466   1.964  1.00  0.00    -0.325 OA
HETATM   34  C   UNL     1      40.215  -8.651   2.669  1.00  0.00     0.142 A 
HETATM   35  C   UNL     1      38.948  -8.677   2.136  1.00  0.00     0.027 A 
HETATM   36  C   UNL     1      38.994  -9.565   1.036  1.00  0.00     0.036 A 
ENDBRANCH  31  32
ENDBRANCH   6  31
TORSDOF 6
ENDMDL
MODEL 7
REMARK VINA RESULT:      -8.8      3.905      6.215
REMARK  6 active torsions:
REMARK  status: ('A' for Active; 'I' for Inactive)
REMARK    1  A    between atoms: C_4  and  C_5 
REMARK    2  A    between atoms: C_5  and  C_6 
REMARK    3  A    between atoms: C_10  and  C_11 
REMARK    4  A    between atoms: C_10  and  C_15 
REMARK    5  A    between atoms: N_19  and  C_20 
REMARK    6  A    between atoms: C_20  and  C_21 
ROOT
HETATM    1  C   UNL     1      40.095 -13.041   4.717  1.00  0.00     0.084 C 
HETATM    2  N   UNL     1      39.942 -13.827   3.673  1.00  0.00    -0.331 N 
HETATM    3  C   UNL     1      39.951 -13.365   2.377  1.00  0.00     0.128 C 
HETATM    4  C   UNL     1      40.004 -12.043   2.158  1.00  0.00     0.100 C 
HETATM    5  C   UNL     1      40.036 -11.000   3.250  1.00  0.00     0.264 C 
HETATM    6  N   UNL     1      39.908 -14.274   1.331  1.00  0.00    -0.278 N 
HETATM    7  C   UNL     1      39.832 -13.862   0.008  1.00  0.00     0.331 C 
HETATM    8  O   UNL     1      39.789 -14.622  -0.953  1.00  0.00    -0.246 OA
HETATM    9  N   UNL     1      39.828 -12.515  -0.192  1.00  0.00    -0.275 N 
HETATM   10  C   UNL     1      40.001 -11.578   0.768  1.00  0.00     0.262 C 
HETATM   11  O   UNL     1      40.154 -10.393   0.522  1.00  0.00    -0.267 OA
HETATM   12  N   UNL     1      40.206 -11.736   4.591  1.00  0.00    -0.351 N 
HETATM   13  H   UNL     1      40.345 -11.167   5.432  1.00  0.00     0.162 HD
HETATM   14  H   UNL     1      39.777 -14.819   3.857  1.00  0.00     0.168 HD
HETATM   15  H   UNL     1      39.827 -12.207  -1.158  1.00  0.00     0.173 HD
ENDROOT
BRANCH   5  16
HETATM   16  C   UNL     1      38.731 -10.204   3.338  1.00  0.00     0.426 C 
HETATM   17  F   UNL     1      38.292 -10.215   4.626  1.00  0.00    -0.168 F 
HETATM   18  F   UNL     1      38.950  -8.905   3.029  1.00  0.00    -0.168 F 
HETATM   19  F   UNL     1      37.729 -10.657   2.575  1.00  0.00    -0.168 F 
ENDBRANCH   5  16
BRANCH   5  20
HETATM   20  C   UNL     1      41.162  -9.962   3.169  1.00  0.00     0.426 C 
HETATM   21  F   UNL     1      42.310 -10.556   2.759  1.00  0.00    -0.168 F 
HETATM   22  F   UNL     1      40.931  -8.896   2.398  1.00  0.00    -0.168 F 
HETATM   23  F   UNL     1      41.412  -9.497   4.426  1.00  0.00    -0.168 F 
ENDBRANCH   5  20
BRANCH   1  24
HETATM   24  C   UNL     1      40.161 -13.648   6.081  1.00  0.00     0.114 C 
BRANCH  24  25
HETATM   25  C   UNL     1      41.402 -14.462   6.364  1.00  0.00    -0.051 A 
HETATM   26  C   UNL     1      41.265 -15.824   6.676  1.00  0.00     0.007 A 
HETATM   27  C   UNL     1      42.390 -16.628   6.875  1.00  0.00     0.001 A 
HETATM   28  C   UNL     1      43.665 -16.083   6.755  1.00  0.00     0.000 A 
HETATM   29  C   UNL     1      43.816 -14.738   6.436  1.00  0.00     0.001 A 
HETATM   30  C   UNL     1      42.694 -13.931   6.233  1.00  0.00     0.007 A 
ENDBRANCH  24  25
ENDBRANCH   1  24
BRANCH   6  31
HETATM   31  C   UNL     1      39.961 -15.724   1.550  1.00  0.00     0.200 C 
BRANCH  31  32
HETATM   32  C   UNL     1      41.321 -16.112   2.005  1.00  0.00     0.070 A 
HETATM   33  O   UNL     1      42.363 -15.688   1.225  1.00  0.00    -0.325 OA
HETATM   34  C   UNL     1      43.502 -16.138   1.817  1.00  0.00     0.142 A 
HETATM   35  C   UNL     1      43.205 -16.837   2.963  1.00  0.00     0.027 A 
HETATM   36  C   UNL     1      41.796 -16.821   3.087  1.00  0.00     0.036 A 
ENDBRANCH  31  32
ENDBRANCH   6  31
TORSDOF 6
ENDMDL
MODEL 8
REMARK VINA RESULT:      -8.7      4.206      7.253
REMARK  6 active torsions:
REMARK  status: ('A' for Active; 'I' for Inactive)
REMARK    1  A    between atoms: C_4  and  C_5 
REMARK    2  A    between atoms: C_5  and  C_6 
REMARK    3  A    between atoms: C_10  and  C_11 
REMARK    4  A    between atoms: C_10  and  C_15 
REMARK    5  A    between atoms: N_19  and  C_20 
REMARK    6  A    between atoms: C_20  and  C_21 
ROOT
HETATM    1  C   UNL     1      43.477 -10.271   7.520  1.00  0.00     0.084 C 
HETATM    2  N   UNL     1      42.257  -9.794   7.387  1.00  0.00    -0.331 N 
HETATM    3  C   UNL     1      41.304 -10.381   6.587  1.00  0.00     0.128 C 
HETATM    4  C   UNL     1      41.653 -11.420   5.815  1.00  0.00     0.100 C 
HETATM    5  C   UNL     1      43.047 -11.996   5.742  1.00  0.00     0.264 C 
HETATM    6  N   UNL     1      40.009  -9.887   6.600  1.00  0.00    -0.278 N 
HETATM    7  C   UNL     1      39.029 -10.387   5.754  1.00  0.00     0.331 C 
HETATM    8  O   UNL     1      37.871  -9.986   5.722  1.00  0.00    -0.246 OA
HETATM    9  N   UNL     1      39.417 -11.404   4.935  1.00  0.00    -0.275 N 
HETATM   10  C   UNL     1      40.620 -12.020   4.965  1.00  0.00     0.262 C 
HETATM   11  O   UNL     1      40.867 -13.030   4.328  1.00  0.00    -0.267 OA
HETATM   12  N   UNL     1      43.888 -11.319   6.839  1.00  0.00    -0.351 N 
HETATM   13  H   UNL     1      44.840 -11.667   6.992  1.00  0.00     0.162 HD
HETATM   14  H   UNL     1      42.040  -8.928   7.884  1.00  0.00     0.168 HD
HETATM   15  H   UNL     1      38.692 -11.810   4.353  1.00  0.00     0.173 HD
ENDROOT
BRANCH   5  16
HETATM   16  C   UNL     1      43.733 -11.700   4.405  1.00  0.00     0.426 C 
HETATM   17  F   UNL     1      43.177 -10.584   3.861  1.00  0.00    -0.168 F 
HETATM   18  F   UNL     1      45.041 -11.409   4.601  1.00  0.00    -0.168 F 
HETATM   19  F   UNL     1      43.649 -12.672   3.489  1.00  0.00    -0.168 F 
ENDBRANCH   5  16
BRANCH   5  20
HETATM   20  C   UNL     1      43.174 -13.509   5.959  1.00  0.00     0.426 C 
HETATM   21  F   UNL     1      42.229 -13.931   6.835  1.00  0.00    -0.168 F 
HETATM   22  F   UNL     1      43.113 -14.272   4.863  1.00  0.00    -0.168 F 
HETATM   23  F   UNL     1      44.373 -13.762   6.554  1.00  0.00    -0.168 F 
ENDBRANCH   5  20
BRANCH   1  24
HETATM   24  C   UNL     1      44.413  -9.615   8.481  1.00  0.00     0.114 C 
BRANCH  24  25
HETATM   25  C   UNL     1      43.881  -9.447   9.885  1.00  0.00    -0.051 A 
HETATM   26  C   UNL     1      43.688 -10.588  10.681  1.00  0.00     0.007 A 
HETATM   27  C   UNL     1      43.266 -10.470  12.007  1.00  0.00     0.001 A 
HETATM   28  C   UNL     1      43.039  -9.212  12.557  1.00  0.00     0.000 A 
HETATM   29  C   UNL     1      43.236  -8.072  11.784  1.00  0.00     0.001 A 
HETATM   30  C   UNL     1      43.662  -8.185  10.459  1.00  0.00     0.007 A 
ENDBRANCH  24  25
ENDBRANCH   1  24
BRANCH   6  31
HETATM   31  C   UNL     1      39.584  -8.825   7.518  1.00  0.00     0.200 C 
BRANCH  31  32
HETATM   32  C   UNL     1      39.483  -9.365   8.897  1.00  0.00     0.070 A 
HETATM   33  O   UNL     1      38.620 -10.412   9.075  1.00  0.00    -0.325 OA
HETATM   34  C   UNL     1      38.686 -10.754  10.389  1.00  0.00     0.142 A 
HETATM   35  C   UNL     1      39.579  -9.947  11.053  1.00  0.00     0.027 A 
HETATM   36  C   UNL     1      40.097  -9.049  10.090  1.00  0.00     0.036 A 
ENDBRANCH  31  32
ENDBRANCH   6  31
TORSDOF 6
ENDMDL
MODEL 9
REMARK VINA RESULT:      -8.7      2.870      6.349
REMARK  6 active torsions:
REMARK  status: ('A' for Active; 'I' for Inactive)
REMARK    1  A    between atoms: C_4  and  C_5 
REMARK    2  A    between atoms: C_5  and  C_6 
REMARK    3  A    between atoms: C_10  and  C_11 
REMARK    4  A    between atoms: C_10  and  C_15 
REMARK    5  A    between atoms: N_19  and  C_20 
REMARK    6  A    between atoms: C_20  and  C_21 
ROOT
HETATM    1  C   UNL     1      43.865 -12.762   5.905  1.00  0.00     0.084 C 
HETATM    2  N   UNL     1      42.971 -12.392   5.013  1.00  0.00    -0.331 N 
HETATM    3  C   UNL     1      41.924 -13.194   4.622  1.00  0.00     0.128 C 
HETATM    4  C   UNL     1      41.863 -14.453   5.080  1.00  0.00     0.100 C 
HETATM    5  C   UNL     1      42.889 -15.077   5.996  1.00  0.00     0.264 C 
HETATM    6  N   UNL     1      40.957 -12.683   3.770  1.00  0.00    -0.278 N 
HETATM    7  C   UNL     1      39.925 -13.470   3.280  1.00  0.00     0.331 C 
HETATM    8  O   UNL     1      39.048 -13.070   2.524  1.00  0.00    -0.246 OA
HETATM    9  N   UNL     1      39.912 -14.763   3.710  1.00  0.00    -0.275 N 
HETATM   10  C   UNL     1      40.742 -15.289   4.639  1.00  0.00     0.262 C 
HETATM   11  O   UNL     1      40.590 -16.403   5.113  1.00  0.00    -0.267 OA
HETATM   12  N   UNL     1      43.851 -13.962   6.444  1.00  0.00    -0.351 N 
HETATM   13  H   UNL     1      44.554 -14.197   7.151  1.00  0.00     0.162 HD
HETATM   14  H   UNL     1      43.099 -11.477   4.578  1.00  0.00     0.168 HD
HETATM   15  H   UNL     1      39.131 -15.329   3.399  1.00  0.00     0.173 HD
ENDROOT
BRANCH   5  16
HETATM   16  C   UNL     1      43.735 -16.140   5.289  1.00  0.00     0.426 C 
HETATM   17  F   UNL     1      43.951 -15.749   4.003  1.00  0.00    -0.168 F 
HETATM   18  F   UNL     1      44.957 -16.228   5.864  1.00  0.00    -0.168 F 
HETATM   19  F   UNL     1      43.198 -17.365   5.245  1.00  0.00    -0.168 F 
ENDBRANCH   5  16
BRANCH   5  20
HETATM   20  C   UNL     1      42.353 -15.739   7.271  1.00  0.00     0.426 C 
HETATM   21  F   UNL     1      41.074 -15.347   7.493  1.00  0.00    -0.168 F 
HETATM   22  F   UNL     1      42.407 -17.073   7.314  1.00  0.00    -0.168 F 
HETATM   23  F   UNL     1      43.073 -15.278   8.333  1.00  0.00    -0.168 F 
ENDBRANCH   5  20
BRANCH   1  24
HETATM   24  C   UNL     1      44.914 -11.787   6.331  1.00  0.00     0.114 C 
BRANCH  24  25
HETATM   25  C   UNL     1      44.587 -10.988   7.571  1.00  0.00    -0.051 A 
HETATM   26  C   UNL     1      45.622 -10.662   8.462  1.00  0.00     0.007 A 
HETATM   27  C   UNL     1      45.374  -9.866   9.583  1.00  0.00     0.001 A 
HETATM   28  C   UNL     1      44.093  -9.379   9.822  1.00  0.00     0.000 A 
HETATM   29  C   UNL     1      43.060  -9.685   8.942  1.00  0.00     0.001 A 
HETATM   30  C   UNL     1      43.304 -10.479   7.818  1.00  0.00     0.007 A 
ENDBRANCH  24  25
ENDBRANCH   1  24
BRANCH   6  31
HETATM   31  C   UNL     1      40.948 -11.277   3.350  1.00  0.00     0.200 C 
BRANCH  31  32
HETATM   32  C   UNL     1      40.135 -10.475   4.299  1.00  0.00     0.070 A 
HETATM   33  O   UNL     1      40.749 -10.118   5.469  1.00  0.00    -0.325 OA
HETATM   34  C   UNL     1      39.844  -9.392   6.179  1.00  0.00     0.142 A 
HETATM   35  C   UNL     1      38.666  -9.275   5.480  1.00  0.00     0.027 A 
HETATM   36  C   UNL     1      38.851  -9.975   4.264  1.00  0.00     0.036 A 
ENDBRANCH  31  32
ENDBRANCH   6  31
TORSDOF 6
ENDMDL
MODEL 10
REMARK VINA RESULT:      -8.7      3.822      6.772
REMARK  6 active torsions:
REMARK  status: ('A' for Active; 'I' for Inactive)
REMARK    1  A    between atoms: C_4  and  C_5 
REMARK    2  A    between atoms: C_5  and  C_6 
REMARK    3  A    between atoms: C_10  and  C_11 
REMARK    4  A    between atoms: C_10  and  C_15 
REMARK    5  A    between atoms: N_19  and  C_20 
REMARK    6  A    between atoms: C_20  and  C_21 
ROOT
HETATM    1  C   UNL     1      40.941 -14.715   1.889  1.00  0.00     0.084 C 
HETATM    2  N   UNL     1      40.842 -14.132   0.714  1.00  0.00    -0.331 N 
HETATM    3  C   UNL     1      40.963 -12.773   0.537  1.00  0.00     0.128 C 
HETATM    4  C   UNL     1      41.075 -11.984   1.616  1.00  0.00     0.100 C 
HETATM    5  C   UNL     1      41.059 -12.484   3.041  1.00  0.00     0.264 C 
HETATM    6  N   UNL     1      40.970 -12.252  -0.748  1.00  0.00    -0.278 N 
HETATM    7  C   UNL     1      41.006 -10.885  -0.982  1.00  0.00     0.331 C 
HETATM    8  O   UNL     1      41.011 -10.372  -2.095  1.00  0.00    -0.246 OA
HETATM    9  N   UNL     1      41.061 -10.096   0.128  1.00  0.00    -0.275 N 
HETATM   10  C   UNL     1      41.192 -10.539   1.399  1.00  0.00     0.262 C 
HETATM   11  O   UNL     1      41.402  -9.797   2.344  1.00  0.00    -0.267 OA
HETATM   12  N   UNL     1      41.104 -14.022   2.995  1.00  0.00    -0.351 N 
HETATM   13  H   UNL     1      41.198 -14.521   3.885  1.00  0.00     0.162 HD
HETATM   14  H   UNL     1      40.632 -14.731  -0.087  1.00  0.00     0.168 HD
HETATM   15  H   UNL     1      41.144  -9.099  -0.037  1.00  0.00     0.173 HD
ENDROOT
BRANCH   5  16
HETATM   16  C   UNL     1      39.777 -12.094   3.783  1.00  0.00     0.426 C 
HETATM   17  F   UNL     1      38.724 -12.196   2.928  1.00  0.00    -0.168 F 
HETATM   18  F   UNL     1      39.531 -12.969   4.787  1.00  0.00    -0.168 F 
HETATM   19  F   UNL     1      39.760 -10.855   4.288  1.00  0.00    -0.168 F 
ENDBRANCH   5  16
BRANCH   5  20
HETATM   20  C   UNL     1      42.221 -12.034   3.935  1.00  0.00     0.426 C 
HETATM   21  F   UNL     1      43.349 -11.901   3.195  1.00  0.00    -0.168 F 
HETATM   22  F   UNL     1      42.031 -10.911   4.633  1.00  0.00    -0.168 F 
HETATM   23  F   UNL     1      42.481 -13.023   4.836  1.00  0.00    -0.168 F 
ENDBRANCH   5  20
BRANCH   1  24
HETATM   24  C   UNL     1      40.885 -16.206   1.968  1.00  0.00     0.114 C 
BRANCH  24  25
HETATM   25  C   UNL     1      42.014 -16.853   2.735  1.00  0.00    -0.051 A 
HETATM   26  C   UNL     1      42.125 -16.613   4.115  1.00  0.00     0.007 A 
HETATM   27  C   UNL     1      43.111 -17.248   4.873  1.00  0.00     0.001 A 
HETATM   28  C   UNL     1      43.993 -18.136   4.265  1.00  0.00     0.000 A 
HETATM   29  C   UNL     1      43.889 -18.392   2.901  1.00  0.00     0.001 A 
HETATM   30  C   UNL     1      42.902 -17.762   2.140  1.00  0.00     0.007 A 
ENDBRANCH  24  25
ENDBRANCH   1  24
BRANCH   6  31
HETATM   31  C   UNL     1      40.959 -13.108  -1.940  1.00  0.00     0.200 C 
BRANCH  31  32
HETATM   32  C   UNL     1      39.558 -13.377  -2.351  1.00  0.00     0.070 A 
HETATM   33  O   UNL     1      39.385 -14.321  -3.327  1.00  0.00    -0.325 OA
HETATM   34  C   UNL     1      38.046 -14.417  -3.545  1.00  0.00     0.142 A 
HETATM   35  C   UNL     1      37.361 -13.555  -2.722  1.00  0.00     0.027 A 
HETATM   36  C   UNL     1      38.336 -12.881  -1.949  1.00  0.00     0.036 A 
ENDBRANCH  31  32
ENDBRANCH   6  31
TORSDOF 6
ENDMDL
