MODEL 1
REMARK VINA RESULT:      -9.4      0.000      0.000
REMARK  8 active torsions:
REMARK  status: ('A' for Active; 'I' for Inactive)
REMARK    1  A    between atoms: C_2  and  N_3 
REMARK    2  A    between atoms: C_2  and  C_26 
REMARK       I    between atoms: N_3  and  C_4 
REMARK    3  A    between atoms: C_4  and  C_5 
REMARK    4  A    between atoms: C_5  and  S_6 
REMARK    5  A    between atoms: S_6  and  C_7 
REMARK    6  A    between atoms: C_10  and  C_11 
REMARK    7  A    between atoms: C_11  and  O_12 
REMARK    8  A    between atoms: O_12  and  C_13 
ROOT
HETATM    1  C   UNL     1      44.089 -10.898   7.491  1.00  0.00     0.191 A 
HETATM    2  N   UNL     1      43.077 -11.300   6.665  1.00  0.00    -0.314 N 
HETATM    3  C   UNL     1      41.814 -10.647   6.443  1.00  0.00     0.160 C 
HETATM    4  C   UNL     1      43.534 -12.449   6.059  1.00  0.00     0.154 A 
HETATM    5  N   UNL     1      44.717 -12.750   6.560  1.00  0.00    -0.132 NA
HETATM    6  N   UNL     1      45.055 -11.785   7.468  1.00  0.00    -0.123 NA
ENDROOT
BRANCH   1   7
HETATM    7  S   UNL     1      44.113  -9.403   8.355  1.00  0.00    -0.081 SA
BRANCH   7   8
HETATM    8  C   UNL     1      44.978  -9.886   9.880  1.00  0.00     0.185 C 
BRANCH   8   9
HETATM    9  C   UNL     1      44.010 -10.364  10.952  1.00  0.00     0.227 C 
HETATM   10  N   UNL     1      42.907  -9.567  11.133  1.00  0.00    -0.352 N 
HETATM   11  H   UNL     1      42.769  -8.776  10.502  1.00  0.00     0.163 HD
HETATM   12  O   UNL     1      44.228 -11.372  11.621  1.00  0.00    -0.273 OA
BRANCH  10  13
HETATM   13  C   UNL     1      41.881  -9.813  12.131  1.00  0.00     0.113 C 
HETATM   14  C   UNL     1      40.467  -9.741  11.543  1.00  0.00     0.037 C 
BRANCH  13  15
HETATM   15  C   UNL     1      42.059  -8.836  13.281  1.00  0.00    -0.036 A 
HETATM   16  C   UNL     1      41.248  -8.933  14.422  1.00  0.00     0.009 A 
HETATM   17  C   UNL     1      41.430  -8.065  15.501  1.00  0.00     0.001 A 
HETATM   18  C   UNL     1      42.428  -7.092  15.458  1.00  0.00     0.000 A 
HETATM   19  C   UNL     1      43.247  -6.990  14.337  1.00  0.00     0.001 A 
HETATM   20  C   UNL     1      43.067  -7.856  13.258  1.00  0.00     0.009 A 
ENDBRANCH  13  15
ENDBRANCH  10  13
ENDBRANCH   8   9
ENDBRANCH   7   8
ENDBRANCH   1   7
BRANCH   4  21
HETATM   21  C   UNL     1      42.835 -13.190   4.976  1.00  0.00     0.256 C 
BRANCH  21  22
HETATM   22  O   UNL     1      42.172 -14.298   5.583  1.00  0.00    -0.344 OA
BRANCH  22  23
HETATM   23  C   UNL     1      42.659 -15.529   5.233  1.00  0.00     0.069 A 
HETATM   24  C   UNL     1      42.453 -16.156   4.003  1.00  0.00     0.044 A 
HETATM   25  C   UNL     1      43.004 -17.423   3.742  1.00  0.00    -0.049 A 
HETATM   26  C   UNL     1      43.741 -18.080   4.743  1.00  0.00    -0.052 A 
HETATM   27  C   UNL     1      42.732 -18.077   2.408  1.00  0.00     0.039 C 
HETATM   28  C   UNL     1      44.380 -19.425   4.498  1.00  0.00     0.039 C 
HETATM   29  C   UNL     1      43.935 -17.447   5.978  1.00  0.00     0.010 A 
HETATM   30  C   UNL     1      43.783 -20.167   3.304  1.00  0.00     0.005 C 
HETATM   31  C   UNL     1      43.674 -19.239   2.101  1.00  0.00     0.005 C 
HETATM   32  C   UNL     1      43.389 -16.185   6.223  1.00  0.00     0.037 A 
ENDBRANCH  22  23
ENDBRANCH  21  22
ENDBRANCH   4  21
TORSDOF 8
ENDMDL
MODEL 2
REMARK VINA RESULT:      -9.3      2.104      3.210
REMARK  8 active torsions:
REMARK  status: ('A' for Active; 'I' for Inactive)
REMARK    1  A    between atoms: C_2  and  N_3 
REMARK    2  A    between atoms: C_2  and  C_26 
REMARK       I    between atoms: N_3  and  C_4 
REMARK    3  A    between atoms: C_4  and  C_5 
REMARK    4  A    between atoms: C_5  and  S_6 
REMARK    5  A    between atoms: S_6  and  C_7 
REMARK    6  A    between atoms: C_10  and  C_11 
REMARK    7  A    between atoms: C_11  and  O_12 
REMARK    8  A    between atoms: O_12  and  C_13 
ROOT
HETATM    1  C   UNL     1      39.514 -10.365   7.058  1.00  0.00     0.191 A 
HETATM    2  N   UNL     1      40.675 -10.899   6.573  1.00  0.00    -0.314 N 
HETATM    3  C   UNL     1      41.980 -10.293   6.559  1.00  0.00     0.160 C 
HETATM    4  C   UNL     1      40.340 -12.158   6.127  1.00  0.00     0.154 A 
HETATM    5  N   UNL     1      39.039 -12.326   6.271  1.00  0.00    -0.132 NA
HETATM    6  N   UNL     1      38.522 -11.195   6.839  1.00  0.00    -0.123 NA
ENDROOT
BRANCH   1   7
HETATM    7  S   UNL     1      39.405  -8.866   7.908  1.00  0.00    -0.081 SA
BRANCH   7   8
HETATM    8  C   UNL     1      39.635  -9.413   9.627  1.00  0.00     0.185 C 
BRANCH   8   9
HETATM    9  C   UNL     1      41.009  -9.038  10.161  1.00  0.00     0.227 C 
HETATM   10  N   UNL     1      41.581  -9.968  10.993  1.00  0.00    -0.352 N 
HETATM   11  H   UNL     1      41.100 -10.857  11.132  1.00  0.00     0.163 HD
HETATM   12  O   UNL     1      41.543  -7.965   9.884  1.00  0.00    -0.273 OA
BRANCH  10  13
HETATM   13  C   UNL     1      42.866  -9.793  11.647  1.00  0.00     0.113 C 
HETATM   14  C   UNL     1      43.547 -11.130  11.960  1.00  0.00     0.037 C 
BRANCH  13  15
HETATM   15  C   UNL     1      42.680  -8.952  12.899  1.00  0.00    -0.036 A 
HETATM   16  C   UNL     1      43.455  -7.800  13.099  1.00  0.00     0.009 A 
HETATM   17  C   UNL     1      43.263  -6.999  14.227  1.00  0.00     0.001 A 
HETATM   18  C   UNL     1      42.291  -7.335  15.168  1.00  0.00     0.000 A 
HETATM   19  C   UNL     1      41.507  -8.470  14.979  1.00  0.00     0.001 A 
HETATM   20  C   UNL     1      41.697  -9.271  13.853  1.00  0.00     0.009 A 
ENDBRANCH  13  15
ENDBRANCH  10  13
ENDBRANCH   8   9
ENDBRANCH   7   8
ENDBRANCH   1   7
BRANCH   4  21
HETATM   21  C   UNL     1      41.299 -13.179   5.627  1.00  0.00     0.256 C 
BRANCH  21  22
HETATM   22  O   UNL     1      40.756 -13.710   4.419  1.00  0.00    -0.344 OA
BRANCH  22  23
HETATM   23  C   UNL     1      41.344 -14.866   3.978  1.00  0.00     0.069 A 
HETATM   24  C   UNL     1      42.372 -15.547   4.631  1.00  0.00     0.044 A 
HETATM   25  C   UNL     1      42.904 -16.732   4.093  1.00  0.00    -0.049 A 
HETATM   26  C   UNL     1      42.417 -17.217   2.867  1.00  0.00    -0.052 A 
HETATM   27  C   UNL     1      44.035 -17.420   4.819  1.00  0.00     0.039 C 
HETATM   28  C   UNL     1      42.932 -18.503   2.267  1.00  0.00     0.039 C 
HETATM   29  C   UNL     1      41.390 -16.523   2.214  1.00  0.00     0.010 A 
HETATM   30  C   UNL     1      44.278 -18.939   2.842  1.00  0.00     0.005 C 
HETATM   31  C   UNL     1      44.259 -18.860   4.363  1.00  0.00     0.005 C 
HETATM   32  C   UNL     1      40.865 -15.351   2.761  1.00  0.00     0.037 A 
ENDBRANCH  22  23
ENDBRANCH  21  22
ENDBRANCH   4  21
TORSDOF 8
ENDMDL
MODEL 3
REMARK VINA RESULT:      -9.3      1.602      2.571
REMARK  8 active torsions:
REMARK  status: ('A' for Active; 'I' for Inactive)
REMARK    1  A    between atoms: C_2  and  N_3 
REMARK    2  A    between atoms: C_2  and  C_26 
REMARK       I    between atoms: N_3  and  C_4 
REMARK    3  A    between atoms: C_4  and  C_5 
REMARK    4  A    between atoms: C_5  and  S_6 
REMARK    5  A    between atoms: S_6  and  C_7 
REMARK    6  A    between atoms: C_10  and  C_11 
REMARK    7  A    between atoms: C_11  and  O_12 
REMARK    8  A    between atoms: O_12  and  C_13 
ROOT
HETATM    1  C   UNL     1      41.950 -10.858   6.169  1.00  0.00     0.191 A 
HETATM    2  N   UNL     1      41.315 -12.039   5.907  1.00  0.00    -0.314 N 
HETATM    3  C   UNL     1      39.899 -12.295   5.919  1.00  0.00     0.160 C 
HETATM    4  C   UNL     1      42.317 -12.932   5.596  1.00  0.00     0.154 A 
HETATM    5  N   UNL     1      43.481 -12.329   5.743  1.00  0.00    -0.132 NA
HETATM    6  N   UNL     1      43.249 -11.034   6.117  1.00  0.00    -0.123 NA
ENDROOT
BRANCH   1   7
HETATM    7  S   UNL     1      41.147  -9.352   6.434  1.00  0.00    -0.081 SA
BRANCH   7   8
HETATM    8  C   UNL     1      40.879  -9.403   8.233  1.00  0.00     0.185 C 
BRANCH   8   9
HETATM    9  C   UNL     1      42.175  -9.208   9.004  1.00  0.00     0.227 C 
HETATM   10  N   UNL     1      42.185  -9.744  10.267  1.00  0.00    -0.352 N 
HETATM   11  H   UNL     1      41.378 -10.292  10.569  1.00  0.00     0.163 HD
HETATM   12  O   UNL     1      43.125  -8.586   8.530  1.00  0.00    -0.273 OA
BRANCH  10  13
HETATM   13  C   UNL     1      43.302  -9.635  11.189  1.00  0.00     0.113 C 
HETATM   14  C   UNL     1      44.003 -10.979  11.415  1.00  0.00     0.037 C 
BRANCH  13  15
HETATM   15  C   UNL     1      42.814  -9.031  12.496  1.00  0.00    -0.036 A 
HETATM   16  C   UNL     1      43.452  -7.904  13.034  1.00  0.00     0.009 A 
HETATM   17  C   UNL     1      42.987  -7.317  14.213  1.00  0.00     0.001 A 
HETATM   18  C   UNL     1      41.875  -7.845  14.867  1.00  0.00     0.000 A 
HETATM   19  C   UNL     1      41.225  -8.957  14.341  1.00  0.00     0.001 A 
HETATM   20  C   UNL     1      41.688  -9.544  13.162  1.00  0.00     0.009 A 
ENDBRANCH  13  15
ENDBRANCH  10  13
ENDBRANCH   8   9
ENDBRANCH   7   8
ENDBRANCH   1   7
BRANCH   4  21
HETATM   21  C   UNL     1      42.112 -14.324   5.115  1.00  0.00     0.256 C 
BRANCH  21  22
HETATM   22  O   UNL     1      43.231 -14.654   4.294  1.00  0.00    -0.344 OA
BRANCH  22  23
HETATM   23  C   UNL     1      43.282 -15.958   3.879  1.00  0.00     0.069 A 
HETATM   24  C   UNL     1      43.675 -17.040   4.669  1.00  0.00     0.044 A 
HETATM   25  C   UNL     1      43.687 -18.344   4.145  1.00  0.00    -0.049 A 
HETATM   26  C   UNL     1      43.333 -18.556   2.802  1.00  0.00    -0.052 A 
HETATM   27  C   UNL     1      44.146 -19.481   5.028  1.00  0.00     0.039 C 
HETATM   28  C   UNL     1      43.297 -19.942   2.205  1.00  0.00     0.039 C 
HETATM   29  C   UNL     1      42.949 -17.464   2.013  1.00  0.00     0.010 A 
HETATM   30  C   UNL     1      44.094 -20.966   3.011  1.00  0.00     0.005 C 
HETATM   31  C   UNL     1      43.757 -20.857   4.492  1.00  0.00     0.005 C 
HETATM   32  C   UNL     1      42.934 -16.174   2.546  1.00  0.00     0.037 A 
ENDBRANCH  22  23
ENDBRANCH  21  22
ENDBRANCH   4  21
TORSDOF 8
ENDMDL
MODEL 4
REMARK VINA RESULT:      -9.2      5.254      8.188
REMARK  8 active torsions:
REMARK  status: ('A' for Active; 'I' for Inactive)
REMARK    1  A    between atoms: C_2  and  N_3 
REMARK    2  A    between atoms: C_2  and  C_26 
REMARK       I    between atoms: N_3  and  C_4 
REMARK    3  A    between atoms: C_4  and  C_5 
REMARK    4  A    between atoms: C_5  and  S_6 
REMARK    5  A    between atoms: S_6  and  C_7 
REMARK    6  A    between atoms: C_10  and  C_11 
REMARK    7  A    between atoms: C_11  and  O_12 
REMARK    8  A    between atoms: O_12  and  C_13 
ROOT
HETATM    1  C   UNL     1      40.082 -11.340   5.869  1.00  0.00     0.191 A 
HETATM    2  N   UNL     1      41.353 -11.814   5.700  1.00  0.00    -0.314 N 
HETATM    3  C   UNL     1      42.534 -11.060   5.372  1.00  0.00     0.160 C 
HETATM    4  C   UNL     1      41.273 -13.167   5.942  1.00  0.00     0.154 A 
HETATM    5  N   UNL     1      40.012 -13.484   6.165  1.00  0.00    -0.132 NA
HETATM    6  N   UNL     1      39.266 -12.339   6.103  1.00  0.00    -0.123 NA
ENDROOT
BRANCH   1   7
HETATM    7  S   UNL     1      39.653  -9.667   5.864  1.00  0.00    -0.081 SA
BRANCH   7   8
HETATM    8  C   UNL     1      38.637  -9.565   4.358  1.00  0.00     0.185 C 
BRANCH   8   9
HETATM    9  C   UNL     1      39.442  -9.894   3.110  1.00  0.00     0.227 C 
HETATM   10  N   UNL     1      38.910 -10.885   2.323  1.00  0.00    -0.352 N 
HETATM   11  H   UNL     1      37.997 -11.268   2.573  1.00  0.00     0.163 HD
HETATM   12  O   UNL     1      40.504  -9.330   2.855  1.00  0.00    -0.273 OA
BRANCH  10  13
HETATM   13  C   UNL     1      39.536 -11.385   1.111  1.00  0.00     0.113 C 
HETATM   14  C   UNL     1      38.781 -10.960  -0.153  1.00  0.00     0.037 C 
BRANCH  13  15
HETATM   15  C   UNL     1      39.666 -12.897   1.204  1.00  0.00    -0.036 A 
HETATM   16  C   UNL     1      39.833 -13.664   0.041  1.00  0.00     0.009 A 
HETATM   17  C   UNL     1      39.995 -15.049   0.120  1.00  0.00     0.001 A 
HETATM   18  C   UNL     1      39.995 -15.686   1.359  1.00  0.00     0.000 A 
HETATM   19  C   UNL     1      39.840 -14.938   2.523  1.00  0.00     0.001 A 
HETATM   20  C   UNL     1      39.680 -13.554   2.447  1.00  0.00     0.009 A 
ENDBRANCH  13  15
ENDBRANCH  10  13
ENDBRANCH   8   9
ENDBRANCH   7   8
ENDBRANCH   1   7
BRANCH   4  21
HETATM   21  C   UNL     1      42.428 -14.102   6.004  1.00  0.00     0.256 C 
BRANCH  21  22
HETATM   22  O   UNL     1      42.678 -14.551   4.673  1.00  0.00    -0.344 OA
BRANCH  22  23
HETATM   23  C   UNL     1      43.052 -15.863   4.564  1.00  0.00     0.069 A 
HETATM   24  C   UNL     1      42.828 -16.675   3.451  1.00  0.00     0.044 A 
HETATM   25  C   UNL     1      43.259 -18.013   3.439  1.00  0.00    -0.049 A 
HETATM   26  C   UNL     1      43.891 -18.549   4.574  1.00  0.00    -0.052 A 
HETATM   27  C   UNL     1      42.970 -18.863   2.224  1.00  0.00     0.039 C 
HETATM   28  C   UNL     1      44.402 -19.969   4.595  1.00  0.00     0.039 C 
HETATM   29  C   UNL     1      44.105 -17.730   5.690  1.00  0.00     0.010 A 
HETATM   30  C   UNL     1      43.777 -20.851   3.517  1.00  0.00     0.005 C 
HETATM   31  C   UNL     1      43.802 -20.142   2.169  1.00  0.00     0.005 C 
HETATM   32  C   UNL     1      43.679 -16.400   5.688  1.00  0.00     0.037 A 
ENDBRANCH  22  23
ENDBRANCH  21  22
ENDBRANCH   4  21
TORSDOF 8
ENDMDL
MODEL 5
REMARK VINA RESULT:      -9.1      2.177      2.645
REMARK  8 active torsions:
REMARK  status: ('A' for Active; 'I' for Inactive)
REMARK    1  A    between atoms: C_2  and  N_3 
REMARK    2  A    between atoms: C_2  and  C_26 
REMARK       I    between atoms: N_3  and  C_4 
REMARK    3  A    between atoms: C_4  and  C_5 
REMARK    4  A    between atoms: C_5  and  S_6 
REMARK    5  A    between atoms: S_6  and  C_7 
REMARK    6  A    between atoms: C_10  and  C_11 
REMARK    7  A    between atoms: C_11  and  O_12 
REMARK    8  A    between atoms: O_12  and  C_13 
ROOT
HETATM    1  C   UNL     1      39.696 -10.622   6.664  1.00  0.00     0.191 A 
HETATM    2  N   UNL     1      40.516 -10.984   5.632  1.00  0.00    -0.314 N 
HETATM    3  C   UNL     1      41.407 -10.139   4.882  1.00  0.00     0.160 C 
HETATM    4  C   UNL     1      40.333 -12.341   5.479  1.00  0.00     0.154 A 
HETATM    5  N   UNL     1      39.401 -12.740   6.323  1.00  0.00    -0.132 NA
HETATM    6  N   UNL     1      38.992 -11.658   7.053  1.00  0.00    -0.123 NA
ENDROOT
BRANCH   1   7
HETATM    7  S   UNL     1      39.672  -9.057   7.393  1.00  0.00    -0.081 SA
BRANCH   7   8
HETATM    8  C   UNL     1      39.832  -9.481   9.154  1.00  0.00     0.185 C 
BRANCH   8   9
HETATM    9  C   UNL     1      41.174  -9.043   9.722  1.00  0.00     0.227 C 
HETATM   10  N   UNL     1      41.725  -9.906  10.636  1.00  0.00    -0.352 N 
HETATM   11  H   UNL     1      41.255 -10.796  10.811  1.00  0.00     0.163 HD
HETATM   12  O   UNL     1      41.699  -7.979   9.401  1.00  0.00    -0.273 OA
BRANCH  10  13
HETATM   13  C   UNL     1      42.977  -9.663  11.332  1.00  0.00     0.113 C 
HETATM   14  C   UNL     1      43.750 -10.956  11.609  1.00  0.00     0.037 C 
BRANCH  13  15
HETATM   15  C   UNL     1      42.695  -8.894  12.613  1.00  0.00    -0.036 A 
HETATM   16  C   UNL     1      41.723  -9.355  13.514  1.00  0.00     0.009 A 
HETATM   17  C   UNL     1      41.485  -8.678  14.712  1.00  0.00     0.001 A 
HETATM   18  C   UNL     1      42.216  -7.534  15.028  1.00  0.00     0.000 A 
HETATM   19  C   UNL     1      43.190  -7.070  14.149  1.00  0.00     0.001 A 
HETATM   20  C   UNL     1      43.431  -7.745  12.952  1.00  0.00     0.009 A 
ENDBRANCH  13  15
ENDBRANCH  10  13
ENDBRANCH   8   9
ENDBRANCH   7   8
ENDBRANCH   1   7
BRANCH   4  21
HETATM   21  C   UNL     1      41.106 -13.216   4.558  1.00  0.00     0.256 C 
BRANCH  21  22
HETATM   22  O   UNL     1      42.326 -13.549   5.219  1.00  0.00    -0.344 OA
BRANCH  22  23
HETATM   23  C   UNL     1      42.801 -14.808   4.963  1.00  0.00     0.069 A 
HETATM   24  C   UNL     1      42.465 -15.584   3.852  1.00  0.00     0.044 A 
HETATM   25  C   UNL     1      43.015 -16.867   3.680  1.00  0.00    -0.049 A 
HETATM   26  C   UNL     1      43.884 -17.386   4.655  1.00  0.00    -0.052 A 
HETATM   27  C   UNL     1      42.602 -17.683   2.478  1.00  0.00     0.039 C 
HETATM   28  C   UNL     1      44.525 -18.743   4.497  1.00  0.00     0.039 C 
HETATM   29  C   UNL     1      44.208 -16.603   5.771  1.00  0.00     0.010 A 
HETATM   30  C   UNL     1      43.809 -19.634   3.484  1.00  0.00     0.005 C 
HETATM   31  C   UNL     1      43.531 -18.863   2.200  1.00  0.00     0.005 C 
HETATM   32  C   UNL     1      43.662 -15.328   5.927  1.00  0.00     0.037 A 
ENDBRANCH  22  23
ENDBRANCH  21  22
ENDBRANCH   4  21
TORSDOF 8
ENDMDL
MODEL 6
REMARK VINA RESULT:      -8.9      5.387      9.110
REMARK  8 active torsions:
REMARK  status: ('A' for Active; 'I' for Inactive)
REMARK    1  A    between atoms: C_2  and  N_3 
REMARK    2  A    between atoms: C_2  and  C_26 
REMARK       I    between atoms: N_3  and  C_4 
REMARK    3  A    between atoms: C_4  and  C_5 
REMARK    4  A    between atoms: C_5  and  S_6 
REMARK    5  A    between atoms: S_6  and  C_7 
REMARK    6  A    between atoms: C_10  and  C_11 
REMARK    7  A    between atoms: C_11  and  O_12 
REMARK    8  A    between atoms: O_12  and  C_13 
ROOT
HETATM    1  C   UNL     1      41.897 -10.635   4.143  1.00  0.00     0.191 A 
HETATM    2  N   UNL     1      41.475 -11.679   4.917  1.00  0.00    -0.314 N 
HETATM    3  C   UNL     1      40.468 -11.657   5.946  1.00  0.00     0.160 C 
HETATM    4  C   UNL     1      42.194 -12.771   4.483  1.00  0.00     0.154 A 
HETATM    5  N   UNL     1      43.047 -12.374   3.558  1.00  0.00    -0.132 NA
HETATM    6  N   UNL     1      42.870 -11.033   3.358  1.00  0.00    -0.123 NA
ENDROOT
BRANCH   1   7
HETATM    7  S   UNL     1      41.184  -9.062   4.146  1.00  0.00    -0.081 SA
BRANCH   7   8
HETATM    8  C   UNL     1      40.337  -9.051   2.536  1.00  0.00     0.185 C 
BRANCH   8   9
HETATM    9  C   UNL     1      39.532 -10.322   2.312  1.00  0.00     0.227 C 
HETATM   10  N   UNL     1      40.072 -11.198   1.404  1.00  0.00    -0.352 N 
HETATM   11  H   UNL     1      40.990 -10.986   1.010  1.00  0.00     0.163 HD
HETATM   12  O   UNL     1      38.462 -10.522   2.885  1.00  0.00    -0.273 OA
BRANCH  10  13
HETATM   13  C   UNL     1      39.447 -12.448   1.009  1.00  0.00     0.113 C 
HETATM   14  C   UNL     1      39.816 -13.605   1.944  1.00  0.00     0.037 C 
BRANCH  13  15
HETATM   15  C   UNL     1      39.814 -12.756  -0.434  1.00  0.00    -0.036 A 
HETATM   16  C   UNL     1      40.690 -11.914  -1.135  1.00  0.00     0.009 A 
HETATM   17  C   UNL     1      41.064 -12.211  -2.447  1.00  0.00     0.001 A 
HETATM   18  C   UNL     1      40.573 -13.354  -3.075  1.00  0.00     0.000 A 
HETATM   19  C   UNL     1      39.710 -14.205  -2.390  1.00  0.00     0.001 A 
HETATM   20  C   UNL     1      39.336 -13.911  -1.078  1.00  0.00     0.009 A 
ENDBRANCH  13  15
ENDBRANCH  10  13
ENDBRANCH   8   9
ENDBRANCH   7   8
ENDBRANCH   1   7
BRANCH   4  21
HETATM   21  C   UNL     1      41.993 -14.171   4.939  1.00  0.00     0.256 C 
BRANCH  21  22
HETATM   22  O   UNL     1      43.270 -14.808   4.916  1.00  0.00    -0.344 OA
BRANCH  22  23
HETATM   23  C   UNL     1      43.297 -16.033   4.304  1.00  0.00     0.069 A 
HETATM   24  C   UNL     1      43.784 -17.209   4.876  1.00  0.00     0.044 A 
HETATM   25  C   UNL     1      43.761 -18.419   4.161  1.00  0.00    -0.049 A 
HETATM   26  C   UNL     1      43.276 -18.437   2.842  1.00  0.00    -0.052 A 
HETATM   27  C   UNL     1      44.324 -19.662   4.810  1.00  0.00     0.039 C 
HETATM   28  C   UNL     1      43.199 -19.717   2.047  1.00  0.00     0.039 C 
HETATM   29  C   UNL     1      42.797 -17.250   2.272  1.00  0.00     0.010 A 
HETATM   30  C   UNL     1      44.089 -20.827   2.604  1.00  0.00     0.005 C 
HETATM   31  C   UNL     1      43.902 -20.952   4.111  1.00  0.00     0.005 C 
HETATM   32  C   UNL     1      42.818 -16.056   2.995  1.00  0.00     0.037 A 
ENDBRANCH  22  23
ENDBRANCH  21  22
ENDBRANCH   4  21
TORSDOF 8
ENDMDL
MODEL 7
REMARK VINA RESULT:      -8.9      2.513      4.231
REMARK  8 active torsions:
REMARK  status: ('A' for Active; 'I' for Inactive)
REMARK    1  A    between atoms: C_2  and  N_3 
REMARK    2  A    between atoms: C_2  and  C_26 
REMARK       I    between atoms: N_3  and  C_4 
REMARK    3  A    between atoms: C_4  and  C_5 
REMARK    4  A    between atoms: C_5  and  S_6 
REMARK    5  A    between atoms: S_6  and  C_7 
REMARK    6  A    between atoms: C_10  and  C_11 
REMARK    7  A    between atoms: C_11  and  O_12 
REMARK    8  A    between atoms: O_12  and  C_13 
ROOT
HETATM    1  C   UNL     1      39.733 -10.079   7.015  1.00  0.00     0.191 A 
HETATM    2  N   UNL     1      40.573 -10.733   6.158  1.00  0.00    -0.314 N 
HETATM    3  C   UNL     1      41.827 -10.264   5.629  1.00  0.00     0.160 C 
HETATM    4  C   UNL     1      39.982 -11.956   5.930  1.00  0.00     0.154 A 
HETATM    5  N   UNL     1      38.821 -11.989   6.556  1.00  0.00    -0.132 NA
HETATM    6  N   UNL     1      38.661 -10.805   7.222  1.00  0.00    -0.123 NA
ENDROOT
BRANCH   1   7
HETATM    7  S   UNL     1      40.089  -8.568   7.772  1.00  0.00    -0.081 SA
BRANCH   7   8
HETATM    8  C   UNL     1      39.562  -8.893   9.482  1.00  0.00     0.185 C 
BRANCH   8   9
HETATM    9  C   UNL     1      40.706  -9.419  10.335  1.00  0.00     0.227 C 
HETATM   10  N   UNL     1      41.959  -9.224   9.809  1.00  0.00    -0.352 N 
HETATM   11  H   UNL     1      42.045  -8.684   8.946  1.00  0.00     0.163 HD
HETATM   12  O   UNL     1      40.507 -10.001  11.400  1.00  0.00    -0.273 OA
BRANCH  10  13
HETATM   13  C   UNL     1      43.185  -9.686  10.435  1.00  0.00     0.113 C 
HETATM   14  C   UNL     1      43.716  -8.695  11.477  1.00  0.00     0.037 C 
BRANCH  13  15
HETATM   15  C   UNL     1      44.219  -9.973   9.359  1.00  0.00    -0.036 A 
HETATM   16  C   UNL     1      44.057 -11.070   8.499  1.00  0.00     0.009 A 
HETATM   17  C   UNL     1      44.980 -11.319   7.481  1.00  0.00     0.001 A 
HETATM   18  C   UNL     1      46.074 -10.474   7.305  1.00  0.00     0.000 A 
HETATM   19  C   UNL     1      46.243  -9.376   8.143  1.00  0.00     0.001 A 
HETATM   20  C   UNL     1      45.322  -9.124   9.160  1.00  0.00     0.009 A 
ENDBRANCH  13  15
ENDBRANCH  10  13
ENDBRANCH   8   9
ENDBRANCH   7   8
ENDBRANCH   1   7
BRANCH   4  21
HETATM   21  C   UNL     1      40.585 -13.074   5.157  1.00  0.00     0.256 C 
BRANCH  21  22
HETATM   22  O   UNL     1      40.675 -14.194   6.037  1.00  0.00    -0.344 OA
BRANCH  22  23
HETATM   23  C   UNL     1      41.478 -15.213   5.600  1.00  0.00     0.069 A 
HETATM   24  C   UNL     1      41.482 -15.738   4.307  1.00  0.00     0.044 A 
HETATM   25  C   UNL     1      42.353 -16.785   3.958  1.00  0.00    -0.049 A 
HETATM   26  C   UNL     1      43.206 -17.331   4.933  1.00  0.00    -0.052 A 
HETATM   27  C   UNL     1      42.303 -17.341   2.555  1.00  0.00     0.039 C 
HETATM   28  C   UNL     1      44.183 -18.432   4.598  1.00  0.00     0.039 C 
HETATM   29  C   UNL     1      43.190 -16.804   6.231  1.00  0.00     0.010 A 
HETATM   30  C   UNL     1      43.838 -19.171   3.307  1.00  0.00     0.005 C 
HETATM   31  C   UNL     1      43.526 -18.181   2.193  1.00  0.00     0.005 C 
HETATM   32  C   UNL     1      42.325 -15.760   6.563  1.00  0.00     0.037 A 
ENDBRANCH  22  23
ENDBRANCH  21  22
ENDBRANCH   4  21
TORSDOF 8
ENDMDL
MODEL 8
REMARK VINA RESULT:      -8.8      1.685     10.918
REMARK  8 active torsions:
REMARK  status: ('A' for Active; 'I' for Inactive)
REMARK    1  A    between atoms: C_2  and  N_3 
REMARK    2  A    between atoms: C_2  and  C_26 
REMARK       I    between atoms: N_3  and  C_4 
REMARK    3  A    between atoms: C_4  and  C_5 
REMARK    4  A    between atoms: C_5  and  S_6 
REMARK    5  A    between atoms: S_6  and  C_7 
REMARK    6  A    between atoms: C_10  and  C_11 
REMARK    7  A    between atoms: C_11  and  O_12 
REMARK    8  A    between atoms: O_12  and  C_13 
ROOT
HETATM    1  C   UNL     1      42.759 -11.974   5.945  1.00  0.00     0.191 A 
HETATM    2  N   UNL     1      43.034 -10.901   6.744  1.00  0.00    -0.314 N 
HETATM    3  C   UNL     1      42.248  -9.705   6.907  1.00  0.00     0.160 C 
HETATM    4  C   UNL     1      44.209 -11.215   7.388  1.00  0.00     0.154 A 
HETATM    5  N   UNL     1      44.643 -12.376   6.935  1.00  0.00    -0.132 NA
HETATM    6  N   UNL     1      43.740 -12.842   6.019  1.00  0.00    -0.123 NA
ENDROOT
BRANCH   1   7
HETATM    7  S   UNL     1      41.295 -12.183   5.052  1.00  0.00    -0.081 SA
BRANCH   7   8
HETATM    8  C   UNL     1      41.704 -13.631   4.030  1.00  0.00     0.185 C 
BRANCH   8   9
HETATM    9  C   UNL     1      41.847 -14.892   4.868  1.00  0.00     0.227 C 
HETATM   10  N   UNL     1      43.090 -15.474   4.832  1.00  0.00    -0.352 N 
HETATM   11  H   UNL     1      43.837 -14.994   4.327  1.00  0.00     0.163 HD
HETATM   12  O   UNL     1      40.903 -15.362   5.501  1.00  0.00    -0.273 OA
BRANCH  10  13
HETATM   13  C   UNL     1      43.432 -16.705   5.522  1.00  0.00     0.113 C 
HETATM   14  C   UNL     1      44.707 -16.567   6.361  1.00  0.00     0.037 C 
BRANCH  13  15
HETATM   15  C   UNL     1      43.549 -17.830   4.507  1.00  0.00    -0.036 A 
HETATM   16  C   UNL     1      44.010 -19.094   4.904  1.00  0.00     0.009 A 
HETATM   17  C   UNL     1      44.082 -20.146   3.988  1.00  0.00     0.001 A 
HETATM   18  C   UNL     1      43.691 -19.951   2.664  1.00  0.00     0.000 A 
HETATM   19  C   UNL     1      43.222 -18.705   2.257  1.00  0.00     0.001 A 
HETATM   20  C   UNL     1      43.148 -17.654   3.171  1.00  0.00     0.009 A 
ENDBRANCH  13  15
ENDBRANCH  10  13
ENDBRANCH   8   9
ENDBRANCH   7   8
ENDBRANCH   1   7
BRANCH   4  21
HETATM   21  C   UNL     1      44.847 -10.407   8.461  1.00  0.00     0.256 C 
BRANCH  21  22
HETATM   22  O   UNL     1      44.320 -10.867   9.704  1.00  0.00    -0.344 OA
BRANCH  22  23
HETATM   23  C   UNL     1      43.797  -9.891  10.510  1.00  0.00     0.069 A 
HETATM   24  C   UNL     1      43.284 -10.094  11.792  1.00  0.00     0.044 A 
HETATM   25  C   UNL     1      42.774  -9.018  12.541  1.00  0.00    -0.049 A 
HETATM   26  C   UNL     1      42.749  -7.731  11.977  1.00  0.00    -0.052 A 
HETATM   27  C   UNL     1      42.204  -9.289  13.913  1.00  0.00     0.039 C 
HETATM   28  C   UNL     1      42.244  -6.540  12.754  1.00  0.00     0.039 C 
HETATM   29  C   UNL     1      43.258  -7.538  10.686  1.00  0.00     0.010 A 
HETATM   30  C   UNL     1      41.375  -6.925  13.950  1.00  0.00     0.005 C 
HETATM   31  C   UNL     1      42.043  -8.028  14.760  1.00  0.00     0.005 C 
HETATM   32  C   UNL     1      43.768  -8.612   9.955  1.00  0.00     0.037 A 
ENDBRANCH  22  23
ENDBRANCH  21  22
ENDBRANCH   4  21
TORSDOF 8
ENDMDL
MODEL 9
REMARK VINA RESULT:      -8.7      2.795      4.028
REMARK  8 active torsions:
REMARK  status: ('A' for Active; 'I' for Inactive)
REMARK    1  A    between atoms: C_2  and  N_3 
REMARK    2  A    between atoms: C_2  and  C_26 
REMARK       I    between atoms: N_3  and  C_4 
REMARK    3  A    between atoms: C_4  and  C_5 
REMARK    4  A    between atoms: C_5  and  S_6 
REMARK    5  A    between atoms: S_6  and  C_7 
REMARK    6  A    between atoms: C_10  and  C_11 
REMARK    7  A    between atoms: C_11  and  O_12 
REMARK    8  A    between atoms: O_12  and  C_13 
ROOT
HETATM    1  C   UNL     1      39.635 -10.401   6.541  1.00  0.00     0.191 A 
HETATM    2  N   UNL     1      40.163 -10.852   5.364  1.00  0.00    -0.314 N 
HETATM    3  C   UNL     1      40.943 -10.108   4.410  1.00  0.00     0.160 C 
HETATM    4  C   UNL     1      39.818 -12.184   5.295  1.00  0.00     0.154 A 
HETATM    5  N   UNL     1      39.064 -12.480   6.336  1.00  0.00    -0.132 NA
HETATM    6  N   UNL     1      38.938 -11.357   7.107  1.00  0.00    -0.123 NA
ENDROOT
BRANCH   1   7
HETATM    7  S   UNL     1      39.929  -8.837   7.211  1.00  0.00    -0.081 SA
BRANCH   7   8
HETATM    8  C   UNL     1      39.156  -9.000   8.850  1.00  0.00     0.185 C 
BRANCH   8   9
HETATM    9  C   UNL     1      40.186  -8.951   9.968  1.00  0.00     0.227 C 
HETATM   10  N   UNL     1      41.023  -7.862   9.938  1.00  0.00    -0.352 N 
HETATM   11  H   UNL     1      40.853  -7.138   9.239  1.00  0.00     0.163 HD
HETATM   12  O   UNL     1      40.273  -9.843  10.810  1.00  0.00    -0.273 OA
BRANCH  10  13
HETATM   13  C   UNL     1      42.103  -7.641  10.883  1.00  0.00     0.113 C 
HETATM   14  C   UNL     1      42.267  -6.161  11.244  1.00  0.00     0.037 C 
BRANCH  13  15
HETATM   15  C   UNL     1      43.388  -8.225  10.318  1.00  0.00    -0.036 A 
HETATM   16  C   UNL     1      44.094  -9.203  11.035  1.00  0.00     0.009 A 
HETATM   17  C   UNL     1      45.254  -9.775  10.506  1.00  0.00     0.001 A 
HETATM   18  C   UNL     1      45.720  -9.381   9.253  1.00  0.00     0.000 A 
HETATM   19  C   UNL     1      45.025  -8.420   8.525  1.00  0.00     0.001 A 
HETATM   20  C   UNL     1      43.866  -7.848   9.051  1.00  0.00     0.009 A 
ENDBRANCH  13  15
ENDBRANCH  10  13
ENDBRANCH   8   9
ENDBRANCH   7   8
ENDBRANCH   1   7
BRANCH   4  21
HETATM   21  C   UNL     1      40.276 -13.139   4.252  1.00  0.00     0.256 C 
BRANCH  21  22
HETATM   22  O   UNL     1      41.583 -13.574   4.622  1.00  0.00    -0.344 OA
BRANCH  22  23
HETATM   23  C   UNL     1      41.949 -14.798   4.131  1.00  0.00     0.069 A 
HETATM   24  C   UNL     1      42.888 -15.652   4.713  1.00  0.00     0.044 A 
HETATM   25  C   UNL     1      43.189 -16.895   4.128  1.00  0.00    -0.049 A 
HETATM   26  C   UNL     1      42.562 -17.266   2.926  1.00  0.00    -0.052 A 
HETATM   27  C   UNL     1      44.231 -17.774   4.777  1.00  0.00     0.039 C 
HETATM   28  C   UNL     1      42.827 -18.604   2.279  1.00  0.00     0.039 C 
HETATM   29  C   UNL     1      41.628 -16.399   2.344  1.00  0.00     0.010 A 
HETATM   30  C   UNL     1      44.114 -19.265   2.768  1.00  0.00     0.005 C 
HETATM   31  C   UNL     1      44.192 -19.220   4.288  1.00  0.00     0.005 C 
HETATM   32  C   UNL     1      41.332 -15.171   2.937  1.00  0.00     0.037 A 
ENDBRANCH  22  23
ENDBRANCH  21  22
ENDBRANCH   4  21
TORSDOF 8
ENDMDL
MODEL 10
REMARK VINA RESULT:      -8.6      1.605     11.461
REMARK  8 active torsions:
REMARK  status: ('A' for Active; 'I' for Inactive)
REMARK    1  A    between atoms: C_2  and  N_3 
REMARK    2  A    between atoms: C_2  and  C_26 
REMARK       I    between atoms: N_3  and  C_4 
REMARK    3  A    between atoms: C_4  and  C_5 
REMARK    4  A    between atoms: C_5  and  S_6 
REMARK    5  A    between atoms: S_6  and  C_7 
REMARK    6  A    between atoms: C_10  and  C_11 
REMARK    7  A    between atoms: C_11  and  O_12 
REMARK    8  A    between atoms: O_12  and  C_13 
ROOT
HETATM    1  C   UNL     1      43.551 -11.159   6.817  1.00  0.00     0.191 A 
HETATM    2  N   UNL     1      43.226 -10.279   7.811  1.00  0.00    -0.314 N 
HETATM    3  C   UNL     1      42.057  -9.442   7.893  1.00  0.00     0.160 C 
HETATM    4  C   UNL     1      44.239 -10.382   8.737  1.00  0.00     0.154 A 
HETATM    5  N   UNL     1      45.149 -11.220   8.277  1.00  0.00    -0.132 NA
HETATM    6  N   UNL     1      44.722 -11.693   7.067  1.00  0.00    -0.123 NA
ENDROOT
BRANCH   1   7
HETATM    7  S   UNL     1      42.522 -11.563   5.491  1.00  0.00    -0.081 SA
BRANCH   7   8
HETATM    8  C   UNL     1      42.571 -13.380   5.541  1.00  0.00     0.185 C 
BRANCH   8   9
HETATM    9  C   UNL     1      42.749 -13.980   4.154  1.00  0.00     0.227 C 
HETATM   10  N   UNL     1      42.410 -15.306   4.048  1.00  0.00    -0.352 N 
HETATM   11  H   UNL     1      41.997 -15.769   4.859  1.00  0.00     0.163 HD
HETATM   12  O   UNL     1      43.194 -13.323   3.215  1.00  0.00    -0.273 OA
BRANCH  10  13
HETATM   13  C   UNL     1      42.543 -16.085   2.830  1.00  0.00     0.113 C 
HETATM   14  C   UNL     1      41.225 -16.184   2.055  1.00  0.00     0.037 C 
BRANCH  13  15
HETATM   15  C   UNL     1      43.096 -17.458   3.173  1.00  0.00    -0.036 A 
HETATM   16  C   UNL     1      43.600 -17.716   4.456  1.00  0.00     0.009 A 
HETATM   17  C   UNL     1      44.073 -18.987   4.794  1.00  0.00     0.001 A 
HETATM   18  C   UNL     1      44.045 -20.017   3.855  1.00  0.00     0.000 A 
HETATM   19  C   UNL     1      43.539 -19.780   2.580  1.00  0.00     0.001 A 
HETATM   20  C   UNL     1      43.065 -18.512   2.242  1.00  0.00     0.009 A 
ENDBRANCH  13  15
ENDBRANCH  10  13
ENDBRANCH   8   9
ENDBRANCH   7   8
ENDBRANCH   1   7
BRANCH   4  21
HETATM   21  C   UNL     1      44.268  -9.708  10.062  1.00  0.00     0.256 C 
BRANCH  21  22
HETATM   22  O   UNL     1      43.365 -10.413  10.913  1.00  0.00    -0.344 OA
BRANCH  22  23
HETATM   23  C   UNL     1      42.614  -9.624  11.743  1.00  0.00     0.069 A 
HETATM   24  C   UNL     1      43.124  -8.760  12.712  1.00  0.00     0.044 A 
HETATM   25  C   UNL     1      42.263  -7.988  13.512  1.00  0.00    -0.049 A 
HETATM   26  C   UNL     1      40.872  -8.114  13.356  1.00  0.00    -0.052 A 
HETATM   27  C   UNL     1      42.859  -7.087  14.568  1.00  0.00     0.039 C 
HETATM   28  C   UNL     1      39.909  -7.281  14.166  1.00  0.00     0.039 C 
HETATM   29  C   UNL     1      40.368  -8.990  12.386  1.00  0.00     0.010 A 
HETATM   30  C   UNL     1      40.539  -6.683  15.422  1.00  0.00     0.005 C 
HETATM   31  C   UNL     1      41.879  -6.039  15.091  1.00  0.00     0.005 C 
HETATM   32  C   UNL     1      41.233  -9.747  11.594  1.00  0.00     0.037 A 
ENDBRANCH  22  23
ENDBRANCH  21  22
ENDBRANCH   4  21
TORSDOF 8
ENDMDL
