MODEL 1
REMARK VINA RESULT:      -7.4      0.000      0.000
REMARK  6 active torsions:
REMARK  status: ('A' for Active; 'I' for Inactive)
REMARK    1  A    between atoms: O_2  and  C_3 
REMARK    2  A    between atoms: C_3  and  C_4 
REMARK    3  A    between atoms: C_4  and  N_5 
REMARK       I    between atoms: N_5  and  C_6 
REMARK    4  A    between atoms: C_6  and  C_7 
REMARK    5  A    between atoms: C_12  and  C_13 
REMARK    6  A    between atoms: C_20  and  C_21 
ROOT
HETATM    1  C   UNL     1      40.191 -14.214   0.397  1.00  0.00     0.165 A 
HETATM    2  N   UNL     1      40.897 -15.288   0.834  1.00  0.00    -0.163 NA
HETATM    3  N   UNL     1      40.879 -15.165   2.174  1.00  0.00    -0.238 N 
HETATM    4  C   UNL     1      40.153 -14.099   2.626  1.00  0.00     0.141 A 
HETATM    5  N   UNL     1      39.998 -13.859   3.950  1.00  0.00    -0.365 N 
HETATM    6  C   UNL     1      40.754 -14.588   4.961  1.00  0.00     0.118 C 
HETATM    7  C   UNL     1      41.020 -16.026   4.478  1.00  0.00     0.066 C 
HETATM    8  C   UNL     1      41.544 -16.126   3.032  1.00  0.00     0.221 C 
HETATM    9  C   UNL     1      39.707 -13.462   1.497  1.00  0.00     0.092 A 
HETATM   10 BR   UNL     1      38.673 -11.900   1.442  1.00  0.00    -0.044 Br
HETATM   11  H   UNL     1      39.584 -12.981   4.265  1.00  0.00     0.162 HD
ENDROOT
BRANCH   1  12
HETATM   12  C   UNL     1      40.027 -13.957  -1.043  1.00  0.00     0.273 C 
HETATM   13  N   UNL     1      40.977 -13.100  -1.558  1.00  0.00    -0.353 N 
HETATM   14  H   UNL     1      41.568 -12.640  -0.870  1.00  0.00     0.162 HD
HETATM   15  O   UNL     1      39.122 -14.430  -1.727  1.00  0.00    -0.266 OA
BRANCH  13  16
HETATM   16  C   UNL     1      40.878 -12.550  -2.893  1.00  0.00     0.149 C 
BRANCH  16  17
HETATM   17  C   UNL     1      40.423 -11.088  -2.889  1.00  0.00     0.186 C 
BRANCH  17  18
HETATM   18  O   UNL     1      39.071 -11.018  -3.355  1.00  0.00    -0.394 OA
HETATM   19  C   UNL     1      38.151 -10.935  -2.275  1.00  0.00     0.201 C 
ENDBRANCH  17  18
ENDBRANCH  16  17
ENDBRANCH  13  16
ENDBRANCH   1  12
BRANCH   8  20
HETATM   20  C   UNL     1      43.047 -15.989   2.915  1.00  0.00     0.409 C 
HETATM   21  F   UNL     1      43.464 -14.733   2.674  1.00  0.00    -0.169 F 
HETATM   22  F   UNL     1      43.644 -16.397   4.066  1.00  0.00    -0.169 F 
HETATM   23  F   UNL     1      43.550 -16.777   1.936  1.00  0.00    -0.169 F 
ENDBRANCH   8  20
BRANCH   6  24
HETATM   24  C   UNL     1      41.978 -13.837   5.452  1.00  0.00    -0.035 A 
HETATM   25  C   UNL     1      42.744 -14.388   6.496  1.00  0.00     0.009 A 
HETATM   26  C   UNL     1      43.872 -13.728   6.989  1.00  0.00     0.001 A 
HETATM   27  C   UNL     1      44.255 -12.503   6.451  1.00  0.00     0.000 A 
HETATM   28  C   UNL     1      43.507 -11.936   5.424  1.00  0.00     0.001 A 
HETATM   29  C   UNL     1      42.376 -12.594   4.933  1.00  0.00     0.009 A 
ENDBRANCH   6  24
TORSDOF 6
ENDMDL
MODEL 2
REMARK VINA RESULT:      -6.8      2.791      4.463
REMARK  6 active torsions:
REMARK  status: ('A' for Active; 'I' for Inactive)
REMARK    1  A    between atoms: O_2  and  C_3 
REMARK    2  A    between atoms: C_3  and  C_4 
REMARK    3  A    between atoms: C_4  and  N_5 
REMARK       I    between atoms: N_5  and  C_6 
REMARK    4  A    between atoms: C_6  and  C_7 
REMARK    5  A    between atoms: C_12  and  C_13 
REMARK    6  A    between atoms: C_20  and  C_21 
ROOT
HETATM    1  C   UNL     1      39.971 -12.387   3.874  1.00  0.00     0.165 A 
HETATM    2  N   UNL     1      39.812 -13.172   4.971  1.00  0.00    -0.163 NA
HETATM    3  N   UNL     1      41.013 -13.758   5.126  1.00  0.00    -0.238 N 
HETATM    4  C   UNL     1      41.953 -13.350   4.221  1.00  0.00     0.141 A 
HETATM    5  N   UNL     1      43.226 -13.812   4.266  1.00  0.00    -0.365 N 
HETATM    6  C   UNL     1      43.619 -14.911   5.141  1.00  0.00     0.118 C 
HETATM    7  C   UNL     1      42.778 -14.878   6.430  1.00  0.00     0.066 C 
HETATM    8  C   UNL     1      41.264 -14.698   6.201  1.00  0.00     0.221 C 
HETATM    9  C   UNL     1      41.302 -12.473   3.394  1.00  0.00     0.092 A 
HETATM   10 BR   UNL     1      42.040 -11.584   1.919  1.00  0.00    -0.044 Br
HETATM   11  H   UNL     1      43.869 -13.616   3.498  1.00  0.00     0.162 HD
ENDROOT
BRANCH   1  12
HETATM   12  C   UNL     1      38.842 -11.608   3.338  1.00  0.00     0.273 C 
HETATM   13  N   UNL     1      38.293 -12.153   2.197  1.00  0.00    -0.353 N 
HETATM   14  H   UNL     1      38.816 -12.923   1.787  1.00  0.00     0.162 HD
HETATM   15  O   UNL     1      38.436 -10.558   3.831  1.00  0.00    -0.266 OA
BRANCH  13  16
HETATM   16  C   UNL     1      37.321 -11.444   1.392  1.00  0.00     0.149 C 
BRANCH  16  17
HETATM   17  C   UNL     1      37.748 -11.334  -0.074  1.00  0.00     0.186 C 
BRANCH  17  18
HETATM   18  O   UNL     1      38.749 -12.321  -0.346  1.00  0.00    -0.394 OA
HETATM   19  C   UNL     1      39.199 -12.248  -1.692  1.00  0.00     0.201 C 
ENDBRANCH  17  18
ENDBRANCH  16  17
ENDBRANCH  13  16
ENDBRANCH   1  12
BRANCH   8  20
HETATM   20  C   UNL     1      40.525 -15.995   5.952  1.00  0.00     0.409 C 
HETATM   21  F   UNL     1      40.186 -16.194   4.666  1.00  0.00    -0.169 F 
HETATM   22  F   UNL     1      41.291 -17.050   6.333  1.00  0.00    -0.169 F 
HETATM   23  F   UNL     1      39.389 -16.075   6.685  1.00  0.00    -0.169 F 
ENDBRANCH   8  20
BRANCH   6  24
HETATM   24  C   UNL     1      43.661 -16.254   4.433  1.00  0.00    -0.035 A 
HETATM   25  C   UNL     1      43.099 -16.366   3.149  1.00  0.00     0.009 A 
HETATM   26  C   UNL     1      43.104 -17.583   2.463  1.00  0.00     0.001 A 
HETATM   27  C   UNL     1      43.668 -18.712   3.049  1.00  0.00     0.000 A 
HETATM   28  C   UNL     1      44.222 -18.625   4.323  1.00  0.00     0.001 A 
HETATM   29  C   UNL     1      44.214 -17.408   5.011  1.00  0.00     0.009 A 
ENDBRANCH   6  24
TORSDOF 6
ENDMDL
MODEL 3
REMARK VINA RESULT:      -6.8      1.933      2.542
REMARK  6 active torsions:
REMARK  status: ('A' for Active; 'I' for Inactive)
REMARK    1  A    between atoms: O_2  and  C_3 
REMARK    2  A    between atoms: C_3  and  C_4 
REMARK    3  A    between atoms: C_4  and  N_5 
REMARK       I    between atoms: N_5  and  C_6 
REMARK    4  A    between atoms: C_6  and  C_7 
REMARK    5  A    between atoms: C_12  and  C_13 
REMARK    6  A    between atoms: C_20  and  C_21 
ROOT
HETATM    1  C   UNL     1      41.187 -12.223   1.491  1.00  0.00     0.165 A 
HETATM    2  N   UNL     1      41.462 -13.474   1.040  1.00  0.00    -0.163 NA
HETATM    3  N   UNL     1      41.224 -14.262   2.104  1.00  0.00    -0.238 N 
HETATM    4  C   UNL     1      40.757 -13.592   3.200  1.00  0.00     0.141 A 
HETATM    5  N   UNL     1      40.426 -14.245   4.341  1.00  0.00    -0.365 N 
HETATM    6  C   UNL     1      40.736 -15.655   4.541  1.00  0.00     0.118 C 
HETATM    7  C   UNL     1      40.671 -16.400   3.195  1.00  0.00     0.066 C 
HETATM    8  C   UNL     1      41.412 -15.699   2.040  1.00  0.00     0.221 C 
HETATM    9  C   UNL     1      40.734 -12.272   2.834  1.00  0.00     0.092 A 
HETATM   10 BR   UNL     1      40.216 -10.831   3.914  1.00  0.00    -0.044 Br
HETATM   11  H   UNL     1      40.226 -13.717   5.191  1.00  0.00     0.162 HD
ENDROOT
BRANCH   1  12
HETATM   12  C   UNL     1      41.382 -11.051   0.622  1.00  0.00     0.273 C 
HETATM   13  N   UNL     1      40.737 -11.157  -0.593  1.00  0.00    -0.353 N 
HETATM   14  H   UNL     1      40.341 -12.072  -0.798  1.00  0.00     0.162 HD
HETATM   15  O   UNL     1      42.071 -10.079   0.922  1.00  0.00    -0.266 OA
BRANCH  13  16
HETATM   16  C   UNL     1      40.965 -10.222  -1.673  1.00  0.00     0.149 C 
BRANCH  16  17
HETATM   17  C   UNL     1      40.663 -10.831  -3.045  1.00  0.00     0.186 C 
BRANCH  17  18
HETATM   18  O   UNL     1      39.285 -11.217  -3.092  1.00  0.00    -0.394 OA
HETATM   19  C   UNL     1      38.448 -10.116  -3.421  1.00  0.00     0.201 C 
ENDBRANCH  17  18
ENDBRANCH  16  17
ENDBRANCH  13  16
ENDBRANCH   1  12
BRANCH   8  20
HETATM   20  C   UNL     1      42.885 -16.036   1.964  1.00  0.00     0.409 C 
HETATM   21  F   UNL     1      43.380 -16.046   0.713  1.00  0.00    -0.169 F 
HETATM   22  F   UNL     1      43.609 -15.133   2.675  1.00  0.00    -0.169 F 
HETATM   23  F   UNL     1      43.154 -17.244   2.514  1.00  0.00    -0.169 F 
ENDBRANCH   8  20
BRANCH   6  24
HETATM   24  C   UNL     1      42.006 -15.882   5.342  1.00  0.00    -0.035 A 
HETATM   25  C   UNL     1      42.728 -14.767   5.805  1.00  0.00     0.009 A 
HETATM   26  C   UNL     1      43.908 -14.925   6.537  1.00  0.00     0.001 A 
HETATM   27  C   UNL     1      44.390 -16.200   6.816  1.00  0.00     0.000 A 
HETATM   28  C   UNL     1      43.696 -17.316   6.360  1.00  0.00     0.001 A 
HETATM   29  C   UNL     1      42.518 -17.159   5.625  1.00  0.00     0.009 A 
ENDBRANCH   6  24
TORSDOF 6
ENDMDL
MODEL 4
REMARK VINA RESULT:      -6.7      3.820      6.134
REMARK  6 active torsions:
REMARK  status: ('A' for Active; 'I' for Inactive)
REMARK    1  A    between atoms: O_2  and  C_3 
REMARK    2  A    between atoms: C_3  and  C_4 
REMARK    3  A    between atoms: C_4  and  N_5 
REMARK       I    between atoms: N_5  and  C_6 
REMARK    4  A    between atoms: C_6  and  C_7 
REMARK    5  A    between atoms: C_12  and  C_13 
REMARK    6  A    between atoms: C_20  and  C_21 
ROOT
HETATM    1  C   UNL     1      42.175 -15.697   3.193  1.00  0.00     0.165 A 
HETATM    2  N   UNL     1      42.514 -15.219   4.418  1.00  0.00    -0.163 NA
HETATM    3  N   UNL     1      41.549 -14.323   4.694  1.00  0.00    -0.238 N 
HETATM    4  C   UNL     1      40.576 -14.239   3.737  1.00  0.00     0.141 A 
HETATM    5  N   UNL     1      39.510 -13.416   3.884  1.00  0.00    -0.365 N 
HETATM    6  C   UNL     1      39.435 -12.431   4.956  1.00  0.00     0.118 C 
HETATM    7  C   UNL     1      40.158 -12.965   6.206  1.00  0.00     0.066 C 
HETATM    8  C   UNL     1      41.550 -13.566   5.931  1.00  0.00     0.221 C 
HETATM    9  C   UNL     1      40.963 -15.109   2.752  1.00  0.00     0.092 A 
HETATM   10 BR   UNL     1      40.060 -15.432   1.142  1.00  0.00    -0.044 Br
HETATM   11  H   UNL     1      38.878 -13.255   3.098  1.00  0.00     0.162 HD
ENDROOT
BRANCH   1  12
HETATM   12  C   UNL     1      43.030 -16.680   2.507  1.00  0.00     0.273 C 
HETATM   13  N   UNL     1      43.131 -17.881   3.177  1.00  0.00    -0.353 N 
HETATM   14  H   UNL     1      42.737 -17.891   4.114  1.00  0.00     0.162 HD
HETATM   15  O   UNL     1      43.626 -16.457   1.455  1.00  0.00    -0.266 OA
BRANCH  13  16
HETATM   16  C   UNL     1      44.081 -18.903   2.792  1.00  0.00     0.149 C 
BRANCH  16  17
HETATM   17  C   UNL     1      43.395 -20.193   2.334  1.00  0.00     0.186 C 
BRANCH  17  18
HETATM   18  O   UNL     1      43.943 -21.298   3.060  1.00  0.00    -0.394 OA
HETATM   19  C   UNL     1      43.937 -21.055   4.460  1.00  0.00     0.201 C 
ENDBRANCH  17  18
ENDBRANCH  16  17
ENDBRANCH  13  16
ENDBRANCH   1  12
BRANCH   8  20
HETATM   20  C   UNL     1      42.668 -12.546   5.927  1.00  0.00     0.409 C 
HETATM   21  F   UNL     1      42.969 -12.070   4.706  1.00  0.00    -0.169 F 
HETATM   22  F   UNL     1      42.332 -11.482   6.703  1.00  0.00    -0.169 F 
HETATM   23  F   UNL     1      43.808 -13.048   6.457  1.00  0.00    -0.169 F 
ENDBRANCH   8  20
BRANCH   6  24
HETATM   24  C   UNL     1      39.849 -11.037   4.518  1.00  0.00    -0.035 A 
HETATM   25  C   UNL     1      39.727  -9.972   5.430  1.00  0.00     0.009 A 
HETATM   26  C   UNL     1      40.084  -8.670   5.069  1.00  0.00     0.001 A 
HETATM   27  C   UNL     1      40.567  -8.407   3.791  1.00  0.00     0.000 A 
HETATM   28  C   UNL     1      40.687  -9.445   2.871  1.00  0.00     0.001 A 
HETATM   29  C   UNL     1      40.326 -10.747   3.230  1.00  0.00     0.009 A 
ENDBRANCH   6  24
TORSDOF 6
ENDMDL
MODEL 5
REMARK VINA RESULT:      -6.7      1.500      1.962
REMARK  6 active torsions:
REMARK  status: ('A' for Active; 'I' for Inactive)
REMARK    1  A    between atoms: O_2  and  C_3 
REMARK    2  A    between atoms: C_3  and  C_4 
REMARK    3  A    between atoms: C_4  and  N_5 
REMARK       I    between atoms: N_5  and  C_6 
REMARK    4  A    between atoms: C_6  and  C_7 
REMARK    5  A    between atoms: C_12  and  C_13 
REMARK    6  A    between atoms: C_20  and  C_21 
ROOT
HETATM    1  C   UNL     1      40.215 -13.465   0.427  1.00  0.00     0.165 A 
HETATM    2  N   UNL     1      41.052 -14.531   0.517  1.00  0.00    -0.163 NA
HETATM    3  N   UNL     1      40.975 -14.895   1.810  1.00  0.00    -0.238 N 
HETATM    4  C   UNL     1      40.092 -14.156   2.546  1.00  0.00     0.141 A 
HETATM    5  N   UNL     1      39.863 -14.424   3.854  1.00  0.00    -0.365 N 
HETATM    6  C   UNL     1      40.683 -15.368   4.604  1.00  0.00     0.118 C 
HETATM    7  C   UNL     1      41.165 -16.495   3.673  1.00  0.00     0.066 C 
HETATM    8  C   UNL     1      41.743 -16.010   2.329  1.00  0.00     0.221 C 
HETATM    9  C   UNL     1      39.595 -13.219   1.678  1.00  0.00     0.092 A 
HETATM   10 BR   UNL     1      38.352 -11.878   2.089  1.00  0.00    -0.044 Br
HETATM   11  H   UNL     1      39.319 -13.772   4.421  1.00  0.00     0.162 HD
ENDROOT
BRANCH   1  12
HETATM   12  C   UNL     1      40.061 -12.735  -0.842  1.00  0.00     0.273 C 
HETATM   13  N   UNL     1      40.855 -11.611  -0.926  1.00  0.00    -0.353 N 
HETATM   14  H   UNL     1      41.325 -11.344  -0.065  1.00  0.00     0.162 HD
HETATM   15  O   UNL     1      39.284 -13.066  -1.735  1.00  0.00    -0.266 OA
BRANCH  13  16
HETATM   16  C   UNL     1      40.707 -10.639  -1.989  1.00  0.00     0.149 C 
BRANCH  16  17
HETATM   17  C   UNL     1      41.102  -9.228  -1.545  1.00  0.00     0.186 C 
BRANCH  17  18
HETATM   18  O   UNL     1      42.517  -9.182  -1.333  1.00  0.00    -0.394 OA
HETATM   19  C   UNL     1      43.068  -7.946  -1.768  1.00  0.00     0.201 C 
ENDBRANCH  17  18
ENDBRANCH  16  17
ENDBRANCH  13  16
ENDBRANCH   1  12
BRANCH   8  20
HETATM   20  C   UNL     1      43.214 -15.659   2.387  1.00  0.00     0.409 C 
HETATM   21  F   UNL     1      43.464 -14.339   2.323  1.00  0.00    -0.169 F 
HETATM   22  F   UNL     1      43.759 -16.115   3.545  1.00  0.00    -0.169 F 
HETATM   23  F   UNL     1      43.912 -16.250   1.389  1.00  0.00    -0.169 F 
ENDBRANCH   8  20
BRANCH   6  24
HETATM   24  C   UNL     1      41.774 -14.697   5.422  1.00  0.00    -0.035 A 
HETATM   25  C   UNL     1      42.050 -13.335   5.202  1.00  0.00     0.009 A 
HETATM   26  C   UNL     1      43.051 -12.677   5.921  1.00  0.00     0.001 A 
HETATM   27  C   UNL     1      43.797 -13.369   6.871  1.00  0.00     0.000 A 
HETATM   28  C   UNL     1      43.546 -14.718   7.097  1.00  0.00     0.001 A 
HETATM   29  C   UNL     1      42.547 -15.378   6.375  1.00  0.00     0.009 A 
ENDBRANCH   6  24
TORSDOF 6
ENDMDL
MODEL 6
REMARK VINA RESULT:      -6.5      6.834      9.415
REMARK  6 active torsions:
REMARK  status: ('A' for Active; 'I' for Inactive)
REMARK    1  A    between atoms: O_2  and  C_3 
REMARK    2  A    between atoms: C_3  and  C_4 
REMARK    3  A    between atoms: C_4  and  N_5 
REMARK       I    between atoms: N_5  and  C_6 
REMARK    4  A    between atoms: C_6  and  C_7 
REMARK    5  A    between atoms: C_12  and  C_13 
REMARK    6  A    between atoms: C_20  and  C_21 
ROOT
HETATM    1  C   UNL     1      43.239 -10.909   6.993  1.00  0.00     0.165 A 
HETATM    2  N   UNL     1      42.036 -10.286   7.086  1.00  0.00    -0.163 NA
HETATM    3  N   UNL     1      42.306  -9.163   7.776  1.00  0.00    -0.238 N 
HETATM    4  C   UNL     1      43.627  -9.003   8.086  1.00  0.00     0.141 A 
HETATM    5  N   UNL     1      44.073  -7.903   8.741  1.00  0.00    -0.365 N 
HETATM    6  C   UNL     1      43.158  -6.933   9.331  1.00  0.00     0.118 C 
HETATM    7  C   UNL     1      41.875  -6.843   8.486  1.00  0.00     0.066 C 
HETATM    8  C   UNL     1      41.266  -8.207   8.104  1.00  0.00     0.221 C 
HETATM    9  C   UNL     1      44.250 -10.123   7.600  1.00  0.00     0.092 A 
HETATM   10 BR   UNL     1      46.076 -10.522   7.735  1.00  0.00    -0.044 Br
HETATM   11  H   UNL     1      45.029  -7.872   9.095  1.00  0.00     0.162 HD
ENDROOT
BRANCH   1  12
HETATM   12  C   UNL     1      43.356 -12.224   6.341  1.00  0.00     0.273 C 
HETATM   13  N   UNL     1      43.175 -13.282   7.207  1.00  0.00    -0.353 N 
HETATM   14  H   UNL     1      43.135 -13.037   8.193  1.00  0.00     0.162 HD
HETATM   15  O   UNL     1      43.616 -12.380   5.151  1.00  0.00    -0.266 OA
BRANCH  13  16
HETATM   16  C   UNL     1      43.454 -14.650   6.824  1.00  0.00     0.149 C 
BRANCH  16  17
HETATM   17  C   UNL     1      42.724 -15.663   7.710  1.00  0.00     0.186 C 
BRANCH  17  18
HETATM   18  O   UNL     1      41.867 -16.468   6.893  1.00  0.00    -0.394 OA
HETATM   19  C   UNL     1      40.659 -15.789   6.578  1.00  0.00     0.201 C 
ENDBRANCH  17  18
ENDBRANCH  16  17
ENDBRANCH  13  16
ENDBRANCH   1  12
BRANCH   8  20
HETATM   20  C   UNL     1      40.334  -8.776   9.152  1.00  0.00     0.409 C 
HETATM   21  F   UNL     1      40.922  -9.648   9.990  1.00  0.00    -0.169 F 
HETATM   22  F   UNL     1      39.817  -7.775   9.911  1.00  0.00    -0.169 F 
HETATM   23  F   UNL     1      39.273  -9.406   8.593  1.00  0.00    -0.169 F 
ENDBRANCH   8  20
BRANCH   6  24
HETATM   24  C   UNL     1      42.937  -7.146  10.819  1.00  0.00    -0.035 A 
HETATM   25  C   UNL     1      42.228  -6.174  11.548  1.00  0.00     0.009 A 
HETATM   26  C   UNL     1      42.009  -6.320  12.921  1.00  0.00     0.001 A 
HETATM   27  C   UNL     1      42.496  -7.439  13.590  1.00  0.00     0.000 A 
HETATM   28  C   UNL     1      43.207  -8.407  12.888  1.00  0.00     0.001 A 
HETATM   29  C   UNL     1      43.431  -8.260  11.516  1.00  0.00     0.009 A 
ENDBRANCH   6  24
TORSDOF 6
ENDMDL
MODEL 7
REMARK VINA RESULT:      -6.4     16.186     18.730
REMARK  6 active torsions:
REMARK  status: ('A' for Active; 'I' for Inactive)
REMARK    1  A    between atoms: O_2  and  C_3 
REMARK    2  A    between atoms: C_3  and  C_4 
REMARK    3  A    between atoms: C_4  and  N_5 
REMARK       I    between atoms: N_5  and  C_6 
REMARK    4  A    between atoms: C_6  and  C_7 
REMARK    5  A    between atoms: C_12  and  C_13 
REMARK    6  A    between atoms: C_20  and  C_21 
ROOT
HETATM    1  C   UNL     1      46.750 -29.893   2.451  1.00  0.00     0.165 A 
HETATM    2  N   UNL     1      47.263 -29.100   1.475  1.00  0.00    -0.163 NA
HETATM    3  N   UNL     1      46.259 -28.989   0.587  1.00  0.00    -0.238 N 
HETATM    4  C   UNL     1      45.108 -29.622   0.965  1.00  0.00     0.141 A 
HETATM    5  N   UNL     1      43.989 -29.570   0.203  1.00  0.00    -0.365 N 
HETATM    6  C   UNL     1      43.998 -29.018  -1.146  1.00  0.00     0.118 C 
HETATM    7  C   UNL     1      45.031 -27.879  -1.238  1.00  0.00     0.066 C 
HETATM    8  C   UNL     1      46.407 -28.216  -0.631  1.00  0.00     0.221 C 
HETATM    9  C   UNL     1      45.403 -30.223   2.161  1.00  0.00     0.092 A 
HETATM   10 BR   UNL     1      44.242 -31.278   3.186  1.00  0.00    -0.044 Br
HETATM   11  H   UNL     1      43.192 -30.169   0.424  1.00  0.00     0.162 HD
ENDROOT
BRANCH   1  12
HETATM   12  C   UNL     1      47.577 -30.301   3.599  1.00  0.00     0.273 C 
HETATM   13  N   UNL     1      48.782 -30.863   3.235  1.00  0.00    -0.353 N 
HETATM   14  H   UNL     1      48.887 -31.062   2.243  1.00  0.00     0.162 HD
HETATM   15  O   UNL     1      47.228 -30.185   4.772  1.00  0.00    -0.266 OA
BRANCH  13  16
HETATM   16  C   UNL     1      49.648 -31.521   4.190  1.00  0.00     0.149 C 
BRANCH  16  17
HETATM   17  C   UNL     1      50.893 -30.691   4.514  1.00  0.00     0.186 C 
BRANCH  17  18
HETATM   18  O   UNL     1      51.494 -31.197   5.711  1.00  0.00    -0.394 OA
HETATM   19  C   UNL     1      51.912 -32.546   5.554  1.00  0.00     0.201 C 
ENDBRANCH  17  18
ENDBRANCH  16  17
ENDBRANCH  13  16
ENDBRANCH   1  12
BRANCH   8  20
HETATM   20  C   UNL     1      47.344 -28.917  -1.592  1.00  0.00     0.409 C 
HETATM   21  F   UNL     1      48.637 -28.579  -1.438  1.00  0.00    -0.169 F 
HETATM   22  F   UNL     1      47.258 -30.263  -1.430  1.00  0.00    -0.169 F 
HETATM   23  F   UNL     1      47.015 -28.675  -2.883  1.00  0.00    -0.169 F 
ENDBRANCH   8  20
BRANCH   6  24
HETATM   24  C   UNL     1      44.110 -30.079  -2.227  1.00  0.00    -0.035 A 
HETATM   25  C   UNL     1      44.036 -29.688  -3.577  1.00  0.00     0.009 A 
HETATM   26  C   UNL     1      44.123 -30.629  -4.606  1.00  0.00     0.001 A 
HETATM   27  C   UNL     1      44.283 -31.978  -4.306  1.00  0.00     0.000 A 
HETATM   28  C   UNL     1      44.350 -32.387  -2.977  1.00  0.00     0.001 A 
HETATM   29  C   UNL     1      44.259 -31.447  -1.947  1.00  0.00     0.009 A 
ENDBRANCH   6  24
TORSDOF 6
ENDMDL
MODEL 8
REMARK VINA RESULT:      -6.4     16.520     18.972
REMARK  6 active torsions:
REMARK  status: ('A' for Active; 'I' for Inactive)
REMARK    1  A    between atoms: O_2  and  C_3 
REMARK    2  A    between atoms: C_3  and  C_4 
REMARK    3  A    between atoms: C_4  and  N_5 
REMARK       I    between atoms: N_5  and  C_6 
REMARK    4  A    between atoms: C_6  and  C_7 
REMARK    5  A    between atoms: C_12  and  C_13 
REMARK    6  A    between atoms: C_20  and  C_21 
ROOT
HETATM    1  C   UNL     1      47.556 -31.367   2.238  1.00  0.00     0.165 A 
HETATM    2  N   UNL     1      48.441 -30.775   1.395  1.00  0.00    -0.163 NA
HETATM    3  N   UNL     1      47.715 -29.828   0.775  1.00  0.00    -0.238 N 
HETATM    4  C   UNL     1      46.423 -29.741   1.213  1.00  0.00     0.141 A 
HETATM    5  N   UNL     1      45.571 -28.808   0.723  1.00  0.00    -0.365 N 
HETATM    6  C   UNL     1      45.908 -27.985  -0.433  1.00  0.00     0.118 C 
HETATM    7  C   UNL     1      47.423 -27.714  -0.456  1.00  0.00     0.066 C 
HETATM    8  C   UNL     1      48.299 -28.962  -0.231  1.00  0.00     0.221 C 
HETATM    9  C   UNL     1      46.292 -30.732   2.151  1.00  0.00     0.092 A 
HETATM   10 BR   UNL     1      44.737 -31.154   3.107  1.00  0.00    -0.044 Br
HETATM   11  H   UNL     1      44.577 -28.856   0.949  1.00  0.00     0.162 HD
ENDROOT
BRANCH   1  12
HETATM   12  C   UNL     1      47.961 -32.512   3.070  1.00  0.00     0.273 C 
HETATM   13  N   UNL     1      47.990 -32.225   4.419  1.00  0.00    -0.353 N 
HETATM   14  H   UNL     1      47.879 -31.242   4.658  1.00  0.00     0.162 HD
HETATM   15  O   UNL     1      48.274 -33.612   2.621  1.00  0.00    -0.266 OA
BRANCH  13  16
HETATM   16  C   UNL     1      48.560 -33.134   5.390  1.00  0.00     0.149 C 
BRANCH  16  17
HETATM   17  C   UNL     1      49.761 -32.528   6.121  1.00  0.00     0.186 C 
BRANCH  17  18
HETATM   18  O   UNL     1      50.836 -32.355   5.191  1.00  0.00    -0.394 OA
HETATM   19  C   UNL     1      51.342 -31.027   5.221  1.00  0.00     0.201 C 
ENDBRANCH  17  18
ENDBRANCH  16  17
ENDBRANCH  13  16
ENDBRANCH   1  12
BRANCH   8  20
HETATM   20  C   UNL     1      48.590 -29.741  -1.495  1.00  0.00     0.409 C 
HETATM   21  F   UNL     1      47.718 -30.736  -1.738  1.00  0.00    -0.169 F 
HETATM   22  F   UNL     1      48.564 -28.912  -2.571  1.00  0.00    -0.169 F 
HETATM   23  F   UNL     1      49.829 -30.287  -1.476  1.00  0.00    -0.169 F 
ENDBRANCH   8  20
BRANCH   6  24
HETATM   24  C   UNL     1      45.328 -28.512  -1.734  1.00  0.00    -0.035 A 
HETATM   25  C   UNL     1      44.545 -29.681  -1.707  1.00  0.00     0.009 A 
HETATM   26  C   UNL     1      44.000 -30.210  -2.880  1.00  0.00     0.001 A 
HETATM   27  C   UNL     1      44.229 -29.583  -4.101  1.00  0.00     0.000 A 
HETATM   28  C   UNL     1      45.007 -28.431  -4.150  1.00  0.00     0.001 A 
HETATM   29  C   UNL     1      45.556 -27.903  -2.978  1.00  0.00     0.009 A 
ENDBRANCH   6  24
TORSDOF 6
ENDMDL
MODEL 9
REMARK VINA RESULT:      -6.3      3.980      7.757
REMARK  6 active torsions:
REMARK  status: ('A' for Active; 'I' for Inactive)
REMARK    1  A    between atoms: O_2  and  C_3 
REMARK    2  A    between atoms: C_3  and  C_4 
REMARK    3  A    between atoms: C_4  and  N_5 
REMARK       I    between atoms: N_5  and  C_6 
REMARK    4  A    between atoms: C_6  and  C_7 
REMARK    5  A    between atoms: C_12  and  C_13 
REMARK    6  A    between atoms: C_20  and  C_21 
ROOT
HETATM    1  C   UNL     1      40.926 -14.413   1.167  1.00  0.00     0.165 A 
HETATM    2  N   UNL     1      40.660 -14.824  -0.100  1.00  0.00    -0.163 NA
HETATM    3  N   UNL     1      40.529 -13.677  -0.791  1.00  0.00    -0.238 N 
HETATM    4  C   UNL     1      40.750 -12.550  -0.050  1.00  0.00     0.141 A 
HETATM    5  N   UNL     1      40.701 -11.316  -0.606  1.00  0.00    -0.365 N 
HETATM    6  C   UNL     1      40.214 -11.099  -1.963  1.00  0.00     0.118 C 
HETATM    7  C   UNL     1      40.561 -12.313  -2.843  1.00  0.00     0.066 C 
HETATM    8  C   UNL     1      40.226 -13.678  -2.209  1.00  0.00     0.221 C 
HETATM    9  C   UNL     1      40.998 -12.998   1.222  1.00  0.00     0.092 A 
HETATM   10 BR   UNL     1      41.348 -11.933   2.723  1.00  0.00    -0.044 Br
HETATM   11  H   UNL     1      40.719 -10.487  -0.011  1.00  0.00     0.162 HD
ENDROOT
BRANCH   1  12
HETATM   12  C   UNL     1      41.084 -15.391   2.256  1.00  0.00     0.273 C 
HETATM   13  N   UNL     1      42.389 -15.796   2.442  1.00  0.00    -0.353 N 
HETATM   14  H   UNL     1      43.046 -15.495   1.726  1.00  0.00     0.162 HD
HETATM   15  O   UNL     1      40.152 -15.834   2.923  1.00  0.00    -0.266 OA
BRANCH  13  16
HETATM   16  C   UNL     1      42.739 -16.900   3.310  1.00  0.00     0.149 C 
BRANCH  16  17
HETATM   17  C   UNL     1      43.147 -18.150   2.526  1.00  0.00     0.186 C 
BRANCH  17  18
HETATM   18  O   UNL     1      44.318 -18.717   3.123  1.00  0.00    -0.394 OA
HETATM   19  C   UNL     1      44.274 -18.627   4.541  1.00  0.00     0.201 C 
ENDBRANCH  17  18
ENDBRANCH  16  17
ENDBRANCH  13  16
ENDBRANCH   1  12
BRANCH   8  20
HETATM   20  C   UNL     1      38.800 -14.128  -2.445  1.00  0.00     0.409 C 
HETATM   21  F   UNL     1      37.924 -13.669  -1.534  1.00  0.00    -0.169 F 
HETATM   22  F   UNL     1      38.372 -13.704  -3.663  1.00  0.00    -0.169 F 
HETATM   23  F   UNL     1      38.695 -15.478  -2.463  1.00  0.00    -0.169 F 
ENDBRANCH   8  20
BRANCH   6  24
HETATM   24  C   UNL     1      38.760 -10.660  -2.014  1.00  0.00    -0.035 A 
HETATM   25  C   UNL     1      38.168 -10.410  -3.266  1.00  0.00     0.009 A 
HETATM   26  C   UNL     1      36.837  -9.994  -3.363  1.00  0.00     0.001 A 
HETATM   27  C   UNL     1      36.075  -9.817  -2.212  1.00  0.00     0.000 A 
HETATM   28  C   UNL     1      36.645 -10.051  -0.964  1.00  0.00     0.001 A 
HETATM   29  C   UNL     1      37.977 -10.463  -0.866  1.00  0.00     0.009 A 
ENDBRANCH   6  24
TORSDOF 6
ENDMDL
MODEL 10
REMARK VINA RESULT:      -6.3      6.233      8.749
REMARK  6 active torsions:
REMARK  status: ('A' for Active; 'I' for Inactive)
REMARK    1  A    between atoms: O_2  and  C_3 
REMARK    2  A    between atoms: C_3  and  C_4 
REMARK    3  A    between atoms: C_4  and  N_5 
REMARK       I    between atoms: N_5  and  C_6 
REMARK    4  A    between atoms: C_6  and  C_7 
REMARK    5  A    between atoms: C_12  and  C_13 
REMARK    6  A    between atoms: C_20  and  C_21 
ROOT
HETATM    1  C   UNL     1      42.018 -11.358   6.361  1.00  0.00     0.165 A 
HETATM    2  N   UNL     1      41.080 -10.389   6.523  1.00  0.00    -0.163 NA
HETATM    3  N   UNL     1      41.735  -9.408   7.169  1.00  0.00    -0.238 N 
HETATM    4  C   UNL     1      43.060  -9.669   7.383  1.00  0.00     0.141 A 
HETATM    5  N   UNL     1      43.872  -8.764   7.981  1.00  0.00    -0.365 N 
HETATM    6  C   UNL     1      43.351  -7.557   8.612  1.00  0.00     0.118 C 
HETATM    7  C   UNL     1      42.102  -7.070   7.855  1.00  0.00     0.066 C 
HETATM    8  C   UNL     1      41.072  -8.175   7.546  1.00  0.00     0.221 C 
HETATM    9  C   UNL     1      43.265 -10.928   6.880  1.00  0.00     0.092 A 
HETATM   10 BR   UNL     1      44.880 -11.877   6.897  1.00  0.00    -0.044 Br
HETATM   11  H   UNL     1      44.814  -9.034   8.268  1.00  0.00     0.162 HD
ENDROOT
BRANCH   1  12
HETATM   12  C   UNL     1      41.671 -12.642   5.731  1.00  0.00     0.273 C 
HETATM   13  N   UNL     1      40.938 -13.473   6.551  1.00  0.00    -0.353 N 
HETATM   14  H   UNL     1      40.856 -13.171   7.519  1.00  0.00     0.162 HD
HETATM   15  O   UNL     1      42.019 -12.969   4.599  1.00  0.00    -0.266 OA
BRANCH  13  16
HETATM   16  C   UNL     1      40.674 -14.856   6.213  1.00  0.00     0.149 C 
BRANCH  16  17
HETATM   17  C   UNL     1      41.661 -15.817   6.880  1.00  0.00     0.186 C 
BRANCH  17  18
HETATM   18  O   UNL     1      42.222 -16.678   5.883  1.00  0.00    -0.394 OA
HETATM   19  C   UNL     1      43.409 -16.127   5.328  1.00  0.00     0.201 C 
ENDBRANCH  17  18
ENDBRANCH  16  17
ENDBRANCH  13  16
ENDBRANCH   1  12
BRANCH   8  20
HETATM   20  C   UNL     1      40.087  -8.425   8.668  1.00  0.00     0.409 C 
HETATM   21  F   UNL     1      39.805  -7.334   9.402  1.00  0.00    -0.169 F 
HETATM   22  F   UNL     1      38.913  -8.886   8.164  1.00  0.00    -0.169 F 
HETATM   23  F   UNL     1      40.528  -9.382   9.520  1.00  0.00    -0.169 F 
ENDBRANCH   8  20
BRANCH   6  24
HETATM   24  C   UNL     1      43.182  -7.692  10.116  1.00  0.00    -0.035 A 
HETATM   25  C   UNL     1      42.594  -6.634  10.833  1.00  0.00     0.009 A 
HETATM   26  C   UNL     1      42.428  -6.707  12.218  1.00  0.00     0.001 A 
HETATM   27  C   UNL     1      42.849  -7.836  12.913  1.00  0.00     0.000 A 
HETATM   28  C   UNL     1      43.441  -8.890  12.224  1.00  0.00     0.001 A 
HETATM   29  C   UNL     1      43.611  -8.816  10.839  1.00  0.00     0.009 A 
ENDBRANCH   6  24
TORSDOF 6
ENDMDL
