MODEL 1
REMARK VINA RESULT:      -6.9      0.000      0.000
REMARK  5 active torsions:
REMARK  status: ('A' for Active; 'I' for Inactive)
REMARK    1  A    between atoms: C_2  and  C_3 
REMARK    2  A    between atoms: C_3  and  C_4 
REMARK    3  A    between atoms: C_10  and  C_11 
REMARK    4  A    between atoms: C_12  and  O_13 
REMARK    5  A    between atoms: C_22  and  N_23 
ROOT
HETATM    1  C   UNL     1      40.044 -13.501  -2.225  1.00  0.00     0.066 A 
HETATM    2  N   UNL     1      40.804 -13.459  -3.333  1.00  0.00    -0.177 NA
HETATM    3  N   UNL     1      41.632 -12.414  -3.133  1.00  0.00    -0.256 N 
HETATM    4  H   UNL     1      42.299 -12.172  -3.856  1.00  0.00     0.191 HD
HETATM    5  C   UNL     1      41.413 -11.793  -1.947  1.00  0.00     0.175 A 
HETATM    6  C   UNL     1      40.412 -12.482  -1.314  1.00  0.00     0.035 A 
HETATM    7  C   UNL     1      39.920 -12.029   0.019  1.00  0.00     0.107 A 
HETATM    8  C   UNL     1      40.565 -10.691   0.381  1.00  0.00     0.067 A 
HETATM    9  C   UNL     1      39.986  -9.959   1.580  1.00  0.00     0.020 C 
HETATM   10  N   UNL     1      39.505  -9.352   2.575  1.00  0.00    -0.096 N 
HETATM   11  C   UNL     1      41.547 -10.106  -0.357  1.00  0.00     0.139 A 
HETATM   12  O   UNL     1      42.045 -10.700  -1.532  1.00  0.00    -0.279 OA
ENDROOT
BRANCH   7  13
HETATM   13  C   UNL     1      40.282 -13.135   1.001  1.00  0.00    -0.010 A 
HETATM   14  C   UNL     1      39.423 -13.459   2.063  1.00  0.00     0.073 A 
HETATM   15  C   UNL     1      39.749 -14.453   2.987  1.00  0.00     0.038 A 
HETATM   16  C   UNL     1      40.955 -15.144   2.869  1.00  0.00     0.022 A 
HETATM   17  C   UNL     1      41.825 -14.834   1.830  1.00  0.00     0.011 A 
HETATM   18 BR   UNL     1      43.465 -15.762   1.669  1.00  0.00    -0.051 Br
HETATM   19  C   UNL     1      41.501 -13.839   0.906  1.00  0.00     0.030 A 
BRANCH  14  20
HETATM   20  O   UNL     1      38.246 -12.779   2.188  1.00  0.00    -0.360 OA
HETATM   21  H   UNL     1      37.586 -13.359   2.606  1.00  0.00     0.217 HD
ENDBRANCH  14  20
ENDBRANCH   7  13
BRANCH  11  22
HETATM   22  N   UNL     1      42.149  -8.902  -0.073  1.00  0.00    -0.282 NA
HETATM   23  H   UNL     1      42.755  -8.893   0.744  1.00  0.00     0.126 HD
HETATM   24  H   UNL     1      42.580  -8.486  -0.894  1.00  0.00     0.126 HD
ENDBRANCH  11  22
BRANCH   1  25
HETATM   25  C   UNL     1      38.958 -14.517  -2.099  1.00  0.00     0.061 C 
BRANCH  25  26
HETATM   26  C   UNL     1      37.861 -14.338  -3.148  1.00  0.00     0.002 C 
HETATM   27  C   UNL     1      36.977 -13.143  -2.827  1.00  0.00     0.005 C 
ENDBRANCH  25  26
ENDBRANCH   1  25
TORSDOF 5
ENDMDL
MODEL 2
REMARK VINA RESULT:      -6.9      8.833     11.296
REMARK  5 active torsions:
REMARK  status: ('A' for Active; 'I' for Inactive)
REMARK    1  A    between atoms: C_2  and  C_3 
REMARK    2  A    between atoms: C_3  and  C_4 
REMARK    3  A    between atoms: C_10  and  C_11 
REMARK    4  A    between atoms: C_12  and  O_13 
REMARK    5  A    between atoms: C_22  and  N_23 
ROOT
HETATM    1  C   UNL     1      42.174  -9.230  11.369  1.00  0.00     0.066 A 
HETATM    2  N   UNL     1      41.263  -9.921  12.076  1.00  0.00    -0.177 NA
HETATM    3  N   UNL     1      40.240 -10.104  11.216  1.00  0.00    -0.256 N 
HETATM    4  H   UNL     1      39.413 -10.595  11.536  1.00  0.00     0.191 HD
HETATM    5  C   UNL     1      40.470  -9.544  10.002  1.00  0.00     0.175 A 
HETATM    6  C   UNL     1      41.725  -8.993  10.048  1.00  0.00     0.035 A 
HETATM    7  C   UNL     1      42.269  -8.274   8.860  1.00  0.00     0.107 A 
HETATM    8  C   UNL     1      41.183  -8.144   7.792  1.00  0.00     0.067 A 
HETATM    9  C   UNL     1      41.484  -7.217   6.626  1.00  0.00     0.020 C 
HETATM   10  N   UNL     1      41.734  -6.449   5.658  1.00  0.00    -0.096 N 
HETATM   11  C   UNL     1      39.962  -8.737   7.886  1.00  0.00     0.139 A 
HETATM   12  O   UNL     1      39.603  -9.523   8.997  1.00  0.00    -0.279 OA
ENDROOT
BRANCH   7  13
HETATM   13  C   UNL     1      43.462  -9.093   8.382  1.00  0.00    -0.010 A 
HETATM   14  C   UNL     1      44.754  -8.547   8.393  1.00  0.00     0.073 A 
HETATM   15  C   UNL     1      45.856  -9.272   7.936  1.00  0.00     0.038 A 
HETATM   16  C   UNL     1      45.682 -10.568   7.450  1.00  0.00     0.022 A 
HETATM   17  C   UNL     1      44.408 -11.126   7.421  1.00  0.00     0.011 A 
HETATM   18 BR   UNL     1      44.165 -12.879   6.757  1.00  0.00    -0.051 Br
HETATM   19  C   UNL     1      43.306 -10.401   7.877  1.00  0.00     0.030 A 
BRANCH  14  20
HETATM   20  O   UNL     1      44.928  -7.276   8.860  1.00  0.00    -0.360 OA
HETATM   21  H   UNL     1      44.491  -7.191   9.724  1.00  0.00     0.217 HD
ENDBRANCH  14  20
ENDBRANCH   7  13
BRANCH  11  22
HETATM   22  N   UNL     1      38.954  -8.640   6.954  1.00  0.00    -0.282 NA
HETATM   23  H   UNL     1      39.193  -8.941   6.012  1.00  0.00     0.126 HD
HETATM   24  H   UNL     1      38.081  -9.037   7.290  1.00  0.00     0.126 HD
ENDBRANCH  11  22
BRANCH   1  25
HETATM   25  C   UNL     1      43.448  -8.795  12.014  1.00  0.00     0.061 C 
BRANCH  25  26
HETATM   26  C   UNL     1      43.215  -7.891  13.224  1.00  0.00     0.002 C 
HETATM   27  C   UNL     1      42.453  -6.633  12.838  1.00  0.00     0.005 C 
ENDBRANCH  25  26
ENDBRANCH   1  25
TORSDOF 5
ENDMDL
MODEL 3
REMARK VINA RESULT:      -6.8      3.613      5.146
REMARK  5 active torsions:
REMARK  status: ('A' for Active; 'I' for Inactive)
REMARK    1  A    between atoms: C_2  and  C_3 
REMARK    2  A    between atoms: C_3  and  C_4 
REMARK    3  A    between atoms: C_10  and  C_11 
REMARK    4  A    between atoms: C_12  and  O_13 
REMARK    5  A    between atoms: C_22  and  N_23 
ROOT
HETATM    1  C   UNL     1      41.212 -15.058   2.252  1.00  0.00     0.066 A 
HETATM    2  N   UNL     1      41.680 -14.870   1.006  1.00  0.00    -0.177 NA
HETATM    3  N   UNL     1      41.628 -13.535   0.826  1.00  0.00    -0.256 N 
HETATM    4  H   UNL     1      41.921 -13.149  -0.064  1.00  0.00     0.191 HD
HETATM    5  C   UNL     1      41.135 -12.880   1.907  1.00  0.00     0.175 A 
HETATM    6  C   UNL     1      40.880 -13.827   2.865  1.00  0.00     0.035 A 
HETATM    7  C   UNL     1      40.303 -13.423   4.180  1.00  0.00     0.107 A 
HETATM    8  C   UNL     1      39.933 -11.940   4.148  1.00  0.00     0.067 A 
HETATM    9  C   UNL     1      39.098 -11.423   5.309  1.00  0.00     0.020 C 
HETATM   10  N   UNL     1      38.406 -10.994   6.271  1.00  0.00    -0.096 N 
HETATM   11  C   UNL     1      40.235 -11.112   3.113  1.00  0.00     0.139 A 
HETATM   12  O   UNL     1      40.919 -11.571   1.971  1.00  0.00    -0.279 OA
ENDROOT
BRANCH   7  13
HETATM   13  C   UNL     1      41.369 -13.735   5.223  1.00  0.00    -0.010 A 
HETATM   14  C   UNL     1      41.227 -14.833   6.084  1.00  0.00     0.073 A 
HETATM   15  C   UNL     1      42.182 -15.121   7.062  1.00  0.00     0.038 A 
HETATM   16  C   UNL     1      43.303 -14.304   7.201  1.00  0.00     0.022 A 
HETATM   17  C   UNL     1      43.460 -13.204   6.363  1.00  0.00     0.011 A 
HETATM   18 BR   UNL     1      44.975 -12.089   6.551  1.00  0.00    -0.051 Br
HETATM   19  C   UNL     1      42.506 -12.915   5.386  1.00  0.00     0.030 A 
BRANCH  14  20
HETATM   20  O   UNL     1      40.127 -15.631   5.958  1.00  0.00    -0.360 OA
HETATM   21  H   UNL     1      40.391 -16.560   6.073  1.00  0.00     0.217 HD
ENDBRANCH  14  20
ENDBRANCH   7  13
BRANCH  11  22
HETATM   22  N   UNL     1      39.915  -9.776   3.039  1.00  0.00    -0.282 NA
HETATM   23  H   UNL     1      39.970  -9.358   2.113  1.00  0.00     0.126 HD
HETATM   24  H   UNL     1      39.046  -9.562   3.522  1.00  0.00     0.126 HD
ENDBRANCH  11  22
BRANCH   1  25
HETATM   25  C   UNL     1      41.074 -16.440   2.800  1.00  0.00     0.061 C 
BRANCH  25  26
HETATM   26  C   UNL     1      42.380 -17.233   2.729  1.00  0.00     0.002 C 
HETATM   27  C   UNL     1      43.304 -16.883   3.885  1.00  0.00     0.005 C 
ENDBRANCH  25  26
ENDBRANCH   1  25
TORSDOF 5
ENDMDL
MODEL 4
REMARK VINA RESULT:      -6.7      3.181      6.025
REMARK  5 active torsions:
REMARK  status: ('A' for Active; 'I' for Inactive)
REMARK    1  A    between atoms: C_2  and  C_3 
REMARK    2  A    between atoms: C_3  and  C_4 
REMARK    3  A    between atoms: C_10  and  C_11 
REMARK    4  A    between atoms: C_12  and  O_13 
REMARK    5  A    between atoms: C_22  and  N_23 
ROOT
HETATM    1  C   UNL     1      42.569 -11.073   3.920  1.00  0.00     0.066 A 
HETATM    2  N   UNL     1      42.089 -10.030   4.619  1.00  0.00    -0.177 NA
HETATM    3  N   UNL     1      40.777  -9.994   4.308  1.00  0.00    -0.256 N 
HETATM    4  H   UNL     1      40.198  -9.266   4.710  1.00  0.00     0.191 HD
HETATM    5  C   UNL     1      40.419 -10.967   3.433  1.00  0.00     0.175 A 
HETATM    6  C   UNL     1      41.544 -11.708   3.178  1.00  0.00     0.035 A 
HETATM    7  C   UNL     1      41.484 -12.853   2.225  1.00  0.00     0.107 A 
HETATM    8  C   UNL     1      40.116 -12.888   1.545  1.00  0.00     0.067 A 
HETATM    9  C   UNL     1      39.969 -13.829   0.359  1.00  0.00     0.020 C 
HETATM   10  N   UNL     1      39.848 -14.609  -0.623  1.00  0.00    -0.096 N 
HETATM   11  C   UNL     1      39.083 -12.073   1.890  1.00  0.00     0.139 A 
HETATM   12  O   UNL     1      39.205 -11.116   2.916  1.00  0.00    -0.279 OA
ENDROOT
BRANCH   7  13
HETATM   13  C   UNL     1      41.757 -14.104   3.050  1.00  0.00    -0.010 A 
HETATM   14  C   UNL     1      42.746 -15.018   2.658  1.00  0.00     0.073 A 
HETATM   15  C   UNL     1      42.994 -16.183   3.388  1.00  0.00     0.038 A 
HETATM   16  C   UNL     1      42.245 -16.459   4.532  1.00  0.00     0.022 A 
HETATM   17  C   UNL     1      41.253 -15.570   4.934  1.00  0.00     0.011 A 
HETATM   18 BR   UNL     1      40.229 -15.943   6.479  1.00  0.00    -0.051 Br
HETATM   19  C   UNL     1      41.003 -14.407   4.204  1.00  0.00     0.030 A 
BRANCH  14  20
HETATM   20  O   UNL     1      43.476 -14.757   1.534  1.00  0.00    -0.360 OA
HETATM   21  H   UNL     1      44.329 -14.367   1.792  1.00  0.00     0.217 HD
ENDBRANCH  14  20
ENDBRANCH   7  13
BRANCH  11  22
HETATM   22  N   UNL     1      37.840 -12.065   1.301  1.00  0.00    -0.282 NA
HETATM   23  H   UNL     1      37.831 -12.143   0.287  1.00  0.00     0.126 HD
HETATM   24  H   UNL     1      37.195 -12.707   1.756  1.00  0.00     0.126 HD
ENDBRANCH  11  22
BRANCH   1  25
HETATM   25  C   UNL     1      44.023 -11.405   3.973  1.00  0.00     0.061 C 
BRANCH  25  26
HETATM   26  C   UNL     1      44.522 -11.630   5.400  1.00  0.00     0.002 C 
HETATM   27  C   UNL     1      43.845 -12.832   6.041  1.00  0.00     0.005 C 
ENDBRANCH  25  26
ENDBRANCH   1  25
TORSDOF 5
ENDMDL
MODEL 5
REMARK VINA RESULT:      -6.7      9.780     12.092
REMARK  5 active torsions:
REMARK  status: ('A' for Active; 'I' for Inactive)
REMARK    1  A    between atoms: C_2  and  C_3 
REMARK    2  A    between atoms: C_3  and  C_4 
REMARK    3  A    between atoms: C_10  and  C_11 
REMARK    4  A    between atoms: C_12  and  O_13 
REMARK    5  A    between atoms: C_22  and  N_23 
ROOT
HETATM    1  C   UNL     1      44.391 -10.081  10.738  1.00  0.00     0.066 A 
HETATM    2  N   UNL     1      44.539 -11.250  11.386  1.00  0.00    -0.177 NA
HETATM    3  N   UNL     1      43.472 -11.316  12.208  1.00  0.00    -0.256 N 
HETATM    4  H   UNL     1      43.376 -12.116  12.822  1.00  0.00     0.191 HD
HETATM    5  C   UNL     1      42.667 -10.229  12.108  1.00  0.00     0.175 A 
HETATM    6  C   UNL     1      43.209  -9.417  11.145  1.00  0.00     0.035 A 
HETATM    7  C   UNL     1      42.561  -8.116  10.812  1.00  0.00     0.107 A 
HETATM    8  C   UNL     1      41.418  -7.843  11.790  1.00  0.00     0.067 A 
HETATM    9  C   UNL     1      40.817  -6.447  11.761  1.00  0.00     0.020 C 
HETATM   10  N   UNL     1      40.318  -5.290  11.736  1.00  0.00    -0.096 N 
HETATM   11  C   UNL     1      40.991  -8.742  12.718  1.00  0.00     0.139 A 
HETATM   12  O   UNL     1      41.586 -10.011  12.849  1.00  0.00    -0.279 OA
ENDROOT
BRANCH   7  13
HETATM   13  C   UNL     1      42.078  -8.241   9.373  1.00  0.00    -0.010 A 
HETATM   14  C   UNL     1      42.623  -7.434   8.363  1.00  0.00     0.073 A 
HETATM   15  C   UNL     1      42.176  -7.518   7.042  1.00  0.00     0.038 A 
HETATM   16  C   UNL     1      41.162  -8.414   6.706  1.00  0.00     0.022 A 
HETATM   17  C   UNL     1      40.600  -9.217   7.694  1.00  0.00     0.011 A 
HETATM   18 BR   UNL     1      39.219 -10.428   7.246  1.00  0.00    -0.051 Br
HETATM   19  C   UNL     1      41.045  -9.134   9.014  1.00  0.00     0.030 A 
BRANCH  14  20
HETATM   20  O   UNL     1      43.610  -6.550   8.688  1.00  0.00    -0.360 OA
HETATM   21  H   UNL     1      43.553  -5.777   8.100  1.00  0.00     0.217 HD
ENDBRANCH  14  20
ENDBRANCH   7  13
BRANCH  11  22
HETATM   22  N   UNL     1      39.974  -8.535  13.621  1.00  0.00    -0.282 NA
HETATM   23  H   UNL     1      40.112  -7.768  14.274  1.00  0.00     0.126 HD
HETATM   24  H   UNL     1      39.061  -8.520  13.174  1.00  0.00     0.126 HD
ENDBRANCH  11  22
BRANCH   1  25
HETATM   25  C   UNL     1      45.423  -9.632   9.758  1.00  0.00     0.061 C 
BRANCH  25  26
HETATM   26  C   UNL     1      45.573 -10.594   8.579  1.00  0.00     0.002 C 
HETATM   27  C   UNL     1      44.260 -10.759   7.829  1.00  0.00     0.005 C 
ENDBRANCH  25  26
ENDBRANCH   1  25
TORSDOF 5
ENDMDL
MODEL 6
REMARK VINA RESULT:      -6.6     11.135     13.891
REMARK  5 active torsions:
REMARK  status: ('A' for Active; 'I' for Inactive)
REMARK    1  A    between atoms: C_2  and  C_3 
REMARK    2  A    between atoms: C_3  and  C_4 
REMARK    3  A    between atoms: C_10  and  C_11 
REMARK    4  A    between atoms: C_12  and  O_13 
REMARK    5  A    between atoms: C_22  and  N_23 
ROOT
HETATM    1  C   UNL     1      41.144  -6.006  13.320  1.00  0.00     0.066 A 
HETATM    2  N   UNL     1      41.411  -5.992  14.637  1.00  0.00    -0.177 NA
HETATM    3  N   UNL     1      41.243  -7.272  15.027  1.00  0.00    -0.256 N 
HETATM    4  H   UNL     1      41.375  -7.508  16.003  1.00  0.00     0.191 HD
HETATM    5  C   UNL     1      40.870  -8.085  14.007  1.00  0.00     0.175 A 
HETATM    6  C   UNL     1      40.823  -7.311  12.876  1.00  0.00     0.035 A 
HETATM    7  C   UNL     1      40.419  -7.914  11.574  1.00  0.00     0.107 A 
HETATM    8  C   UNL     1      39.948  -9.352  11.794  1.00  0.00     0.067 A 
HETATM    9  C   UNL     1      39.259 -10.029  10.621  1.00  0.00     0.020 C 
HETATM   10  N   UNL     1      38.688 -10.591   9.647  1.00  0.00    -0.096 N 
HETATM   11  C   UNL     1      40.039  -9.998  12.988  1.00  0.00     0.139 A 
HETATM   12  O   UNL     1      40.578  -9.374  14.129  1.00  0.00    -0.279 OA
ENDROOT
BRANCH   7  13
HETATM   13  C   UNL     1      41.645  -7.834  10.673  1.00  0.00    -0.010 A 
HETATM   14  C   UNL     1      41.692  -6.921   9.609  1.00  0.00     0.073 A 
HETATM   15  C   UNL     1      42.797  -6.850   8.758  1.00  0.00     0.038 A 
HETATM   16  C   UNL     1      43.882  -7.704   8.954  1.00  0.00     0.022 A 
HETATM   17  C   UNL     1      43.853  -8.624   9.997  1.00  0.00     0.011 A 
HETATM   18 BR   UNL     1      45.317  -9.789  10.263  1.00  0.00    -0.051 Br
HETATM   19  C   UNL     1      42.748  -8.697  10.848  1.00  0.00     0.030 A 
BRANCH  14  20
HETATM   20  O   UNL     1      40.629  -6.089   9.408  1.00  0.00    -0.360 OA
HETATM   21  H   UNL     1      40.115  -6.407   8.646  1.00  0.00     0.217 HD
ENDBRANCH  14  20
ENDBRANCH   7  13
BRANCH  11  22
HETATM   22  N   UNL     1      39.621 -11.286  13.232  1.00  0.00    -0.282 NA
HETATM   23  H   UNL     1      40.359 -11.979  13.331  1.00  0.00     0.126 HD
HETATM   24  H   UNL     1      38.930 -11.331  13.977  1.00  0.00     0.126 HD
ENDBRANCH  11  22
BRANCH   1  25
HETATM   25  C   UNL     1      41.182  -4.737  12.535  1.00  0.00     0.061 C 
BRANCH  25  26
HETATM   26  C   UNL     1      42.608  -4.252  12.271  1.00  0.00     0.002 C 
HETATM   27  C   UNL     1      42.729  -3.606  10.900  1.00  0.00     0.005 C 
ENDBRANCH  25  26
ENDBRANCH   1  25
TORSDOF 5
ENDMDL
MODEL 7
REMARK VINA RESULT:      -6.5      4.237      6.233
REMARK  5 active torsions:
REMARK  status: ('A' for Active; 'I' for Inactive)
REMARK    1  A    between atoms: C_2  and  C_3 
REMARK    2  A    between atoms: C_3  and  C_4 
REMARK    3  A    between atoms: C_10  and  C_11 
REMARK    4  A    between atoms: C_12  and  O_13 
REMARK    5  A    between atoms: C_22  and  N_23 
ROOT
HETATM    1  C   UNL     1      41.690 -14.515   4.040  1.00  0.00     0.066 A 
HETATM    2  N   UNL     1      41.126 -15.649   4.492  1.00  0.00    -0.177 NA
HETATM    3  N   UNL     1      40.223 -15.234   5.403  1.00  0.00    -0.256 N 
HETATM    4  H   UNL     1      39.675 -15.927   5.901  1.00  0.00     0.191 HD
HETATM    5  C   UNL     1      40.206 -13.886   5.547  1.00  0.00     0.175 A 
HETATM    6  C   UNL     1      41.121 -13.378   4.661  1.00  0.00     0.035 A 
HETATM    7  C   UNL     1      41.357 -11.907   4.591  1.00  0.00     0.107 A 
HETATM    8  C   UNL     1      40.591 -11.207   5.713  1.00  0.00     0.067 A 
HETATM    9  C   UNL     1      40.921  -9.742   5.950  1.00  0.00     0.020 C 
HETATM   10  N   UNL     1      41.194  -8.527   6.146  1.00  0.00    -0.096 N 
HETATM   11  C   UNL     1      39.718 -11.844   6.539  1.00  0.00     0.139 A 
HETATM   12  O   UNL     1      39.458 -13.223   6.421  1.00  0.00    -0.279 OA
ENDROOT
BRANCH   7  13
HETATM   13  C   UNL     1      40.892 -11.471   3.207  1.00  0.00    -0.010 A 
HETATM   14  C   UNL     1      41.809 -10.974   2.269  1.00  0.00     0.073 A 
HETATM   15  C   UNL     1      41.399 -10.546   1.004  1.00  0.00     0.038 A 
HETATM   16  C   UNL     1      40.050 -10.602   0.655  1.00  0.00     0.022 A 
HETATM   17  C   UNL     1      39.122 -11.082   1.574  1.00  0.00     0.011 A 
HETATM   18 BR   UNL     1      37.291 -11.153   1.109  1.00  0.00    -0.051 Br
HETATM   19  C   UNL     1      39.531 -11.509   2.838  1.00  0.00     0.030 A 
BRANCH  14  20
HETATM   20  O   UNL     1      43.130 -10.910   2.608  1.00  0.00    -0.360 OA
HETATM   21  H   UNL     1      43.383  -9.979   2.733  1.00  0.00     0.217 HD
ENDBRANCH  14  20
ENDBRANCH   7  13
BRANCH  11  22
HETATM   22  N   UNL     1      39.015 -11.255   7.565  1.00  0.00    -0.282 NA
HETATM   23  H   UNL     1      39.111 -11.696   8.477  1.00  0.00     0.126 HD
HETATM   24  H   UNL     1      39.147 -10.248   7.592  1.00  0.00     0.126 HD
ENDBRANCH  11  22
BRANCH   1  25
HETATM   25  C   UNL     1      42.790 -14.576   3.033  1.00  0.00     0.061 C 
BRANCH  25  26
HETATM   26  C   UNL     1      42.357 -15.248   1.730  1.00  0.00     0.002 C 
HETATM   27  C   UNL     1      41.248 -14.465   1.044  1.00  0.00     0.005 C 
ENDBRANCH  25  26
ENDBRANCH   1  25
TORSDOF 5
ENDMDL
MODEL 8
REMARK VINA RESULT:      -6.4      4.781      6.702
REMARK  5 active torsions:
REMARK  status: ('A' for Active; 'I' for Inactive)
REMARK    1  A    between atoms: C_2  and  C_3 
REMARK    2  A    between atoms: C_3  and  C_4 
REMARK    3  A    between atoms: C_10  and  C_11 
REMARK    4  A    between atoms: C_12  and  O_13 
REMARK    5  A    between atoms: C_22  and  N_23 
ROOT
HETATM    1  C   UNL     1      41.501 -15.015   3.028  1.00  0.00     0.066 A 
HETATM    2  N   UNL     1      40.824 -16.166   3.182  1.00  0.00    -0.177 NA
HETATM    3  N   UNL     1      40.911 -16.433   4.501  1.00  0.00    -0.256 N 
HETATM    4  H   UNL     1      40.482 -17.278   4.859  1.00  0.00     0.191 HD
HETATM    5  C   UNL     1      41.626 -15.499   5.177  1.00  0.00     0.175 A 
HETATM    6  C   UNL     1      42.002 -14.546   4.265  1.00  0.00     0.035 A 
HETATM    7  C   UNL     1      42.829 -13.383   4.698  1.00  0.00     0.107 A 
HETATM    8  C   UNL     1      43.263 -13.570   6.152  1.00  0.00     0.067 A 
HETATM    9  C   UNL     1      44.321 -12.611   6.674  1.00  0.00     0.020 C 
HETATM   10  N   UNL     1      45.197 -11.816   7.108  1.00  0.00    -0.096 N 
HETATM   11  C   UNL     1      42.820 -14.583   6.945  1.00  0.00     0.139 A 
HETATM   12  O   UNL     1      41.917 -15.554   6.472  1.00  0.00    -0.279 OA
ENDROOT
BRANCH   7  13
HETATM   13  C   UNL     1      41.956 -12.150   4.505  1.00  0.00    -0.010 A 
HETATM   14  C   UNL     1      42.297 -11.173   3.557  1.00  0.00     0.073 A 
HETATM   15  C   UNL     1      41.523 -10.024   3.382  1.00  0.00     0.038 A 
HETATM   16  C   UNL     1      40.385  -9.827   4.165  1.00  0.00     0.022 A 
HETATM   17  C   UNL     1      40.033 -10.778   5.117  1.00  0.00     0.011 A 
HETATM   18 BR   UNL     1      38.496 -10.512   6.186  1.00  0.00    -0.051 Br
HETATM   19  C   UNL     1      40.807 -11.926   5.293  1.00  0.00     0.030 A 
BRANCH  14  20
HETATM   20  O   UNL     1      43.415 -11.358   2.795  1.00  0.00    -0.360 OA
HETATM   21  H   UNL     1      44.098 -11.795   3.331  1.00  0.00     0.217 HD
ENDBRANCH  14  20
ENDBRANCH   7  13
BRANCH  11  22
HETATM   22  N   UNL     1      43.190 -14.793   8.253  1.00  0.00    -0.282 NA
HETATM   23  H   UNL     1      44.120 -14.468   8.507  1.00  0.00     0.126 HD
HETATM   24  H   UNL     1      42.471 -14.496   8.908  1.00  0.00     0.126 HD
ENDBRANCH  11  22
BRANCH   1  25
HETATM   25  C   UNL     1      41.665 -14.419   1.669  1.00  0.00     0.061 C 
BRANCH  25  26
HETATM   26  C   UNL     1      40.328 -14.057   1.021  1.00  0.00     0.002 C 
HETATM   27  C   UNL     1      39.571 -13.030   1.849  1.00  0.00     0.005 C 
ENDBRANCH  25  26
ENDBRANCH   1  25
TORSDOF 5
ENDMDL
MODEL 9
REMARK VINA RESULT:      -6.4     17.147     19.495
REMARK  5 active torsions:
REMARK  status: ('A' for Active; 'I' for Inactive)
REMARK    1  A    between atoms: C_2  and  C_3 
REMARK    2  A    between atoms: C_3  and  C_4 
REMARK    3  A    between atoms: C_10  and  C_11 
REMARK    4  A    between atoms: C_12  and  O_13 
REMARK    5  A    between atoms: C_22  and  N_23 
ROOT
HETATM    1  C   UNL     1      47.509 -29.677   3.774  1.00  0.00     0.066 A 
HETATM    2  N   UNL     1      47.025 -30.330   4.845  1.00  0.00    -0.177 NA
HETATM    3  N   UNL     1      45.824 -30.792   4.442  1.00  0.00    -0.256 N 
HETATM    4  H   UNL     1      45.254 -31.311   5.098  1.00  0.00     0.191 HD
HETATM    5  C   UNL     1      45.533 -30.444   3.164  1.00  0.00     0.175 A 
HETATM    6  C   UNL     1      46.610 -29.746   2.683  1.00  0.00     0.035 A 
HETATM    7  C   UNL     1      46.589 -29.200   1.296  1.00  0.00     0.107 A 
HETATM    8  C   UNL     1      45.205 -29.403   0.681  1.00  0.00     0.067 A 
HETATM    9  C   UNL     1      44.928 -28.680  -0.627  1.00  0.00     0.020 C 
HETATM   10  N   UNL     1      44.699 -28.080  -1.712  1.00  0.00    -0.096 N 
HETATM   11  C   UNL     1      44.211 -30.112   1.283  1.00  0.00     0.139 A 
HETATM   12  O   UNL     1      44.390 -30.715   2.543  1.00  0.00    -0.279 OA
ENDROOT
BRANCH   7  13
HETATM   13  C   UNL     1      47.680 -29.942   0.534  1.00  0.00    -0.010 A 
HETATM   14  C   UNL     1      48.566 -29.248  -0.304  1.00  0.00     0.073 A 
HETATM   15  C   UNL     1      49.557 -29.914  -1.029  1.00  0.00     0.038 A 
HETATM   16  C   UNL     1      49.675 -31.300  -0.933  1.00  0.00     0.022 A 
HETATM   17  C   UNL     1      48.800 -32.010  -0.116  1.00  0.00     0.011 A 
HETATM   18 BR   UNL     1      48.951 -33.890   0.012  1.00  0.00    -0.051 Br
HETATM   19  C   UNL     1      47.809 -31.345   0.608  1.00  0.00     0.030 A 
BRANCH  14  20
HETATM   20  O   UNL     1      48.449 -27.892  -0.407  1.00  0.00    -0.360 OA
HETATM   21  H   UNL     1      48.683 -27.620  -1.311  1.00  0.00     0.217 HD
ENDBRANCH  14  20
ENDBRANCH   7  13
BRANCH  11  22
HETATM   22  N   UNL     1      42.950 -30.312   0.771  1.00  0.00    -0.282 NA
HETATM   23  H   UNL     1      42.673 -31.283   0.647  1.00  0.00     0.126 HD
HETATM   24  H   UNL     1      42.248 -29.755   1.250  1.00  0.00     0.126 HD
ENDBRANCH  11  22
BRANCH   1  25
HETATM   25  C   UNL     1      48.826 -28.978   3.855  1.00  0.00     0.061 C 
BRANCH  25  26
HETATM   26  C   UNL     1      50.003 -29.951   3.933  1.00  0.00     0.002 C 
HETATM   27  C   UNL     1      50.804 -29.955   2.640  1.00  0.00     0.005 C 
ENDBRANCH  25  26
ENDBRANCH   1  25
TORSDOF 5
ENDMDL
MODEL 10
REMARK VINA RESULT:      -6.3     17.486     19.134
REMARK  5 active torsions:
REMARK  status: ('A' for Active; 'I' for Inactive)
REMARK    1  A    between atoms: C_2  and  C_3 
REMARK    2  A    between atoms: C_3  and  C_4 
REMARK    3  A    between atoms: C_10  and  C_11 
REMARK    4  A    between atoms: C_12  and  O_13 
REMARK    5  A    between atoms: C_22  and  N_23 
ROOT
HETATM    1  C   UNL     1      44.152 -30.860   1.670  1.00  0.00     0.066 A 
HETATM    2  N   UNL     1      43.274 -30.087   2.332  1.00  0.00    -0.177 NA
HETATM    3  N   UNL     1      43.995 -29.013   2.714  1.00  0.00    -0.256 N 
HETATM    4  H   UNL     1      43.542 -28.285   3.254  1.00  0.00     0.191 HD
HETATM    5  C   UNL     1      45.293 -29.089   2.326  1.00  0.00     0.175 A 
HETATM    6  C   UNL     1      45.431 -30.257   1.620  1.00  0.00     0.035 A 
HETATM    7  C   UNL     1      46.762 -30.646   1.072  1.00  0.00     0.107 A 
HETATM    8  C   UNL     1      47.831 -29.674   1.570  1.00  0.00     0.067 A 
HETATM    9  C   UNL     1      49.278 -30.067   1.321  1.00  0.00     0.020 C 
HETATM   10  N   UNL     1      50.478 -30.393   1.114  1.00  0.00    -0.096 N 
HETATM   11  C   UNL     1      47.551 -28.550   2.285  1.00  0.00     0.139 A 
HETATM   12  O   UNL     1      46.231 -28.198   2.626  1.00  0.00    -0.279 OA
ENDROOT
BRANCH   7  13
HETATM   13  C   UNL     1      46.616 -30.623  -0.445  1.00  0.00    -0.010 A 
HETATM   14  C   UNL     1      47.088 -31.689  -1.225  1.00  0.00     0.073 A 
HETATM   15  C   UNL     1      46.985 -31.676  -2.617  1.00  0.00     0.038 A 
HETATM   16  C   UNL     1      46.408 -30.582  -3.261  1.00  0.00     0.022 A 
HETATM   17  C   UNL     1      45.942 -29.509  -2.508  1.00  0.00     0.011 A 
HETATM   18 BR   UNL     1      45.166 -28.019  -3.376  1.00  0.00    -0.051 Br
HETATM   19  C   UNL     1      46.045 -29.521  -1.116  1.00  0.00     0.030 A 
BRANCH  14  20
HETATM   20  O   UNL     1      47.661 -32.759  -0.599  1.00  0.00    -0.360 OA
HETATM   21  H   UNL     1      48.172 -32.445   0.166  1.00  0.00     0.217 HD
ENDBRANCH  14  20
ENDBRANCH   7  13
BRANCH  11  22
HETATM   22  N   UNL     1      48.480 -27.653   2.759  1.00  0.00    -0.282 NA
HETATM   23  H   UNL     1      48.881 -27.024   2.068  1.00  0.00     0.126 HD
HETATM   24  H   UNL     1      48.158 -27.173   3.596  1.00  0.00     0.126 HD
ENDBRANCH  11  22
BRANCH   1  25
HETATM   25  C   UNL     1      43.723 -32.183   1.127  1.00  0.00     0.061 C 
BRANCH  25  26
HETATM   26  C   UNL     1      43.306 -32.108  -0.342  1.00  0.00     0.002 C 
HETATM   27  C   UNL     1      43.846 -33.289  -1.132  1.00  0.00     0.005 C 
ENDBRANCH  25  26
ENDBRANCH   1  25
TORSDOF 5
ENDMDL
