MODEL 1
REMARK VINA RESULT:     -10.2      0.000      0.000
REMARK  8 active torsions:
REMARK  status: ('A' for Active; 'I' for Inactive)
REMARK    1  A    between atoms: C_8  and  N_9 
REMARK       I    between atoms: N_9  and  C_10 
REMARK    2  A    between atoms: C_10  and  C_11 
REMARK    3  A    between atoms: C_11  and  N_12 
REMARK    4  A    between atoms: N_16  and  C_17 
REMARK    5  A    between atoms: C_19  and  N_20 
REMARK    6  A    between atoms: N_20  and  C_21 
REMARK    7  A    between atoms: C_28  and  N_29 
REMARK    8  A    between atoms: N_29  and  C_30 
ROOT
HETATM    1  C   UNL     1      42.526 -13.828   5.570  1.00  0.00     0.756 A 
HETATM    2  N   UNL     1      43.335 -14.873   5.668  1.00  0.00     0.131 NA
HETATM    3  C   UNL     1      43.088 -15.896   4.853  1.00  0.00     0.758 A 
HETATM    4  N   UNL     1      42.039 -15.951   4.048  1.00  0.00     0.131 NA
HETATM    5  C   UNL     1      41.273 -14.875   4.010  1.00  0.00     0.758 A 
HETATM    6  N   UNL     1      41.495 -13.789   4.742  1.00  0.00     0.131 NA
ENDROOT
BRANCH   1   7
HETATM    7  N   UNL     1      42.792 -12.702   6.359  1.00  0.00    -0.210 N 
HETATM    8  C   UNL     1      44.204 -12.541   6.737  1.00  0.00     0.169 C 
HETATM    9  C   UNL     1      44.361 -11.420   7.785  1.00  0.00     0.256 C 
HETATM   10  N   UNL     1      43.711 -10.129   7.275  1.00  0.00    -0.060 N 
HETATM   11  H   UNL     1      44.156  -9.923   6.375  1.00  0.00     0.280 HD
HETATM   12  C   UNL     1      42.229 -10.373   6.994  1.00  0.00     0.256 C 
HETATM   13  C   UNL     1      42.059 -11.498   5.952  1.00  0.00     0.169 C 
BRANCH  10  14
HETATM   14  C   UNL     1      43.958  -8.921   8.182  1.00  0.00     0.337 C 
BRANCH  14  15
HETATM   15  C   UNL     1      42.828  -8.560   9.161  1.00  0.00     0.248 C 
HETATM   16  N   UNL     1      42.787  -9.379  10.279  1.00  0.00    -0.325 N 
HETATM   17  H   UNL     1      43.519 -10.071  10.386  1.00  0.00     0.169 HD
HETATM   18  O   UNL     1      42.080  -7.617   8.923  1.00  0.00    -0.271 OA
BRANCH  16  19
HETATM   19  C   UNL     1      41.828  -9.354  11.331  1.00  0.00     0.042 A 
HETATM   20  C   UNL     1      42.195  -8.800  12.587  1.00  0.00    -0.014 A 
HETATM   21  C   UNL     1      43.559  -8.187  12.797  1.00  0.00     0.052 C 
HETATM   22  C   UNL     1      41.265  -8.857  13.648  1.00  0.00     0.042 A 
HETATM   23 CL   UNL     1      41.631  -8.275  15.235  1.00  0.00    -0.084 Cl
HETATM   24  C   UNL     1      39.993  -9.403  13.464  1.00  0.00     0.024 A 
HETATM   25  C   UNL     1      39.632  -9.914  12.225  1.00  0.00     0.004 A 
HETATM   26  C   UNL     1      40.543  -9.893  11.170  1.00  0.00     0.030 A 
ENDBRANCH  16  19
ENDBRANCH  14  15
ENDBRANCH  10  14
ENDBRANCH   1   7
BRANCH   3  27
HETATM   27  N   UNL     1      44.011 -16.940   4.918  1.00  0.00    -0.187 N 
HETATM   28  H   UNL     1      44.946 -16.556   4.911  1.00  0.00     0.184 HD
BRANCH  27  29
HETATM   29  C   UNL     1      43.940 -18.278   4.495  1.00  0.00     0.049 A 
HETATM   30  C   UNL     1      43.998 -19.377   5.359  1.00  0.00     0.030 A 
HETATM   31  C   UNL     1      43.937 -20.687   4.869  1.00  0.00     0.002 A 
HETATM   32  C   UNL     1      43.842 -20.920   3.501  1.00  0.00     0.000 A 
HETATM   33  C   UNL     1      43.817 -19.843   2.622  1.00  0.00     0.002 A 
HETATM   34  C   UNL     1      43.875 -18.537   3.115  1.00  0.00     0.030 A 
ENDBRANCH  27  29
ENDBRANCH   3  27
BRANCH   5  35
HETATM   35  N   UNL     1      40.151 -14.950   3.188  1.00  0.00    -0.187 N 
HETATM   36  H   UNL     1      39.586 -15.749   3.445  1.00  0.00     0.184 HD
BRANCH  35  37
HETATM   37  C   UNL     1      39.922 -14.456   1.896  1.00  0.00     0.049 A 
HETATM   38  C   UNL     1      40.041 -15.239   0.742  1.00  0.00     0.030 A 
HETATM   39  C   UNL     1      39.816 -14.694  -0.527  1.00  0.00     0.002 A 
HETATM   40  C   UNL     1      39.496 -13.346  -0.659  1.00  0.00     0.000 A 
HETATM   41  C   UNL     1      39.401 -12.544   0.474  1.00  0.00     0.002 A 
HETATM   42  C   UNL     1      39.612 -13.096   1.741  1.00  0.00     0.030 A 
ENDBRANCH  35  37
ENDBRANCH   5  35
TORSDOF 8
ENDMDL
MODEL 2
REMARK VINA RESULT:     -10.2      1.359      1.865
REMARK  8 active torsions:
REMARK  status: ('A' for Active; 'I' for Inactive)
REMARK    1  A    between atoms: C_8  and  N_9 
REMARK       I    between atoms: N_9  and  C_10 
REMARK    2  A    between atoms: C_10  and  C_11 
REMARK    3  A    between atoms: C_11  and  N_12 
REMARK    4  A    between atoms: N_16  and  C_17 
REMARK    5  A    between atoms: C_19  and  N_20 
REMARK    6  A    between atoms: N_20  and  C_21 
REMARK    7  A    between atoms: C_28  and  N_29 
REMARK    8  A    between atoms: N_29  and  C_30 
ROOT
HETATM    1  C   UNL     1      42.621 -14.054   3.633  1.00  0.00     0.756 A 
HETATM    2  N   UNL     1      43.242 -15.214   3.471  1.00  0.00     0.131 NA
HETATM    3  C   UNL     1      42.837 -15.969   2.453  1.00  0.00     0.758 A 
HETATM    4  N   UNL     1      41.804 -15.665   1.684  1.00  0.00     0.131 NA
HETATM    5  C   UNL     1      41.230 -14.495   1.910  1.00  0.00     0.758 A 
HETATM    6  N   UNL     1      41.622 -13.657   2.863  1.00  0.00     0.131 NA
ENDROOT
BRANCH   1   7
HETATM    7  N   UNL     1      43.062 -13.197   4.650  1.00  0.00    -0.210 N 
HETATM    8  C   UNL     1      42.445 -11.863   4.634  1.00  0.00     0.169 C 
HETATM    9  C   UNL     1      43.154 -10.925   5.633  1.00  0.00     0.256 C 
HETATM   10  N   UNL     1      43.191 -11.569   7.023  1.00  0.00    -0.060 N 
HETATM   11  H   UNL     1      42.216 -11.776   7.267  1.00  0.00     0.280 HD
HETATM   12  C   UNL     1      43.926 -12.906   6.955  1.00  0.00     0.256 C 
HETATM   13  C   UNL     1      43.230 -13.850   5.952  1.00  0.00     0.169 C 
BRANCH  10  14
HETATM   14  C   UNL     1      43.735 -10.641   8.112  1.00  0.00     0.337 C 
BRANCH  14  15
HETATM   15  C   UNL     1      42.701  -9.774   8.849  1.00  0.00     0.248 C 
HETATM   16  N   UNL     1      42.579 -10.088  10.194  1.00  0.00    -0.325 N 
HETATM   17  H   UNL     1      43.207 -10.785  10.576  1.00  0.00     0.169 HD
HETATM   18  O   UNL     1      42.089  -8.896   8.250  1.00  0.00    -0.271 OA
BRANCH  16  19
HETATM   19  C   UNL     1      41.668  -9.525  11.132  1.00  0.00     0.042 A 
HETATM   20  C   UNL     1      42.172  -8.706  12.178  1.00  0.00    -0.014 A 
HETATM   21  C   UNL     1      43.643  -8.379  12.268  1.00  0.00     0.052 C 
HETATM   22  C   UNL     1      41.270  -8.221  13.150  1.00  0.00     0.042 A 
HETATM   23 CL   UNL     1      41.784  -7.273  14.503  1.00  0.00    -0.084 Cl
HETATM   24  C   UNL     1      39.904  -8.498  13.069  1.00  0.00     0.024 A 
HETATM   25  C   UNL     1      39.416  -9.273  12.027  1.00  0.00     0.004 A 
HETATM   26  C   UNL     1      40.291  -9.785  11.070  1.00  0.00     0.030 A 
ENDBRANCH  16  19
ENDBRANCH  14  15
ENDBRANCH  10  14
ENDBRANCH   1   7
BRANCH   3  27
HETATM   27  N   UNL     1      43.571 -17.139   2.256  1.00  0.00    -0.187 N 
HETATM   28  H   UNL     1      43.699 -17.286   1.264  1.00  0.00     0.184 HD
BRANCH  27  29
HETATM   29  C   UNL     1      43.691 -18.308   3.027  1.00  0.00     0.049 A 
HETATM   30  C   UNL     1      44.009 -18.318   4.389  1.00  0.00     0.030 A 
HETATM   31  C   UNL     1      44.129 -19.520   5.096  1.00  0.00     0.002 A 
HETATM   32  C   UNL     1      43.956 -20.737   4.444  1.00  0.00     0.000 A 
HETATM   33  C   UNL     1      43.673 -20.751   3.082  1.00  0.00     0.002 A 
HETATM   34  C   UNL     1      43.551 -19.548   2.381  1.00  0.00     0.030 A 
ENDBRANCH  27  29
ENDBRANCH   3  27
BRANCH   5  35
HETATM   35  N   UNL     1      40.122 -14.194   1.121  1.00  0.00    -0.187 N 
HETATM   36  H   UNL     1      39.285 -14.582   1.537  1.00  0.00     0.184 HD
BRANCH  35  37
HETATM   37  C   UNL     1      40.018 -13.893  -0.244  1.00  0.00     0.049 A 
HETATM   38  C   UNL     1      39.381 -14.729  -1.168  1.00  0.00     0.030 A 
HETATM   39  C   UNL     1      39.317 -14.389  -2.524  1.00  0.00     0.002 A 
HETATM   40  C   UNL     1      39.919 -13.220  -2.979  1.00  0.00     0.000 A 
HETATM   41  C   UNL     1      40.583 -12.391  -2.080  1.00  0.00     0.002 A 
HETATM   42  C   UNL     1      40.631 -12.726  -0.724  1.00  0.00     0.030 A 
ENDBRANCH  35  37
ENDBRANCH   5  35
TORSDOF 8
ENDMDL
MODEL 3
REMARK VINA RESULT:     -10.0      1.343      5.347
REMARK  8 active torsions:
REMARK  status: ('A' for Active; 'I' for Inactive)
REMARK    1  A    between atoms: C_8  and  N_9 
REMARK       I    between atoms: N_9  and  C_10 
REMARK    2  A    between atoms: C_10  and  C_11 
REMARK    3  A    between atoms: C_11  and  N_12 
REMARK    4  A    between atoms: N_16  and  C_17 
REMARK    5  A    between atoms: C_19  and  N_20 
REMARK    6  A    between atoms: N_20  and  C_21 
REMARK    7  A    between atoms: C_28  and  N_29 
REMARK    8  A    between atoms: N_29  and  C_30 
ROOT
HETATM    1  C   UNL     1      42.489 -13.940   3.476  1.00  0.00     0.756 A 
HETATM    2  N   UNL     1      41.449 -13.558   2.748  1.00  0.00     0.131 NA
HETATM    3  C   UNL     1      41.010 -14.423   1.837  1.00  0.00     0.758 A 
HETATM    4  N   UNL     1      41.614 -15.569   1.567  1.00  0.00     0.131 NA
HETATM    5  C   UNL     1      42.649 -15.879   2.329  1.00  0.00     0.758 A 
HETATM    6  N   UNL     1      43.103 -15.099   3.303  1.00  0.00     0.131 NA
ENDROOT
BRANCH   1   7
HETATM    7  N   UNL     1      42.940 -13.089   4.493  1.00  0.00    -0.210 N 
HETATM    8  C   UNL     1      42.298 -11.767   4.512  1.00  0.00     0.169 C 
HETATM    9  C   UNL     1      43.015 -10.830   5.506  1.00  0.00     0.256 C 
HETATM   10  N   UNL     1      43.098 -11.492   6.886  1.00  0.00    -0.060 N 
HETATM   11  H   UNL     1      42.133 -11.720   7.150  1.00  0.00     0.280 HD
HETATM   12  C   UNL     1      43.855 -12.814   6.780  1.00  0.00     0.256 C 
HETATM   13  C   UNL     1      43.152 -13.757   5.782  1.00  0.00     0.169 C 
BRANCH  10  14
HETATM   14  C   UNL     1      43.651 -10.569   7.974  1.00  0.00     0.337 C 
BRANCH  14  15
HETATM   15  C   UNL     1      42.619  -9.738   8.755  1.00  0.00     0.248 C 
HETATM   16  N   UNL     1      42.560 -10.060  10.102  1.00  0.00    -0.325 N 
HETATM   17  H   UNL     1      43.225 -10.737  10.456  1.00  0.00     0.169 HD
HETATM   18  O   UNL     1      41.956  -8.879   8.183  1.00  0.00    -0.271 OA
BRANCH  16  19
HETATM   19  C   UNL     1      41.669  -9.530  11.077  1.00  0.00     0.042 A 
HETATM   20  C   UNL     1      42.195  -8.746  12.139  1.00  0.00    -0.014 A 
HETATM   21  C   UNL     1      43.667  -8.421  12.210  1.00  0.00     0.052 C 
HETATM   22  C   UNL     1      41.313  -8.296  13.146  1.00  0.00     0.042 A 
HETATM   23 CL   UNL     1      41.855  -7.393  14.519  1.00  0.00    -0.084 Cl
HETATM   24  C   UNL     1      39.946  -8.571  13.084  1.00  0.00     0.024 A 
HETATM   25  C   UNL     1      39.436  -9.311  12.027  1.00  0.00     0.004 A 
HETATM   26  C   UNL     1      40.291  -9.789  11.035  1.00  0.00     0.030 A 
ENDBRANCH  16  19
ENDBRANCH  14  15
ENDBRANCH  10  14
ENDBRANCH   1   7
BRANCH   3  27
HETATM   27  N   UNL     1      39.860 -14.028   1.152  1.00  0.00    -0.187 N 
HETATM   28  H   UNL     1      39.047 -14.363   1.650  1.00  0.00     0.184 HD
BRANCH  27  29
HETATM   29  C   UNL     1      39.628 -13.761  -0.208  1.00  0.00     0.049 A 
HETATM   30  C   UNL     1      39.427 -14.751  -1.176  1.00  0.00     0.030 A 
HETATM   31  C   UNL     1      39.216 -14.418  -2.519  1.00  0.00     0.002 A 
HETATM   32  C   UNL     1      39.227 -13.086  -2.921  1.00  0.00     0.000 A 
HETATM   33  C   UNL     1      39.459 -12.088  -1.981  1.00  0.00     0.002 A 
HETATM   34  C   UNL     1      39.666 -12.425  -0.640  1.00  0.00     0.030 A 
ENDBRANCH  27  29
ENDBRANCH   3  27
BRANCH   5  35
HETATM   35  N   UNL     1      43.303 -17.069   2.019  1.00  0.00    -0.187 N 
HETATM   36  H   UNL     1      43.302 -17.215   1.018  1.00  0.00     0.184 HD
BRANCH  35  37
HETATM   37  C   UNL     1      43.527 -18.222   2.784  1.00  0.00     0.049 A 
HETATM   38  C   UNL     1      43.969 -18.189   4.112  1.00  0.00     0.030 A 
HETATM   39  C   UNL     1      44.191 -19.370   4.828  1.00  0.00     0.002 A 
HETATM   40  C   UNL     1      44.001 -20.605   4.213  1.00  0.00     0.000 A 
HETATM   41  C   UNL     1      43.590 -20.658   2.886  1.00  0.00     0.002 A 
HETATM   42  C   UNL     1      43.354 -19.476   2.178  1.00  0.00     0.030 A 
ENDBRANCH  35  37
ENDBRANCH   5  35
TORSDOF 8
ENDMDL
MODEL 4
REMARK VINA RESULT:     -10.0      4.652     10.233
REMARK  8 active torsions:
REMARK  status: ('A' for Active; 'I' for Inactive)
REMARK    1  A    between atoms: C_8  and  N_9 
REMARK       I    between atoms: N_9  and  C_10 
REMARK    2  A    between atoms: C_10  and  C_11 
REMARK    3  A    between atoms: C_11  and  N_12 
REMARK    4  A    between atoms: N_16  and  C_17 
REMARK    5  A    between atoms: C_19  and  N_20 
REMARK    6  A    between atoms: N_20  and  C_21 
REMARK    7  A    between atoms: C_28  and  N_29 
REMARK    8  A    between atoms: N_29  and  C_30 
ROOT
HETATM    1  C   UNL     1      42.234 -14.497   3.777  1.00  0.00     0.756 A 
HETATM    2  N   UNL     1      42.210 -13.640   4.788  1.00  0.00     0.131 NA
HETATM    3  C   UNL     1      42.950 -13.950   5.850  1.00  0.00     0.758 A 
HETATM    4  N   UNL     1      43.606 -15.092   5.973  1.00  0.00     0.131 NA
HETATM    5  C   UNL     1      43.577 -15.900   4.927  1.00  0.00     0.758 A 
HETATM    6  N   UNL     1      42.918 -15.628   3.807  1.00  0.00     0.131 NA
ENDROOT
BRANCH   1   7
HETATM    7  N   UNL     1      41.525 -14.175   2.613  1.00  0.00    -0.210 N 
HETATM    8  C   UNL     1      41.832 -12.849   2.058  1.00  0.00     0.169 C 
HETATM    9  C   UNL     1      40.847 -12.493   0.925  1.00  0.00     0.256 C 
HETATM   10  N   UNL     1      40.827 -13.608  -0.125  1.00  0.00    -0.060 N 
HETATM   11  H   UNL     1      41.797 -13.721  -0.438  1.00  0.00     0.280 HD
HETATM   12  C   UNL     1      40.414 -14.926   0.528  1.00  0.00     0.256 C 
HETATM   13  C   UNL     1      41.388 -15.289   1.668  1.00  0.00     0.169 C 
BRANCH  10  14
HETATM   14  C   UNL     1      39.996 -13.267  -1.364  1.00  0.00     0.337 C 
BRANCH  14  15
HETATM   15  C   UNL     1      40.641 -12.303  -2.374  1.00  0.00     0.248 C 
HETATM   16  N   UNL     1      40.347 -10.971  -2.128  1.00  0.00    -0.325 N 
HETATM   17  H   UNL     1      39.814 -10.750  -1.296  1.00  0.00     0.169 HD
HETATM   18  O   UNL     1      41.347 -12.737  -3.279  1.00  0.00    -0.271 OA
BRANCH  16  19
HETATM   19  C   UNL     1      40.727  -9.845  -2.912  1.00  0.00     0.042 A 
HETATM   20  C   UNL     1      41.674  -8.925  -2.385  1.00  0.00    -0.014 A 
HETATM   21  C   UNL     1      42.321  -9.160  -1.042  1.00  0.00     0.052 C 
HETATM   22  C   UNL     1      41.980  -7.768  -3.135  1.00  0.00     0.042 A 
HETATM   23 CL   UNL     1      43.066  -6.551  -2.560  1.00  0.00    -0.084 Cl
HETATM   24  C   UNL     1      41.405  -7.547  -4.388  1.00  0.00     0.024 A 
HETATM   25  C   UNL     1      40.505  -8.466  -4.908  1.00  0.00     0.004 A 
HETATM   26  C   UNL     1      40.167  -9.602  -4.174  1.00  0.00     0.030 A 
ENDBRANCH  16  19
ENDBRANCH  14  15
ENDBRANCH  10  14
ENDBRANCH   1   7
BRANCH   3  27
HETATM   27  N   UNL     1      42.974 -12.984   6.856  1.00  0.00    -0.187 N 
HETATM   28  H   UNL     1      42.031 -12.666   7.032  1.00  0.00     0.184 HD
BRANCH  27  29
HETATM   29  C   UNL     1      43.967 -12.074   7.254  1.00  0.00     0.049 A 
HETATM   30  C   UNL     1      43.854 -11.226   8.361  1.00  0.00     0.030 A 
HETATM   31  C   UNL     1      44.876 -10.329   8.694  1.00  0.00     0.002 A 
HETATM   32  C   UNL     1      46.021 -10.249   7.908  1.00  0.00     0.000 A 
HETATM   33  C   UNL     1      46.139 -11.058   6.783  1.00  0.00     0.002 A 
HETATM   34  C   UNL     1      45.118 -11.954   6.457  1.00  0.00     0.030 A 
ENDBRANCH  27  29
ENDBRANCH   3  27
BRANCH   5  35
HETATM   35  N   UNL     1      44.240 -17.117   5.075  1.00  0.00    -0.187 N 
HETATM   36  H   UNL     1      45.157 -16.966   5.476  1.00  0.00     0.184 HD
BRANCH  35  37
HETATM   37  C   UNL     1      44.081 -18.338   4.406  1.00  0.00     0.049 A 
HETATM   38  C   UNL     1      43.855 -18.435   3.028  1.00  0.00     0.030 A 
HETATM   39  C   UNL     1      43.688 -19.679   2.410  1.00  0.00     0.002 A 
HETATM   40  C   UNL     1      43.716 -20.844   3.169  1.00  0.00     0.000 A 
HETATM   41  C   UNL     1      43.910 -20.767   4.545  1.00  0.00     0.002 A 
HETATM   42  C   UNL     1      44.092 -19.524   5.156  1.00  0.00     0.030 A 
ENDBRANCH  35  37
ENDBRANCH   5  35
TORSDOF 8
ENDMDL
MODEL 5
REMARK VINA RESULT:      -9.9      1.024      4.900
REMARK  8 active torsions:
REMARK  status: ('A' for Active; 'I' for Inactive)
REMARK    1  A    between atoms: C_8  and  N_9 
REMARK       I    between atoms: N_9  and  C_10 
REMARK    2  A    between atoms: C_10  and  C_11 
REMARK    3  A    between atoms: C_11  and  N_12 
REMARK    4  A    between atoms: N_16  and  C_17 
REMARK    5  A    between atoms: C_19  and  N_20 
REMARK    6  A    between atoms: N_20  and  C_21 
REMARK    7  A    between atoms: C_28  and  N_29 
REMARK    8  A    between atoms: N_29  and  C_30 
ROOT
HETATM    1  C   UNL     1      42.968 -13.388   5.459  1.00  0.00     0.756 A 
HETATM    2  N   UNL     1      41.894 -13.316   4.686  1.00  0.00     0.131 NA
HETATM    3  C   UNL     1      41.414 -14.469   4.225  1.00  0.00     0.758 A 
HETATM    4  N   UNL     1      42.006 -15.636   4.419  1.00  0.00     0.131 NA
HETATM    5  C   UNL     1      43.077 -15.628   5.195  1.00  0.00     0.758 A 
HETATM    6  N   UNL     1      43.575 -14.527   5.746  1.00  0.00     0.131 NA
ENDROOT
BRANCH   1   7
HETATM    7  N   UNL     1      43.464 -12.205   6.022  1.00  0.00    -0.210 N 
HETATM    8  C   UNL     1      42.441 -11.344   6.634  1.00  0.00     0.169 C 
HETATM    9  C   UNL     1      43.042  -9.975   7.014  1.00  0.00     0.256 C 
HETATM   10  N   UNL     1      44.284 -10.171   7.890  1.00  0.00    -0.060 N 
HETATM   11  H   UNL     1      43.979 -10.730   8.695  1.00  0.00     0.280 HD
HETATM   12  C   UNL     1      45.321 -11.001   7.138  1.00  0.00     0.256 C 
HETATM   13  C   UNL     1      44.730 -12.371   6.745  1.00  0.00     0.169 C 
BRANCH  10  14
HETATM   14  C   UNL     1      44.852  -8.863   8.446  1.00  0.00     0.337 C 
BRANCH  14  15
HETATM   15  C   UNL     1      43.993  -8.136   9.495  1.00  0.00     0.248 C 
HETATM   16  N   UNL     1      43.789  -8.879  10.647  1.00  0.00    -0.325 N 
HETATM   17  H   UNL     1      44.263  -9.770  10.727  1.00  0.00     0.169 HD
HETATM   18  O   UNL     1      43.574  -7.005   9.275  1.00  0.00    -0.271 OA
BRANCH  16  19
HETATM   19  C   UNL     1      42.988  -8.525  11.770  1.00  0.00     0.042 A 
HETATM   20  C   UNL     1      41.581  -8.716  11.703  1.00  0.00    -0.014 A 
HETATM   21  C   UNL     1      40.939  -9.341  10.488  1.00  0.00     0.052 C 
HETATM   22  C   UNL     1      40.789  -8.283  12.789  1.00  0.00     0.042 A 
HETATM   23 CL   UNL     1      39.063  -8.404  12.784  1.00  0.00    -0.084 Cl
HETATM   24  C   UNL     1      41.369  -7.721  13.927  1.00  0.00     0.024 A 
HETATM   25  C   UNL     1      42.747  -7.567  13.997  1.00  0.00     0.004 A 
HETATM   26  C   UNL     1      43.547  -7.962  12.927  1.00  0.00     0.030 A 
ENDBRANCH  16  19
ENDBRANCH  14  15
ENDBRANCH  10  14
ENDBRANCH   1   7
BRANCH   3  27
HETATM   27  N   UNL     1      40.232 -14.366   3.490  1.00  0.00    -0.187 N 
HETATM   28  H   UNL     1      39.532 -14.966   3.904  1.00  0.00     0.184 HD
BRANCH  27  29
HETATM   29  C   UNL     1      39.995 -14.060   2.139  1.00  0.00     0.049 A 
HETATM   30  C   UNL     1      39.561 -12.810   1.685  1.00  0.00     0.030 A 
HETATM   31  C   UNL     1      39.328 -12.576   0.325  1.00  0.00     0.002 A 
HETATM   32  C   UNL     1      39.504 -13.597  -0.603  1.00  0.00     0.000 A 
HETATM   33  C   UNL     1      39.902 -14.857  -0.169  1.00  0.00     0.002 A 
HETATM   34  C   UNL     1      40.136 -15.086   1.190  1.00  0.00     0.030 A 
ENDBRANCH  27  29
ENDBRANCH   3  27
BRANCH   5  35
HETATM   35  N   UNL     1      43.718 -16.852   5.367  1.00  0.00    -0.187 N 
HETATM   36  H   UNL     1      44.522 -16.741   5.972  1.00  0.00     0.184 HD
BRANCH  35  37
HETATM   37  C   UNL     1      43.737 -18.002   4.566  1.00  0.00     0.049 A 
HETATM   38  C   UNL     1      43.451 -17.987   3.195  1.00  0.00     0.030 A 
HETATM   39  C   UNL     1      43.470 -19.166   2.442  1.00  0.00     0.002 A 
HETATM   40  C   UNL     1      43.745 -20.383   3.058  1.00  0.00     0.000 A 
HETATM   41  C   UNL     1      44.002 -20.422   4.425  1.00  0.00     0.002 A 
HETATM   42  C   UNL     1      43.998 -19.241   5.171  1.00  0.00     0.030 A 
ENDBRANCH  35  37
ENDBRANCH   5  35
TORSDOF 8
ENDMDL
MODEL 6
REMARK VINA RESULT:      -9.9      1.855      5.619
REMARK  8 active torsions:
REMARK  status: ('A' for Active; 'I' for Inactive)
REMARK    1  A    between atoms: C_8  and  N_9 
REMARK       I    between atoms: N_9  and  C_10 
REMARK    2  A    between atoms: C_10  and  C_11 
REMARK    3  A    between atoms: C_11  and  N_12 
REMARK    4  A    between atoms: N_16  and  C_17 
REMARK    5  A    between atoms: C_19  and  N_20 
REMARK    6  A    between atoms: N_20  and  C_21 
REMARK    7  A    between atoms: C_28  and  N_29 
REMARK    8  A    between atoms: N_29  and  C_30 
ROOT
HETATM    1  C   UNL     1      41.031 -14.234   3.485  1.00  0.00     0.756 A 
HETATM    2  N   UNL     1      40.286 -14.266   2.389  1.00  0.00     0.131 NA
HETATM    3  C   UNL     1      40.599 -15.189   1.483  1.00  0.00     0.758 A 
HETATM    4  N   UNL     1      41.653 -15.983   1.584  1.00  0.00     0.131 NA
HETATM    5  C   UNL     1      42.353 -15.888   2.702  1.00  0.00     0.758 A 
HETATM    6  N   UNL     1      42.061 -15.040   3.681  1.00  0.00     0.131 NA
ENDROOT
BRANCH   1   7
HETATM    7  N   UNL     1      40.692 -13.325   4.495  1.00  0.00    -0.210 N 
HETATM    8  C   UNL     1      41.836 -12.612   5.083  1.00  0.00     0.169 C 
HETATM    9  C   UNL     1      41.396 -11.815   6.329  1.00  0.00     0.256 C 
HETATM   10  N   UNL     1      40.217 -10.902   5.980  1.00  0.00    -0.060 N 
HETATM   11  H   UNL     1      40.533 -10.314   5.201  1.00  0.00     0.280 HD
HETATM   12  C   UNL     1      39.050 -11.740   5.462  1.00  0.00     0.256 C 
HETATM   13  C   UNL     1      39.479 -12.547   4.219  1.00  0.00     0.169 C 
BRANCH  10  14
HETATM   14  C   UNL     1      39.818  -9.957   7.117  1.00  0.00     0.337 C 
BRANCH  14  15
HETATM   15  C   UNL     1      40.969  -9.363   7.946  1.00  0.00     0.248 C 
HETATM   16  N   UNL     1      40.898  -9.684   9.293  1.00  0.00    -0.325 N 
HETATM   17  H   UNL     1      40.165 -10.316   9.591  1.00  0.00     0.169 HD
HETATM   18  O   UNL     1      41.840  -8.691   7.404  1.00  0.00    -0.271 OA
BRANCH  16  19
HETATM   19  C   UNL     1      41.762  -9.237  10.332  1.00  0.00     0.042 A 
HETATM   20  C   UNL     1      41.333  -8.181  11.181  1.00  0.00    -0.014 A 
HETATM   21  C   UNL     1      39.958  -7.575  11.033  1.00  0.00     0.052 C 
HETATM   22  C   UNL     1      42.231  -7.689  12.154  1.00  0.00     0.042 A 
HETATM   23 CL   UNL     1      41.839  -6.364  13.193  1.00  0.00    -0.084 Cl
HETATM   24  C   UNL     1      43.498  -8.253  12.316  1.00  0.00     0.024 A 
HETATM   25  C   UNL     1      43.897  -9.304  11.503  1.00  0.00     0.004 A 
HETATM   26  C   UNL     1      43.038  -9.789  10.518  1.00  0.00     0.030 A 
ENDBRANCH  16  19
ENDBRANCH  14  15
ENDBRANCH  10  14
ENDBRANCH   1   7
BRANCH   3  27
HETATM   27  N   UNL     1      39.741 -15.256   0.385  1.00  0.00    -0.187 N 
HETATM   28  H   UNL     1      39.412 -16.205   0.279  1.00  0.00     0.184 HD
BRANCH  27  29
HETATM   29  C   UNL     1      39.668 -14.491  -0.792  1.00  0.00     0.049 A 
HETATM   30  C   UNL     1      38.976 -14.887  -1.942  1.00  0.00     0.030 A 
HETATM   31  C   UNL     1      38.957 -14.084  -3.087  1.00  0.00     0.002 A 
HETATM   32  C   UNL     1      39.652 -12.879  -3.111  1.00  0.00     0.000 A 
HETATM   33  C   UNL     1      40.375 -12.482  -1.991  1.00  0.00     0.002 A 
HETATM   34  C   UNL     1      40.389 -13.286  -0.847  1.00  0.00     0.030 A 
ENDBRANCH  27  29
ENDBRANCH   3  27
BRANCH   5  35
HETATM   35  N   UNL     1      43.482 -16.700   2.788  1.00  0.00    -0.187 N 
HETATM   36  H   UNL     1      44.239 -16.300   2.249  1.00  0.00     0.184 HD
BRANCH  35  37
HETATM   37  C   UNL     1      43.612 -18.068   3.065  1.00  0.00     0.049 A 
HETATM   38  C   UNL     1      43.316 -19.072   2.135  1.00  0.00     0.030 A 
HETATM   39  C   UNL     1      43.449 -20.424   2.467  1.00  0.00     0.002 A 
HETATM   40  C   UNL     1      43.853 -20.792   3.747  1.00  0.00     0.000 A 
HETATM   41  C   UNL     1      44.124 -19.810   4.694  1.00  0.00     0.002 A 
HETATM   42  C   UNL     1      44.005 -18.459   4.354  1.00  0.00     0.030 A 
ENDBRANCH  35  37
ENDBRANCH   5  35
TORSDOF 8
ENDMDL
MODEL 7
REMARK VINA RESULT:      -9.9      4.858     10.077
REMARK  8 active torsions:
REMARK  status: ('A' for Active; 'I' for Inactive)
REMARK    1  A    between atoms: C_8  and  N_9 
REMARK       I    between atoms: N_9  and  C_10 
REMARK    2  A    between atoms: C_10  and  C_11 
REMARK    3  A    between atoms: C_11  and  N_12 
REMARK    4  A    between atoms: N_16  and  C_17 
REMARK    5  A    between atoms: C_19  and  N_20 
REMARK    6  A    between atoms: N_20  and  C_21 
REMARK    7  A    between atoms: C_28  and  N_29 
REMARK    8  A    between atoms: N_29  and  C_30 
ROOT
HETATM    1  C   UNL     1      42.161 -14.757   3.977  1.00  0.00     0.756 A 
HETATM    2  N   UNL     1      42.901 -15.851   4.088  1.00  0.00     0.131 NA
HETATM    3  C   UNL     1      43.597 -15.988   5.214  1.00  0.00     0.758 A 
HETATM    4  N   UNL     1      43.656 -15.058   6.153  1.00  0.00     0.131 NA
HETATM    5  C   UNL     1      42.896 -13.991   5.970  1.00  0.00     0.758 A 
HETATM    6  N   UNL     1      42.123 -13.815   4.904  1.00  0.00     0.131 NA
ENDROOT
BRANCH   1   7
HETATM    7  N   UNL     1      41.359 -14.607   2.838  1.00  0.00    -0.210 N 
HETATM    8  C   UNL     1      41.774 -13.519   1.940  1.00  0.00     0.169 C 
HETATM    9  C   UNL     1      40.709 -13.282   0.848  1.00  0.00     0.256 C 
HETATM   10  N   UNL     1      40.401 -14.595   0.121  1.00  0.00    -0.060 N 
HETATM   11  H   UNL     1      41.298 -14.938  -0.240  1.00  0.00     0.280 HD
HETATM   12  C   UNL     1      39.897 -15.634   1.120  1.00  0.00     0.256 C 
HETATM   13  C   UNL     1      40.950 -15.874   2.222  1.00  0.00     0.169 C 
BRANCH  10  14
HETATM   14  C   UNL     1      39.473 -14.423  -1.084  1.00  0.00     0.337 C 
BRANCH  14  15
HETATM   15  C   UNL     1      39.920 -13.410  -2.151  1.00  0.00     0.248 C 
HETATM   16  N   UNL     1      39.381 -12.146  -1.968  1.00  0.00    -0.325 N 
HETATM   17  H   UNL     1      38.820 -11.985  -1.140  1.00  0.00     0.169 HD
HETATM   18  O   UNL     1      40.691 -13.749  -3.043  1.00  0.00    -0.271 OA
BRANCH  16  19
HETATM   19  C   UNL     1      39.539 -11.010  -2.813  1.00  0.00     0.042 A 
HETATM   20  C   UNL     1      38.382 -10.378  -3.343  1.00  0.00    -0.014 A 
HETATM   21  C   UNL     1      36.998 -10.854  -2.973  1.00  0.00     0.052 C 
HETATM   22  C   UNL     1      38.552  -9.306  -4.246  1.00  0.00     0.042 A 
HETATM   23 CL   UNL     1      37.217  -8.508  -5.003  1.00  0.00    -0.084 Cl
HETATM   24  C   UNL     1      39.825  -8.841  -4.582  1.00  0.00     0.024 A 
HETATM   25  C   UNL     1      40.949  -9.445  -4.036  1.00  0.00     0.004 A 
HETATM   26  C   UNL     1      40.806 -10.522  -3.163  1.00  0.00     0.030 A 
ENDBRANCH  16  19
ENDBRANCH  14  15
ENDBRANCH  10  14
ENDBRANCH   1   7
BRANCH   3  27
HETATM   27  N   UNL     1      44.293 -17.191   5.337  1.00  0.00    -0.187 N 
HETATM   28  H   UNL     1      45.254 -16.994   5.579  1.00  0.00     0.184 HD
BRANCH  27  29
HETATM   29  C   UNL     1      44.101 -18.447   4.737  1.00  0.00     0.049 A 
HETATM   30  C   UNL     1      44.003 -19.648   5.448  1.00  0.00     0.030 A 
HETATM   31  C   UNL     1      43.828 -20.869   4.787  1.00  0.00     0.002 A 
HETATM   32  C   UNL     1      43.772 -20.912   3.398  1.00  0.00     0.000 A 
HETATM   33  C   UNL     1      43.901 -19.734   2.669  1.00  0.00     0.002 A 
HETATM   34  C   UNL     1      44.073 -18.517   3.334  1.00  0.00     0.030 A 
ENDBRANCH  27  29
ENDBRANCH   3  27
BRANCH   5  35
HETATM   35  N   UNL     1      42.988 -12.999   6.943  1.00  0.00    -0.187 N 
HETATM   36  H   UNL     1      42.063 -12.694   7.216  1.00  0.00     0.184 HD
BRANCH  35  37
HETATM   37  C   UNL     1      44.020 -12.099   7.245  1.00  0.00     0.049 A 
HETATM   38  C   UNL     1      44.010 -11.270   8.373  1.00  0.00     0.030 A 
HETATM   39  C   UNL     1      45.059 -10.378   8.622  1.00  0.00     0.002 A 
HETATM   40  C   UNL     1      46.120 -10.282   7.726  1.00  0.00     0.000 A 
HETATM   41  C   UNL     1      46.133 -11.075   6.584  1.00  0.00     0.002 A 
HETATM   42  C   UNL     1      45.091 -11.977   6.347  1.00  0.00     0.030 A 
ENDBRANCH  35  37
ENDBRANCH   5  35
TORSDOF 8
ENDMDL
MODEL 8
REMARK VINA RESULT:      -9.8      1.713      2.617
REMARK  8 active torsions:
REMARK  status: ('A' for Active; 'I' for Inactive)
REMARK    1  A    between atoms: C_8  and  N_9 
REMARK       I    between atoms: N_9  and  C_10 
REMARK    2  A    between atoms: C_10  and  C_11 
REMARK    3  A    between atoms: C_11  and  N_12 
REMARK    4  A    between atoms: N_16  and  C_17 
REMARK    5  A    between atoms: C_19  and  N_20 
REMARK    6  A    between atoms: N_20  and  C_21 
REMARK    7  A    between atoms: C_28  and  N_29 
REMARK    8  A    between atoms: N_29  and  C_30 
ROOT
HETATM    1  C   UNL     1      42.010 -13.030   4.189  1.00  0.00     0.756 A 
HETATM    2  N   UNL     1      41.922 -14.346   4.324  1.00  0.00     0.131 NA
HETATM    3  C   UNL     1      41.321 -15.007   3.337  1.00  0.00     0.758 A 
HETATM    4  N   UNL     1      40.738 -14.411   2.309  1.00  0.00     0.131 NA
HETATM    5  C   UNL     1      40.861 -13.096   2.246  1.00  0.00     0.758 A 
HETATM    6  N   UNL     1      41.505 -12.375   3.157  1.00  0.00     0.131 NA
ENDROOT
BRANCH   1   7
HETATM    7  N   UNL     1      42.696 -12.304   5.171  1.00  0.00    -0.210 N 
HETATM    8  C   UNL     1      41.895 -11.262   5.830  1.00  0.00     0.169 C 
HETATM    9  C   UNL     1      42.788 -10.372   6.719  1.00  0.00     0.256 C 
HETATM   10  N   UNL     1      43.590 -11.239   7.695  1.00  0.00    -0.060 N 
HETATM   11  H   UNL     1      42.900 -11.791   8.217  1.00  0.00     0.280 HD
HETATM   12  C   UNL     1      44.454 -12.229   6.917  1.00  0.00     0.256 C 
HETATM   13  C   UNL     1      43.572 -13.121   6.018  1.00  0.00     0.169 C 
BRANCH  10  14
HETATM   14  C   UNL     1      44.384 -10.429   8.722  1.00  0.00     0.337 C 
BRANCH  14  15
HETATM   15  C   UNL     1      43.765 -10.313  10.126  1.00  0.00     0.248 C 
HETATM   16  N   UNL     1      43.175  -9.081  10.365  1.00  0.00    -0.325 N 
HETATM   17  H   UNL     1      43.138  -8.417   9.602  1.00  0.00     0.169 HD
HETATM   18  O   UNL     1      43.813 -11.260  10.904  1.00  0.00    -0.271 OA
BRANCH  16  19
HETATM   19  C   UNL     1      42.581  -8.632  11.578  1.00  0.00     0.042 A 
HETATM   20  C   UNL     1      41.165  -8.548  11.664  1.00  0.00    -0.014 A 
HETATM   21  C   UNL     1      40.289  -8.986  10.515  1.00  0.00     0.052 C 
HETATM   22  C   UNL     1      40.590  -8.021  12.842  1.00  0.00     0.042 A 
HETATM   23 CL   UNL     1      38.883  -7.812  13.028  1.00  0.00    -0.084 Cl
HETATM   24  C   UNL     1      41.385  -7.631  13.921  1.00  0.00     0.024 A 
HETATM   25  C   UNL     1      42.766  -7.745  13.840  1.00  0.00     0.004 A 
HETATM   26  C   UNL     1      43.357  -8.237  12.677  1.00  0.00     0.030 A 
ENDBRANCH  16  19
ENDBRANCH  14  15
ENDBRANCH  10  14
ENDBRANCH   1   7
BRANCH   3  27
HETATM   27  N   UNL     1      41.326 -16.396   3.466  1.00  0.00    -0.187 N 
HETATM   28  H   UNL     1      40.455 -16.692   3.884  1.00  0.00     0.184 HD
BRANCH  27  29
HETATM   29  C   UNL     1      42.376 -17.316   3.621  1.00  0.00     0.049 A 
HETATM   30  C   UNL     1      43.116 -17.469   4.799  1.00  0.00     0.030 A 
HETATM   31  C   UNL     1      44.162 -18.395   4.882  1.00  0.00     0.002 A 
HETATM   32  C   UNL     1      44.502 -19.169   3.778  1.00  0.00     0.000 A 
HETATM   33  C   UNL     1      43.802 -19.009   2.586  1.00  0.00     0.002 A 
HETATM   34  C   UNL     1      42.757 -18.085   2.509  1.00  0.00     0.030 A 
ENDBRANCH  27  29
ENDBRANCH   3  27
BRANCH   5  35
HETATM   35  N   UNL     1      40.216 -12.471   1.182  1.00  0.00    -0.187 N 
HETATM   36  H   UNL     1      39.292 -12.171   1.465  1.00  0.00     0.184 HD
BRANCH  35  37
HETATM   37  C   UNL     1      40.403 -12.585  -0.203  1.00  0.00     0.049 A 
HETATM   38  C   UNL     1      41.082 -11.629  -0.967  1.00  0.00     0.030 A 
HETATM   39  C   UNL     1      41.228 -11.783  -2.350  1.00  0.00     0.002 A 
HETATM   40  C   UNL     1      40.669 -12.883  -2.992  1.00  0.00     0.000 A 
HETATM   41  C   UNL     1      39.965 -13.829  -2.254  1.00  0.00     0.002 A 
HETATM   42  C   UNL     1      39.835 -13.680  -0.871  1.00  0.00     0.030 A 
ENDBRANCH  35  37
ENDBRANCH   5  35
TORSDOF 8
ENDMDL
MODEL 9
REMARK VINA RESULT:      -9.7      1.937      2.690
REMARK  8 active torsions:
REMARK  status: ('A' for Active; 'I' for Inactive)
REMARK    1  A    between atoms: C_8  and  N_9 
REMARK       I    between atoms: N_9  and  C_10 
REMARK    2  A    between atoms: C_10  and  C_11 
REMARK    3  A    between atoms: C_11  and  N_12 
REMARK    4  A    between atoms: N_16  and  C_17 
REMARK    5  A    between atoms: C_19  and  N_20 
REMARK    6  A    between atoms: N_20  and  C_21 
REMARK    7  A    between atoms: C_28  and  N_29 
REMARK    8  A    between atoms: N_29  and  C_30 
ROOT
HETATM    1  C   UNL     1      40.971 -13.775   3.546  1.00  0.00     0.756 A 
HETATM    2  N   UNL     1      41.938 -14.618   3.877  1.00  0.00     0.131 NA
HETATM    3  C   UNL     1      42.205 -15.590   3.008  1.00  0.00     0.758 A 
HETATM    4  N   UNL     1      41.498 -15.801   1.910  1.00  0.00     0.131 NA
HETATM    5  C   UNL     1      40.544 -14.923   1.649  1.00  0.00     0.758 A 
HETATM    6  N   UNL     1      40.264 -13.889   2.433  1.00  0.00     0.131 NA
ENDROOT
BRANCH   1   7
HETATM    7  N   UNL     1      40.705 -12.696   4.399  1.00  0.00    -0.210 N 
HETATM    8  C   UNL     1      40.057 -13.067   5.666  1.00  0.00     0.169 C 
HETATM    9  C   UNL     1      39.597 -11.807   6.429  1.00  0.00     0.256 C 
HETATM   10  N   UNL     1      40.772 -10.838   6.600  1.00  0.00    -0.060 N 
HETATM   11  H   UNL     1      41.510 -11.367   7.077  1.00  0.00     0.280 HD
HETATM   12  C   UNL     1      41.321 -10.444   5.230  1.00  0.00     0.256 C 
HETATM   13  C   UNL     1      41.777 -11.697   4.454  1.00  0.00     0.169 C 
BRANCH  10  14
HETATM   14  C   UNL     1      40.446  -9.632   7.484  1.00  0.00     0.337 C 
BRANCH  14  15
HETATM   15  C   UNL     1      41.476  -9.283   8.571  1.00  0.00     0.248 C 
HETATM   16  N   UNL     1      40.904  -9.024   9.807  1.00  0.00    -0.325 N 
HETATM   17  H   UNL     1      39.904  -9.151   9.902  1.00  0.00     0.169 HD
HETATM   18  O   UNL     1      42.674  -9.268   8.307  1.00  0.00    -0.271 OA
BRANCH  16  19
HETATM   19  C   UNL     1      41.570  -8.607  10.995  1.00  0.00     0.042 A 
HETATM   20  C   UNL     1      41.580  -7.227  11.333  1.00  0.00    -0.014 A 
HETATM   21  C   UNL     1      40.845  -6.214  10.487  1.00  0.00     0.052 C 
HETATM   22  C   UNL     1      42.314  -6.814  12.467  1.00  0.00     0.042 A 
HETATM   23 CL   UNL     1      42.449  -5.153  12.931  1.00  0.00    -0.084 Cl
HETATM   24  C   UNL     1      42.981  -7.741  13.270  1.00  0.00     0.024 A 
HETATM   25  C   UNL     1      42.941  -9.090  12.950  1.00  0.00     0.004 A 
HETATM   26  C   UNL     1      42.245  -9.518  11.820  1.00  0.00     0.030 A 
ENDBRANCH  16  19
ENDBRANCH  14  15
ENDBRANCH  10  14
ENDBRANCH   1   7
BRANCH   3  27
HETATM   27  N   UNL     1      43.288 -16.404   3.344  1.00  0.00    -0.187 N 
HETATM   28  H   UNL     1      44.143 -15.877   3.235  1.00  0.00     0.184 HD
BRANCH  27  29
HETATM   29  C   UNL     1      43.462 -17.797   3.287  1.00  0.00     0.049 A 
HETATM   30  C   UNL     1      43.118 -18.584   2.183  1.00  0.00     0.030 A 
HETATM   31  C   UNL     1      43.303 -19.971   2.197  1.00  0.00     0.002 A 
HETATM   32  C   UNL     1      43.815 -20.598   3.329  1.00  0.00     0.000 A 
HETATM   33  C   UNL     1      44.132 -19.839   4.450  1.00  0.00     0.002 A 
HETATM   34  C   UNL     1      43.948 -18.454   4.430  1.00  0.00     0.030 A 
ENDBRANCH  27  29
ENDBRANCH   3  27
BRANCH   5  35
HETATM   35  N   UNL     1      39.779 -15.169   0.511  1.00  0.00    -0.187 N 
HETATM   36  H   UNL     1      39.542 -16.152   0.458  1.00  0.00     0.184 HD
BRANCH  35  37
HETATM   37  C   UNL     1      39.682 -14.472  -0.701  1.00  0.00     0.049 A 
HETATM   38  C   UNL     1      39.055 -14.994  -1.839  1.00  0.00     0.030 A 
HETATM   39  C   UNL     1      38.997 -14.263  -3.030  1.00  0.00     0.002 A 
HETATM   40  C   UNL     1      39.596 -13.008  -3.108  1.00  0.00     0.000 A 
HETATM   41  C   UNL     1      40.250 -12.485  -1.997  1.00  0.00     0.002 A 
HETATM   42  C   UNL     1      40.291 -13.212  -0.804  1.00  0.00     0.030 A 
ENDBRANCH  35  37
ENDBRANCH   5  35
TORSDOF 8
ENDMDL
MODEL 10
REMARK VINA RESULT:      -9.6      1.959      2.825
REMARK  8 active torsions:
REMARK  status: ('A' for Active; 'I' for Inactive)
REMARK    1  A    between atoms: C_8  and  N_9 
REMARK       I    between atoms: N_9  and  C_10 
REMARK    2  A    between atoms: C_10  and  C_11 
REMARK    3  A    between atoms: C_11  and  N_12 
REMARK    4  A    between atoms: N_16  and  C_17 
REMARK    5  A    between atoms: C_19  and  N_20 
REMARK    6  A    between atoms: N_20  and  C_21 
REMARK    7  A    between atoms: C_28  and  N_29 
REMARK    8  A    between atoms: N_29  and  C_30 
ROOT
HETATM    1  C   UNL     1      41.771 -12.678   2.936  1.00  0.00     0.756 A 
HETATM    2  N   UNL     1      41.657 -13.923   3.376  1.00  0.00     0.131 NA
HETATM    3  C   UNL     1      41.423 -14.859   2.459  1.00  0.00     0.758 A 
HETATM    4  N   UNL     1      41.205 -14.592   1.182  1.00  0.00     0.131 NA
HETATM    5  C   UNL     1      41.328 -13.326   0.819  1.00  0.00     0.758 A 
HETATM    6  N   UNL     1      41.627 -12.346   1.664  1.00  0.00     0.131 NA
ENDROOT
BRANCH   1   7
HETATM    7  N   UNL     1      42.086 -11.672   3.858  1.00  0.00    -0.210 N 
HETATM    8  C   UNL     1      41.092 -10.592   3.947  1.00  0.00     0.169 C 
HETATM    9  C   UNL     1      41.630  -9.428   4.805  1.00  0.00     0.256 C 
HETATM   10  N   UNL     1      42.093  -9.950   6.169  1.00  0.00    -0.060 N 
HETATM   11  H   UNL     1      41.284 -10.430   6.579  1.00  0.00     0.280 HD
HETATM   12  C   UNL     1      43.184 -11.002   5.977  1.00  0.00     0.256 C 
HETATM   13  C   UNL     1      42.660 -12.168   5.114  1.00  0.00     0.169 C 
BRANCH  10  14
HETATM   14  C   UNL     1      42.494  -8.841   7.144  1.00  0.00     0.337 C 
BRANCH  14  15
HETATM   15  C   UNL     1      41.927  -8.947   8.570  1.00  0.00     0.248 C 
HETATM   16  N   UNL     1      42.834  -8.575   9.550  1.00  0.00    -0.325 N 
HETATM   17  H   UNL     1      43.731  -8.211   9.253  1.00  0.00     0.169 HD
HETATM   18  O   UNL     1      40.773  -9.319   8.751  1.00  0.00    -0.271 OA
BRANCH  16  19
HETATM   19  C   UNL     1      42.647  -8.626  10.961  1.00  0.00     0.042 A 
HETATM   20  C   UNL     1      42.480  -7.411  11.679  1.00  0.00    -0.014 A 
HETATM   21  C   UNL     1      42.438  -6.083  10.962  1.00  0.00     0.052 C 
HETATM   22  C   UNL     1      42.380  -7.467  13.087  1.00  0.00     0.042 A 
HETATM   23 CL   UNL     1      42.243  -6.047  14.066  1.00  0.00    -0.084 Cl
HETATM   24  C   UNL     1      42.398  -8.689  13.763  1.00  0.00     0.024 A 
HETATM   25  C   UNL     1      42.531  -9.872  13.051  1.00  0.00     0.004 A 
HETATM   26  C   UNL     1      42.658  -9.840  11.663  1.00  0.00     0.030 A 
ENDBRANCH  16  19
ENDBRANCH  14  15
ENDBRANCH  10  14
ENDBRANCH   1   7
BRANCH   3  27
HETATM   27  N   UNL     1      41.399 -16.168   2.942  1.00  0.00    -0.187 N 
HETATM   28  H   UNL     1      40.549 -16.311   3.469  1.00  0.00     0.184 HD
BRANCH  27  29
HETATM   29  C   UNL     1      42.433 -17.061   3.273  1.00  0.00     0.049 A 
HETATM   30  C   UNL     1      42.927 -18.042   2.407  1.00  0.00     0.030 A 
HETATM   31  C   UNL     1      43.949 -18.911   2.806  1.00  0.00     0.002 A 
HETATM   32  C   UNL     1      44.479 -18.829   4.090  1.00  0.00     0.000 A 
HETATM   33  C   UNL     1      43.979 -17.883   4.978  1.00  0.00     0.002 A 
HETATM   34  C   UNL     1      42.960 -17.015   4.575  1.00  0.00     0.030 A 
ENDBRANCH  27  29
ENDBRANCH   3  27
BRANCH   5  35
HETATM   35  N   UNL     1      41.064 -13.044  -0.519  1.00  0.00    -0.187 N 
HETATM   36  H   UNL     1      41.619 -12.254  -0.823  1.00  0.00     0.184 HD
BRANCH  35  37
HETATM   37  C   UNL     1      39.941 -13.318  -1.313  1.00  0.00     0.049 A 
HETATM   38  C   UNL     1      39.926 -14.303  -2.307  1.00  0.00     0.030 A 
HETATM   39  C   UNL     1      38.783 -14.528  -3.082  1.00  0.00     0.002 A 
HETATM   40  C   UNL     1      37.647 -13.746  -2.893  1.00  0.00     0.000 A 
HETATM   41  C   UNL     1      37.653 -12.742  -1.930  1.00  0.00     0.002 A 
HETATM   42  C   UNL     1      38.791 -12.531  -1.147  1.00  0.00     0.030 A 
ENDBRANCH  35  37
ENDBRANCH   5  35
TORSDOF 8
ENDMDL
