MODEL 1
REMARK VINA RESULT:      -8.4      0.000      0.000
REMARK  5 active torsions:
REMARK  status: ('A' for Active; 'I' for Inactive)
REMARK    1  A    between atoms: C_11  and  N_12 
REMARK    2  A    between atoms: N_12  and  N_13 
REMARK       I    between atoms: N_13  and  C_14 
REMARK    3  A    between atoms: C_14  and  C_15 
REMARK    4  A    between atoms: C_15  and  C_16 
REMARK    5  A    between atoms: N_23  and  C_24 
ROOT
HETATM    1  C   UNL     1      42.936 -17.101   4.008  1.00  0.00     0.046 C 
HETATM    2  C   UNL     1      41.967 -15.943   4.280  1.00  0.00     0.058 C 
HETATM    3  C   UNL     1      40.849 -16.456   5.203  1.00  0.00     0.046 C 
HETATM    4  O   UNL     1      41.442 -15.556   2.989  1.00  0.00    -0.376 OA
HETATM    5  C   UNL     1      40.476 -14.487   2.997  1.00  0.00     0.215 C 
HETATM    6  C   UNL     1      40.960 -13.381   3.876  1.00  0.00     0.016 A 
HETATM    7  C   UNL     1      41.995 -13.481   4.784  1.00  0.00    -0.021 A 
HETATM    8  C   UNL     1      42.205 -12.246   5.474  1.00  0.00     0.077 A 
HETATM    9  C   UNL     1      41.308 -11.280   5.092  1.00  0.00     0.133 A 
HETATM   10  N   UNL     1      41.250 -10.006   5.539  1.00  0.00    -0.054 NA
HETATM   11  C   UNL     1      42.146  -9.668   6.439  1.00  0.00     0.730 A 
HETATM   12  N   UNL     1      43.085 -10.586   6.971  1.00  0.00    -0.107 N 
HETATM   13  C   UNL     1      43.188 -11.905   6.484  1.00  0.00     0.280 A 
HETATM   14  O   UNL     1      43.997 -12.746   6.871  1.00  0.00    -0.266 OA
HETATM   15  S   UNL     1      40.228 -11.845   3.894  1.00  0.00    -0.071 SA
HETATM   16  C   UNL     1      42.755 -14.765   4.918  1.00  0.00     0.078 C 
ENDROOT
BRANCH  11  17
HETATM   17  N   UNL     1      42.191  -8.332   6.808  1.00  0.00    -0.127 N 
HETATM   18  H   UNL     1      43.041  -7.781   6.696  1.00  0.00     0.206 HD
BRANCH  17  19
HETATM   19  N   UNL     1      41.413  -7.955   7.914  1.00  0.00    -0.255 N 
HETATM   20  C   UNL     1      42.034  -7.154   8.853  1.00  0.00     0.240 C 
HETATM   21  O   UNL     1      43.163  -6.692   8.674  1.00  0.00    -0.272 OA
HETATM   22  H   UNL     1      40.661  -8.604   8.150  1.00  0.00     0.190 HD
BRANCH  20  23
HETATM   23  C   UNL     1      41.199  -6.869  10.088  1.00  0.00     0.143 C 
BRANCH  23  24
HETATM   24  C   UNL     1      41.587  -7.680  11.301  1.00  0.00    -0.049 A 
HETATM   25  C   UNL     1      40.971  -8.910  11.575  1.00  0.00     0.007 A 
HETATM   26  C   UNL     1      41.368  -9.677  12.673  1.00  0.00     0.001 A 
HETATM   27  C   UNL     1      42.394  -9.231  13.502  1.00  0.00     0.000 A 
HETATM   28  C   UNL     1      43.022  -8.016  13.234  1.00  0.00     0.001 A 
HETATM   29  C   UNL     1      42.623  -7.245  12.140  1.00  0.00     0.007 A 
ENDBRANCH  23  24
ENDBRANCH  20  23
ENDBRANCH  17  19
ENDBRANCH  11  17
BRANCH  12  30
HETATM   30  C   UNL     1      43.935 -10.222   8.068  1.00  0.00     0.060 A 
HETATM   31  C   UNL     1      45.189  -9.636   7.842  1.00  0.00     0.030 A 
HETATM   32  C   UNL     1      46.011  -9.277   8.912  1.00  0.00     0.002 A 
HETATM   33  C   UNL     1      45.597  -9.512  10.221  1.00  0.00     0.000 A 
HETATM   34  C   UNL     1      44.365 -10.114  10.462  1.00  0.00     0.002 A 
HETATM   35  C   UNL     1      43.542 -10.474   9.393  1.00  0.00     0.030 A 
ENDBRANCH  12  30
TORSDOF 5
ENDMDL
MODEL 2
REMARK VINA RESULT:      -8.3      2.978      9.486
REMARK  5 active torsions:
REMARK  status: ('A' for Active; 'I' for Inactive)
REMARK    1  A    between atoms: C_11  and  N_12 
REMARK    2  A    between atoms: N_12  and  N_13 
REMARK       I    between atoms: N_13  and  C_14 
REMARK    3  A    between atoms: C_14  and  C_15 
REMARK    4  A    between atoms: C_15  and  C_16 
REMARK    5  A    between atoms: N_23  and  C_24 
ROOT
HETATM    1  C   UNL     1      45.596  -9.979  10.331  1.00  0.00     0.046 C 
HETATM    2  C   UNL     1      44.868  -9.534   9.055  1.00  0.00     0.058 C 
HETATM    3  C   UNL     1      45.901  -8.908   8.103  1.00  0.00     0.046 C 
HETATM    4  O   UNL     1      43.890  -8.558   9.479  1.00  0.00    -0.376 OA
HETATM    5  C   UNL     1      43.092  -7.971   8.433  1.00  0.00     0.215 C 
HETATM    6  C   UNL     1      42.606  -9.041   7.513  1.00  0.00     0.016 A 
HETATM    7  C   UNL     1      43.090 -10.334   7.470  1.00  0.00    -0.021 A 
HETATM    8  C   UNL     1      42.418 -11.110   6.475  1.00  0.00     0.077 A 
HETATM    9  C   UNL     1      41.486 -10.374   5.786  1.00  0.00     0.133 A 
HETATM   10  N   UNL     1      40.674 -10.815   4.800  1.00  0.00    -0.054 NA
HETATM   11  C   UNL     1      40.800 -12.080   4.468  1.00  0.00     0.730 A 
HETATM   12  N   UNL     1      41.770 -12.934   5.051  1.00  0.00    -0.107 N 
HETATM   13  C   UNL     1      42.594 -12.502   6.111  1.00  0.00     0.280 A 
HETATM   14  O   UNL     1      43.432 -13.193   6.688  1.00  0.00    -0.266 OA
HETATM   15  S   UNL     1      41.403  -8.761   6.343  1.00  0.00    -0.071 SA
HETATM   16  C   UNL     1      44.163 -10.766   8.422  1.00  0.00     0.078 C 
ENDROOT
BRANCH  11  17
HETATM   17  N   UNL     1      39.885 -12.584   3.558  1.00  0.00    -0.127 N 
HETATM   18  H   UNL     1      39.325 -13.409   3.773  1.00  0.00     0.206 HD
BRANCH  17  19
HETATM   19  N   UNL     1      40.211 -12.459   2.197  1.00  0.00    -0.255 N 
HETATM   20  C   UNL     1      40.131 -13.614   1.442  1.00  0.00     0.240 C 
HETATM   21  O   UNL     1      39.682 -14.665   1.901  1.00  0.00    -0.272 OA
HETATM   22  H   UNL     1      40.854 -11.698   1.979  1.00  0.00     0.190 HD
BRANCH  20  23
HETATM   23  C   UNL     1      40.605 -13.461   0.009  1.00  0.00     0.143 C 
BRANCH  23  24
HETATM   24  C   UNL     1      39.505 -13.556  -1.022  1.00  0.00    -0.049 A 
HETATM   25  C   UNL     1      38.516 -12.567  -1.118  1.00  0.00     0.007 A 
HETATM   26  C   UNL     1      37.530 -12.639  -2.104  1.00  0.00     0.001 A 
HETATM   27  C   UNL     1      37.529 -13.691  -3.015  1.00  0.00     0.000 A 
HETATM   28  C   UNL     1      38.513 -14.675  -2.939  1.00  0.00     0.001 A 
HETATM   29  C   UNL     1      39.496 -14.608  -1.949  1.00  0.00     0.007 A 
ENDBRANCH  23  24
ENDBRANCH  20  23
ENDBRANCH  17  19
ENDBRANCH  11  17
BRANCH  12  30
HETATM   30  C   UNL     1      41.987 -14.259   4.546  1.00  0.00     0.060 A 
HETATM   31  C   UNL     1      41.266 -15.349   5.057  1.00  0.00     0.030 A 
HETATM   32  C   UNL     1      41.476 -16.637   4.559  1.00  0.00     0.002 A 
HETATM   33  C   UNL     1      42.417 -16.854   3.556  1.00  0.00     0.000 A 
HETATM   34  C   UNL     1      43.157 -15.786   3.055  1.00  0.00     0.002 A 
HETATM   35  C   UNL     1      42.949 -14.497   3.552  1.00  0.00     0.030 A 
ENDBRANCH  12  30
TORSDOF 5
ENDMDL
MODEL 3
REMARK VINA RESULT:      -8.3      3.384      8.170
REMARK  5 active torsions:
REMARK  status: ('A' for Active; 'I' for Inactive)
REMARK    1  A    between atoms: C_11  and  N_12 
REMARK    2  A    between atoms: N_12  and  N_13 
REMARK       I    between atoms: N_13  and  C_14 
REMARK    3  A    between atoms: C_14  and  C_15 
REMARK    4  A    between atoms: C_15  and  C_16 
REMARK    5  A    between atoms: N_23  and  C_24 
ROOT
HETATM    1  C   UNL     1      39.742  -8.062  -0.072  1.00  0.00     0.046 C 
HETATM    2  C   UNL     1      40.191  -9.515   0.133  1.00  0.00     0.058 C 
HETATM    3  C   UNL     1      41.294  -9.829  -0.892  1.00  0.00     0.046 C 
HETATM    4  O   UNL     1      39.017 -10.326  -0.099  1.00  0.00    -0.376 OA
HETATM    5  C   UNL     1      39.204 -11.751   0.013  1.00  0.00     0.215 C 
HETATM    6  C   UNL     1      39.991 -12.057   1.244  1.00  0.00     0.016 A 
HETATM    7  C   UNL     1      40.700 -11.134   1.986  1.00  0.00    -0.021 A 
HETATM    8  C   UNL     1      41.350 -11.749   3.101  1.00  0.00     0.077 A 
HETATM    9  C   UNL     1      41.140 -13.105   3.140  1.00  0.00     0.133 A 
HETATM   10  N   UNL     1      41.599 -13.968   4.072  1.00  0.00    -0.054 NA
HETATM   11  C   UNL     1      42.328 -13.448   5.035  1.00  0.00     0.730 A 
HETATM   12  N   UNL     1      42.678 -12.076   5.077  1.00  0.00    -0.107 N 
HETATM   13  C   UNL     1      42.171 -11.154   4.138  1.00  0.00     0.280 A 
HETATM   14  O   UNL     1      42.402  -9.946   4.130  1.00  0.00    -0.266 OA
HETATM   15  S   UNL     1      40.150 -13.638   1.854  1.00  0.00    -0.071 SA
HETATM   16  C   UNL     1      40.687  -9.688   1.595  1.00  0.00     0.078 C 
ENDROOT
BRANCH  11  17
HETATM   17  N   UNL     1      42.692 -14.293   6.072  1.00  0.00    -0.127 N 
HETATM   18  H   UNL     1      42.772 -13.951   7.029  1.00  0.00     0.206 HD
BRANCH  17  19
HETATM   19  N   UNL     1      43.594 -15.324   5.761  1.00  0.00    -0.255 N 
HETATM   20  C   UNL     1      43.126 -16.614   5.923  1.00  0.00     0.240 C 
HETATM   21  O   UNL     1      41.950 -16.852   6.203  1.00  0.00    -0.272 OA
HETATM   22  H   UNL     1      44.579 -15.075   5.859  1.00  0.00     0.190 HD
BRANCH  20  23
HETATM   23  C   UNL     1      44.166 -17.694   5.691  1.00  0.00     0.143 C 
BRANCH  23  24
HETATM   24  C   UNL     1      43.924 -18.536   4.460  1.00  0.00    -0.049 A 
HETATM   25  C   UNL     1      44.100 -19.927   4.490  1.00  0.00     0.007 A 
HETATM   26  C   UNL     1      43.829 -20.703   3.362  1.00  0.00     0.001 A 
HETATM   27  C   UNL     1      43.366 -20.101   2.195  1.00  0.00     0.000 A 
HETATM   28  C   UNL     1      43.176 -18.722   2.155  1.00  0.00     0.001 A 
HETATM   29  C   UNL     1      43.452 -17.942   3.281  1.00  0.00     0.007 A 
ENDBRANCH  23  24
ENDBRANCH  20  23
ENDBRANCH  17  19
ENDBRANCH  11  17
BRANCH  12  30
HETATM   30  C   UNL     1      43.609 -11.580   6.050  1.00  0.00     0.060 A 
HETATM   31  C   UNL     1      44.991 -11.650   5.822  1.00  0.00     0.030 A 
HETATM   32  C   UNL     1      45.894 -11.160   6.768  1.00  0.00     0.002 A 
HETATM   33  C   UNL     1      45.428 -10.608   7.959  1.00  0.00     0.000 A 
HETATM   34  C   UNL     1      44.059 -10.551   8.210  1.00  0.00     0.002 A 
HETATM   35  C   UNL     1      43.155 -11.041   7.265  1.00  0.00     0.030 A 
ENDBRANCH  12  30
TORSDOF 5
ENDMDL
MODEL 4
REMARK VINA RESULT:      -8.2      3.830      8.296
REMARK  5 active torsions:
REMARK  status: ('A' for Active; 'I' for Inactive)
REMARK    1  A    between atoms: C_11  and  N_12 
REMARK    2  A    between atoms: N_12  and  N_13 
REMARK       I    between atoms: N_13  and  C_14 
REMARK    3  A    between atoms: C_14  and  C_15 
REMARK    4  A    between atoms: C_15  and  C_16 
REMARK    5  A    between atoms: N_23  and  C_24 
ROOT
HETATM    1  C   UNL     1      39.425 -10.576  -1.599  1.00  0.00     0.046 C 
HETATM    2  C   UNL     1      40.086 -11.849  -1.054  1.00  0.00     0.058 C 
HETATM    3  C   UNL     1      41.347 -12.133  -1.887  1.00  0.00     0.046 C 
HETATM    4  O   UNL     1      39.107 -12.902  -1.213  1.00  0.00    -0.376 OA
HETATM    5  C   UNL     1      39.520 -14.215  -0.788  1.00  0.00     0.215 C 
HETATM    6  C   UNL     1      40.186 -14.124   0.545  1.00  0.00     0.016 A 
HETATM    7  C   UNL     1      40.626 -12.956   1.136  1.00  0.00    -0.021 A 
HETATM    8  C   UNL     1      41.226 -13.210   2.409  1.00  0.00     0.077 A 
HETATM    9  C   UNL     1      41.249 -14.548   2.714  1.00  0.00     0.133 A 
HETATM   10  N   UNL     1      41.728 -15.114   3.844  1.00  0.00    -0.054 NA
HETATM   11  C   UNL     1      42.229 -14.289   4.736  1.00  0.00     0.730 A 
HETATM   12  N   UNL     1      42.331 -12.892   4.520  1.00  0.00    -0.107 N 
HETATM   13  C   UNL     1      41.796 -12.281   3.366  1.00  0.00     0.280 A 
HETATM   14  O   UNL     1      41.816 -11.076   3.125  1.00  0.00    -0.266 OA
HETATM   15  S   UNL     1      40.535 -15.498   1.485  1.00  0.00    -0.071 SA
HETATM   16  C   UNL     1      40.415 -11.641   0.451  1.00  0.00     0.078 C 
ENDROOT
BRANCH  11  17
HETATM   17  N   UNL     1      42.599 -14.834   5.956  1.00  0.00    -0.127 N 
HETATM   18  H   UNL     1      43.316 -14.398   6.534  1.00  0.00     0.206 HD
BRANCH  17  19
HETATM   19  N   UNL     1      42.560 -16.234   6.060  1.00  0.00    -0.255 N 
HETATM   20  C   UNL     1      43.782 -16.872   6.165  1.00  0.00     0.240 C 
HETATM   21  O   UNL     1      44.837 -16.248   6.285  1.00  0.00    -0.272 OA
HETATM   22  H   UNL     1      41.741 -16.673   5.640  1.00  0.00     0.190 HD
BRANCH  20  23
HETATM   23  C   UNL     1      43.702 -18.387   6.156  1.00  0.00     0.143 C 
BRANCH  23  24
HETATM   24  C   UNL     1      43.669 -18.999   4.775  1.00  0.00    -0.049 A 
HETATM   25  C   UNL     1      43.515 -18.200   3.633  1.00  0.00     0.007 A 
HETATM   26  C   UNL     1      43.533 -18.769   2.358  1.00  0.00     0.001 A 
HETATM   27  C   UNL     1      43.719 -20.140   2.207  1.00  0.00     0.000 A 
HETATM   28  C   UNL     1      43.885 -20.944   3.333  1.00  0.00     0.001 A 
HETATM   29  C   UNL     1      43.862 -20.378   4.609  1.00  0.00     0.007 A 
ENDBRANCH  23  24
ENDBRANCH  20  23
ENDBRANCH  17  19
ENDBRANCH  11  17
BRANCH  12  30
HETATM   30  C   UNL     1      43.032 -12.050   5.445  1.00  0.00     0.060 A 
HETATM   31  C   UNL     1      44.433 -11.981   5.434  1.00  0.00     0.030 A 
HETATM   32  C   UNL     1      45.112 -11.155   6.332  1.00  0.00     0.002 A 
HETATM   33  C   UNL     1      44.402 -10.398   7.261  1.00  0.00     0.000 A 
HETATM   34  C   UNL     1      43.012 -10.473   7.300  1.00  0.00     0.002 A 
HETATM   35  C   UNL     1      42.331 -11.299   6.403  1.00  0.00     0.030 A 
ENDBRANCH  12  30
TORSDOF 5
ENDMDL
MODEL 5
REMARK VINA RESULT:      -7.9      2.287      9.059
REMARK  5 active torsions:
REMARK  status: ('A' for Active; 'I' for Inactive)
REMARK    1  A    between atoms: C_11  and  N_12 
REMARK    2  A    between atoms: N_12  and  N_13 
REMARK       I    between atoms: N_13  and  C_14 
REMARK    3  A    between atoms: C_14  and  C_15 
REMARK    4  A    between atoms: C_15  and  C_16 
REMARK    5  A    between atoms: N_23  and  C_24 
ROOT
HETATM    1  C   UNL     1      41.083  -5.543  11.415  1.00  0.00     0.046 C 
HETATM    2  C   UNL     1      41.579  -6.995  11.436  1.00  0.00     0.058 C 
HETATM    3  C   UNL     1      40.562  -7.842  12.219  1.00  0.00     0.046 C 
HETATM    4  O   UNL     1      42.860  -6.965  12.106  1.00  0.00    -0.376 OA
HETATM    5  C   UNL     1      43.515  -8.238  12.269  1.00  0.00     0.215 C 
HETATM    6  C   UNL     1      43.454  -9.000  10.986  1.00  0.00     0.016 A 
HETATM    7  C   UNL     1      42.638  -8.694   9.916  1.00  0.00    -0.021 A 
HETATM    8  C   UNL     1      42.813  -9.622   8.843  1.00  0.00     0.077 A 
HETATM    9  C   UNL     1      43.718 -10.606   9.153  1.00  0.00     0.133 A 
HETATM   10  N   UNL     1      44.119 -11.619   8.352  1.00  0.00    -0.054 NA
HETATM   11  C   UNL     1      43.574 -11.662   7.157  1.00  0.00     0.730 A 
HETATM   12  N   UNL     1      42.575 -10.750   6.734  1.00  0.00    -0.107 N 
HETATM   13  C   UNL     1      42.178  -9.662   7.540  1.00  0.00     0.280 A 
HETATM   14  O   UNL     1      41.346  -8.812   7.229  1.00  0.00    -0.266 OA
HETATM   15  S   UNL     1      44.372 -10.407  10.719  1.00  0.00    -0.071 SA
HETATM   16  C   UNL     1      41.746  -7.491   9.972  1.00  0.00     0.078 C 
ENDROOT
BRANCH  11  17
HETATM   17  N   UNL     1      44.071 -12.609   6.275  1.00  0.00    -0.127 N 
HETATM   18  H   UNL     1      44.375 -12.350   5.337  1.00  0.00     0.206 HD
BRANCH  17  19
HETATM   19  N   UNL     1      43.522 -13.899   6.356  1.00  0.00    -0.255 N 
HETATM   20  C   UNL     1      43.024 -14.426   5.180  1.00  0.00     0.240 C 
HETATM   21  O   UNL     1      43.164 -13.855   4.097  1.00  0.00    -0.272 OA
HETATM   22  H   UNL     1      43.156 -14.152   7.275  1.00  0.00     0.190 HD
BRANCH  20  23
HETATM   23  C   UNL     1      42.335 -15.769   5.335  1.00  0.00     0.143 C 
BRANCH  23  24
HETATM   24  C   UNL     1      42.926 -16.872   4.489  1.00  0.00    -0.049 A 
HETATM   25  C   UNL     1      42.477 -17.098   3.179  1.00  0.00     0.007 A 
HETATM   26  C   UNL     1      43.061 -18.089   2.388  1.00  0.00     0.001 A 
HETATM   27  C   UNL     1      44.110 -18.856   2.889  1.00  0.00     0.000 A 
HETATM   28  C   UNL     1      44.573 -18.634   4.184  1.00  0.00     0.001 A 
HETATM   29  C   UNL     1      43.987 -17.647   4.980  1.00  0.00     0.007 A 
ENDBRANCH  23  24
ENDBRANCH  20  23
ENDBRANCH  17  19
ENDBRANCH  11  17
BRANCH  12  30
HETATM   30  C   UNL     1      41.888 -10.930   5.488  1.00  0.00     0.060 A 
HETATM   31  C   UNL     1      40.689 -11.654   5.427  1.00  0.00     0.030 A 
HETATM   32  C   UNL     1      40.020 -11.822   4.213  1.00  0.00     0.002 A 
HETATM   33  C   UNL     1      40.547 -11.281   3.043  1.00  0.00     0.000 A 
HETATM   34  C   UNL     1      41.749 -10.579   3.083  1.00  0.00     0.002 A 
HETATM   35  C   UNL     1      42.420 -10.411   4.296  1.00  0.00     0.030 A 
ENDBRANCH  12  30
TORSDOF 5
ENDMDL
MODEL 6
REMARK VINA RESULT:      -7.9      4.770      7.972
REMARK  5 active torsions:
REMARK  status: ('A' for Active; 'I' for Inactive)
REMARK    1  A    between atoms: C_11  and  N_12 
REMARK    2  A    between atoms: N_12  and  N_13 
REMARK       I    between atoms: N_13  and  C_14 
REMARK    3  A    between atoms: C_14  and  C_15 
REMARK    4  A    between atoms: C_15  and  C_16 
REMARK    5  A    between atoms: N_23  and  C_24 
ROOT
HETATM    1  C   UNL     1      36.761 -10.953  -2.975  1.00  0.00     0.046 C 
HETATM    2  C   UNL     1      37.445 -10.420  -1.709  1.00  0.00     0.058 C 
HETATM    3  C   UNL     1      36.367 -10.202  -0.634  1.00  0.00     0.046 C 
HETATM    4  O   UNL     1      38.062  -9.169  -2.091  1.00  0.00    -0.376 OA
HETATM    5  C   UNL     1      38.751  -8.461  -1.042  1.00  0.00     0.215 C 
HETATM    6  C   UNL     1      39.604  -9.414  -0.271  1.00  0.00     0.016 A 
HETATM    7  C   UNL     1      39.514 -10.791  -0.332  1.00  0.00    -0.021 A 
HETATM    8  C   UNL     1      40.466 -11.415   0.533  1.00  0.00     0.077 A 
HETATM    9  C   UNL     1      41.208 -10.497   1.234  1.00  0.00     0.133 A 
HETATM   10  N   UNL     1      42.199 -10.760   2.115  1.00  0.00    -0.054 NA
HETATM   11  C   UNL     1      42.468 -12.030   2.321  1.00  0.00     0.730 A 
HETATM   12  N   UNL     1      41.733 -13.079   1.716  1.00  0.00    -0.107 N 
HETATM   13  C   UNL     1      40.727 -12.823   0.761  1.00  0.00     0.280 A 
HETATM   14  O   UNL     1      40.072 -13.678   0.170  1.00  0.00    -0.266 OA
HETATM   15  S   UNL     1      40.778  -8.890   0.843  1.00  0.00    -0.071 SA
HETATM   16  C   UNL     1      38.526 -11.439  -1.253  1.00  0.00     0.078 C 
ENDROOT
BRANCH  11  17
HETATM   17  N   UNL     1      43.568 -12.317   3.114  1.00  0.00    -0.127 N 
HETATM   18  H   UNL     1      44.444 -12.642   2.706  1.00  0.00     0.206 HD
BRANCH  17  19
HETATM   19  N   UNL     1      43.308 -12.841   4.391  1.00  0.00    -0.255 N 
HETATM   20  C   UNL     1      43.989 -12.255   5.441  1.00  0.00     0.240 C 
HETATM   21  O   UNL     1      44.686 -11.251   5.290  1.00  0.00    -0.272 OA
HETATM   22  H   UNL     1      43.009 -13.817   4.400  1.00  0.00     0.190 HD
BRANCH  20  23
HETATM   23  C   UNL     1      43.770 -12.928   6.784  1.00  0.00     0.143 C 
BRANCH  23  24
HETATM   24  C   UNL     1      43.438 -14.399   6.695  1.00  0.00    -0.049 A 
HETATM   25  C   UNL     1      44.434 -15.349   6.426  1.00  0.00     0.007 A 
HETATM   26  C   UNL     1      44.127 -16.711   6.392  1.00  0.00     0.001 A 
HETATM   27  C   UNL     1      42.826 -17.141   6.641  1.00  0.00     0.000 A 
HETATM   28  C   UNL     1      41.830 -16.208   6.921  1.00  0.00     0.001 A 
HETATM   29  C   UNL     1      42.134 -14.844   6.950  1.00  0.00     0.007 A 
ENDBRANCH  23  24
ENDBRANCH  20  23
ENDBRANCH  17  19
ENDBRANCH  11  17
BRANCH  12  30
HETATM   30  C   UNL     1      41.949 -14.447   2.092  1.00  0.00     0.060 A 
HETATM   31  C   UNL     1      43.016 -15.180   1.554  1.00  0.00     0.030 A 
HETATM   32  C   UNL     1      43.227 -16.509   1.927  1.00  0.00     0.002 A 
HETATM   33  C   UNL     1      42.367 -17.126   2.833  1.00  0.00     0.000 A 
HETATM   34  C   UNL     1      41.289 -16.418   3.359  1.00  0.00     0.002 A 
HETATM   35  C   UNL     1      41.077 -15.089   2.986  1.00  0.00     0.030 A 
ENDBRANCH  12  30
TORSDOF 5
ENDMDL
MODEL 7
REMARK VINA RESULT:      -7.8      2.860      9.127
REMARK  5 active torsions:
REMARK  status: ('A' for Active; 'I' for Inactive)
REMARK    1  A    between atoms: C_11  and  N_12 
REMARK    2  A    between atoms: N_12  and  N_13 
REMARK       I    between atoms: N_13  and  C_14 
REMARK    3  A    between atoms: C_14  and  C_15 
REMARK    4  A    between atoms: C_15  and  C_16 
REMARK    5  A    between atoms: N_23  and  C_24 
ROOT
HETATM    1  C   UNL     1      43.129  -7.145   9.820  1.00  0.00     0.046 C 
HETATM    2  C   UNL     1      43.225  -8.598   9.335  1.00  0.00     0.058 C 
HETATM    3  C   UNL     1      42.346  -9.470  10.246  1.00  0.00     0.046 C 
HETATM    4  O   UNL     1      44.620  -8.961   9.452  1.00  0.00    -0.376 OA
HETATM    5  C   UNL     1      44.953 -10.310   9.072  1.00  0.00     0.215 C 
HETATM    6  C   UNL     1      44.285 -10.647   7.780  1.00  0.00     0.016 A 
HETATM    7  C   UNL     1      43.266  -9.920   7.198  1.00  0.00    -0.021 A 
HETATM    8  C   UNL     1      42.840 -10.510   5.967  1.00  0.00     0.077 A 
HETATM    9  C   UNL     1      43.522 -11.668   5.685  1.00  0.00     0.133 A 
HETATM   10  N   UNL     1      43.370 -12.451   4.595  1.00  0.00    -0.054 NA
HETATM   11  C   UNL     1      42.469 -12.060   3.721  1.00  0.00     0.730 A 
HETATM   12  N   UNL     1      41.648 -10.922   3.922  1.00  0.00    -0.107 N 
HETATM   13  C   UNL     1      41.824 -10.070   5.031  1.00  0.00     0.280 A 
HETATM   14  O   UNL     1      41.175  -9.050   5.255  1.00  0.00    -0.266 OA
HETATM   15  S   UNL     1      44.683 -12.037   6.884  1.00  0.00    -0.071 SA
HETATM   16  C   UNL     1      42.772  -8.664   7.850  1.00  0.00     0.078 C 
ENDROOT
BRANCH  11  17
HETATM   17  N   UNL     1      42.396 -12.772   2.534  1.00  0.00    -0.127 N 
HETATM   18  H   UNL     1      42.203 -12.305   1.649  1.00  0.00     0.206 HD
BRANCH  17  19
HETATM   19  N   UNL     1      41.882 -14.077   2.611  1.00  0.00    -0.255 N 
HETATM   20  C   UNL     1      42.654 -15.071   2.040  1.00  0.00     0.240 C 
HETATM   21  O   UNL     1      43.784 -14.850   1.600  1.00  0.00    -0.272 OA
HETATM   22  H   UNL     1      40.865 -14.134   2.676  1.00  0.00     0.190 HD
BRANCH  20  23
HETATM   23  C   UNL     1      42.009 -16.444   2.039  1.00  0.00     0.143 C 
BRANCH  23  24
HETATM   24  C   UNL     1      42.772 -17.489   2.818  1.00  0.00    -0.049 A 
HETATM   25  C   UNL     1      43.052 -18.746   2.262  1.00  0.00     0.007 A 
HETATM   26  C   UNL     1      43.798 -19.689   2.971  1.00  0.00     0.001 A 
HETATM   27  C   UNL     1      44.285 -19.384   4.239  1.00  0.00     0.000 A 
HETATM   28  C   UNL     1      44.024 -18.135   4.800  1.00  0.00     0.001 A 
HETATM   29  C   UNL     1      43.273 -17.192   4.094  1.00  0.00     0.007 A 
ENDBRANCH  23  24
ENDBRANCH  20  23
ENDBRANCH  17  19
ENDBRANCH  11  17
BRANCH  12  30
HETATM   30  C   UNL     1      40.567 -10.623   3.027  1.00  0.00     0.060 A 
HETATM   31  C   UNL     1      39.309 -11.218   3.198  1.00  0.00     0.030 A 
HETATM   32  C   UNL     1      38.257 -10.920   2.329  1.00  0.00     0.002 A 
HETATM   33  C   UNL     1      38.453 -10.036   1.271  1.00  0.00     0.000 A 
HETATM   34  C   UNL     1      39.703  -9.455   1.074  1.00  0.00     0.002 A 
HETATM   35  C   UNL     1      40.757  -9.752   1.942  1.00  0.00     0.030 A 
ENDBRANCH  12  30
TORSDOF 5
ENDMDL
MODEL 8
REMARK VINA RESULT:      -7.7      5.585     10.502
REMARK  5 active torsions:
REMARK  status: ('A' for Active; 'I' for Inactive)
REMARK    1  A    between atoms: C_11  and  N_12 
REMARK    2  A    between atoms: N_12  and  N_13 
REMARK       I    between atoms: N_13  and  C_14 
REMARK    3  A    between atoms: C_14  and  C_15 
REMARK    4  A    between atoms: C_15  and  C_16 
REMARK    5  A    between atoms: N_23  and  C_24 
ROOT
HETATM    1  C   UNL     1      39.043  -5.653   2.765  1.00  0.00     0.046 C 
HETATM    2  C   UNL     1      38.672  -7.031   3.327  1.00  0.00     0.058 C 
HETATM    3  C   UNL     1      37.152  -7.065   3.559  1.00  0.00     0.046 C 
HETATM    4  O   UNL     1      39.393  -7.156   4.574  1.00  0.00    -0.376 OA
HETATM    5  C   UNL     1      39.177  -8.378   5.307  1.00  0.00     0.215 C 
HETATM    6  C   UNL     1      39.256  -9.541   4.375  1.00  0.00     0.016 A 
HETATM    7  C   UNL     1      39.220  -9.462   2.997  1.00  0.00    -0.021 A 
HETATM    8  C   UNL     1      39.310 -10.756   2.397  1.00  0.00     0.077 A 
HETATM    9  C   UNL     1      39.373 -11.758   3.333  1.00  0.00     0.133 A 
HETATM   10  N   UNL     1      39.482 -13.084   3.094  1.00  0.00    -0.054 NA
HETATM   11  C   UNL     1      39.525 -13.442   1.830  1.00  0.00     0.730 A 
HETATM   12  N   UNL     1      39.400 -12.517   0.764  1.00  0.00    -0.107 N 
HETATM   13  C   UNL     1      39.331 -11.127   0.995  1.00  0.00     0.280 A 
HETATM   14  O   UNL     1      39.255 -10.264   0.124  1.00  0.00    -0.266 OA
HETATM   15  S   UNL     1      39.344 -11.148   4.929  1.00  0.00    -0.071 SA
HETATM   16  C   UNL     1      39.133  -8.126   2.325  1.00  0.00     0.078 C 
ENDROOT
BRANCH  11  17
HETATM   17  N   UNL     1      39.774 -14.780   1.567  1.00  0.00    -0.127 N 
HETATM   18  H   UNL     1      39.110 -15.505   1.835  1.00  0.00     0.206 HD
BRANCH  17  19
HETATM   19  N   UNL     1      41.115 -15.195   1.615  1.00  0.00    -0.255 N 
HETATM   20  C   UNL     1      41.473 -15.979   2.696  1.00  0.00     0.240 C 
HETATM   21  O   UNL     1      40.642 -16.395   3.505  1.00  0.00    -0.272 OA
HETATM   22  H   UNL     1      41.772 -14.578   1.137  1.00  0.00     0.190 HD
BRANCH  20  23
HETATM   23  C   UNL     1      42.953 -16.306   2.772  1.00  0.00     0.143 C 
BRANCH  23  24
HETATM   24  C   UNL     1      43.254 -17.761   3.043  1.00  0.00    -0.049 A 
HETATM   25  C   UNL     1      42.987 -18.746   2.081  1.00  0.00     0.007 A 
HETATM   26  C   UNL     1      43.312 -20.082   2.321  1.00  0.00     0.001 A 
HETATM   27  C   UNL     1      43.921 -20.449   3.518  1.00  0.00     0.000 A 
HETATM   28  C   UNL     1      44.203 -19.479   4.477  1.00  0.00     0.001 A 
HETATM   29  C   UNL     1      43.874 -18.142   4.242  1.00  0.00     0.007 A 
ENDBRANCH  23  24
ENDBRANCH  20  23
ENDBRANCH  17  19
ENDBRANCH  11  17
BRANCH  12  30
HETATM   30  C   UNL     1      39.286 -12.965  -0.594  1.00  0.00     0.060 A 
HETATM   31  C   UNL     1      38.033 -13.053  -1.218  1.00  0.00     0.030 A 
HETATM   32  C   UNL     1      37.926 -13.483  -2.542  1.00  0.00     0.002 A 
HETATM   33  C   UNL     1      39.067 -13.844  -3.255  1.00  0.00     0.000 A 
HETATM   34  C   UNL     1      40.316 -13.783  -2.642  1.00  0.00     0.002 A 
HETATM   35  C   UNL     1      40.425 -13.354  -1.317  1.00  0.00     0.030 A 
ENDBRANCH  12  30
TORSDOF 5
ENDMDL
MODEL 9
REMARK VINA RESULT:      -7.6      4.670      9.118
REMARK  5 active torsions:
REMARK  status: ('A' for Active; 'I' for Inactive)
REMARK    1  A    between atoms: C_11  and  N_12 
REMARK    2  A    between atoms: N_12  and  N_13 
REMARK       I    between atoms: N_13  and  C_14 
REMARK    3  A    between atoms: C_14  and  C_15 
REMARK    4  A    between atoms: C_15  and  C_16 
REMARK    5  A    between atoms: N_23  and  C_24 
ROOT
HETATM    1  C   UNL     1      38.123  -6.540   7.194  1.00  0.00     0.046 C 
HETATM    2  C   UNL     1      38.552  -7.172   5.863  1.00  0.00     0.058 C 
HETATM    3  C   UNL     1      39.808  -6.440   5.363  1.00  0.00     0.046 C 
HETATM    4  O   UNL     1      37.440  -6.980   4.958  1.00  0.00    -0.376 OA
HETATM    5  C   UNL     1      37.625  -7.476   3.619  1.00  0.00     0.215 C 
HETATM    6  C   UNL     1      38.210  -8.849   3.669  1.00  0.00     0.016 A 
HETATM    7  C   UNL     1      38.780  -9.431   4.784  1.00  0.00    -0.021 A 
HETATM    8  C   UNL     1      39.252 -10.750   4.501  1.00  0.00     0.077 A 
HETATM    9  C   UNL     1      39.056 -11.100   3.188  1.00  0.00     0.133 A 
HETATM   10  N   UNL     1      39.372 -12.279   2.608  1.00  0.00    -0.054 NA
HETATM   11  C   UNL     1      39.931 -13.176   3.389  1.00  0.00     0.730 A 
HETATM   12  N   UNL     1      40.253 -12.921   4.745  1.00  0.00    -0.107 N 
HETATM   13  C   UNL     1      39.890 -11.714   5.377  1.00  0.00     0.280 A 
HETATM   14  O   UNL     1      40.104 -11.434   6.555  1.00  0.00    -0.266 OA
HETATM   15  S   UNL     1      38.290  -9.856   2.301  1.00  0.00    -0.071 SA
HETATM   16  C   UNL     1      38.811  -8.689   6.085  1.00  0.00     0.078 C 
ENDROOT
BRANCH  11  17
HETATM   17  N   UNL     1      40.137 -14.436   2.849  1.00  0.00    -0.127 N 
HETATM   18  H   UNL     1      39.522 -15.216   3.078  1.00  0.00     0.206 HD
BRANCH  17  19
HETATM   19  N   UNL     1      41.469 -14.815   2.615  1.00  0.00    -0.255 N 
HETATM   20  C   UNL     1      41.673 -16.128   2.237  1.00  0.00     0.240 C 
HETATM   21  O   UNL     1      40.737 -16.892   1.997  1.00  0.00    -0.272 OA
HETATM   22  H   UNL     1      42.165 -14.271   3.127  1.00  0.00     0.190 HD
BRANCH  20  23
HETATM   23  C   UNL     1      43.132 -16.526   2.111  1.00  0.00     0.143 C 
BRANCH  23  24
HETATM   24  C   UNL     1      43.496 -17.795   2.846  1.00  0.00    -0.049 A 
HETATM   25  C   UNL     1      43.893 -17.763   4.190  1.00  0.00     0.007 A 
HETATM   26  C   UNL     1      44.183 -18.945   4.875  1.00  0.00     0.001 A 
HETATM   27  C   UNL     1      44.065 -20.173   4.230  1.00  0.00     0.000 A 
HETATM   28  C   UNL     1      43.659 -20.220   2.898  1.00  0.00     0.001 A 
HETATM   29  C   UNL     1      43.375 -19.039   2.209  1.00  0.00     0.007 A 
ENDBRANCH  23  24
ENDBRANCH  20  23
ENDBRANCH  17  19
ENDBRANCH  11  17
BRANCH  12  30
HETATM   30  C   UNL     1      41.010 -13.865   5.516  1.00  0.00     0.060 A 
HETATM   31  C   UNL     1      40.382 -14.953   6.139  1.00  0.00     0.030 A 
HETATM   32  C   UNL     1      41.123 -15.873   6.883  1.00  0.00     0.002 A 
HETATM   33  C   UNL     1      42.499 -15.710   7.026  1.00  0.00     0.000 A 
HETATM   34  C   UNL     1      43.135 -14.622   6.433  1.00  0.00     0.002 A 
HETATM   35  C   UNL     1      42.395 -13.701   5.688  1.00  0.00     0.030 A 
ENDBRANCH  12  30
TORSDOF 5
ENDMDL
MODEL 10
REMARK VINA RESULT:      -7.5      3.048      9.236
REMARK  5 active torsions:
REMARK  status: ('A' for Active; 'I' for Inactive)
REMARK    1  A    between atoms: C_11  and  N_12 
REMARK    2  A    between atoms: N_12  and  N_13 
REMARK       I    between atoms: N_13  and  C_14 
REMARK    3  A    between atoms: C_14  and  C_15 
REMARK    4  A    between atoms: C_15  and  C_16 
REMARK    5  A    between atoms: N_23  and  C_24 
ROOT
HETATM    1  C   UNL     1      45.462  -9.646  10.218  1.00  0.00     0.046 C 
HETATM    2  C   UNL     1      44.839  -9.669   8.816  1.00  0.00     0.058 C 
HETATM    3  C   UNL     1      45.903  -9.206   7.807  1.00  0.00     0.046 C 
HETATM    4  O   UNL     1      43.728  -8.744   8.863  1.00  0.00    -0.376 OA
HETATM    5  C   UNL     1      42.996  -8.577   7.634  1.00  0.00     0.215 C 
HETATM    6  C   UNL     1      42.722  -9.913   7.028  1.00  0.00     0.016 A 
HETATM    7  C   UNL     1      43.334 -11.095   7.397  1.00  0.00    -0.021 A 
HETATM    8  C   UNL     1      42.856 -12.195   6.619  1.00  0.00     0.077 A 
HETATM    9  C   UNL     1      41.937 -11.803   5.677  1.00  0.00     0.133 A 
HETATM   10  N   UNL     1      41.286 -12.600   4.800  1.00  0.00    -0.054 NA
HETATM   11  C   UNL     1      41.573 -13.881   4.859  1.00  0.00     0.730 A 
HETATM   12  N   UNL     1      42.552 -14.410   5.736  1.00  0.00    -0.107 N 
HETATM   13  C   UNL     1      43.208 -13.600   6.687  1.00  0.00     0.280 A 
HETATM   14  O   UNL     1      44.042 -13.991   7.501  1.00  0.00    -0.266 OA
HETATM   15  S   UNL     1      41.634 -10.123   5.737  1.00  0.00    -0.071 SA
HETATM   16  C   UNL     1      44.333 -11.106   8.513  1.00  0.00     0.078 C 
ENDROOT
BRANCH  11  17
HETATM   17  N   UNL     1      40.818 -14.730   4.065  1.00  0.00    -0.127 N 
HETATM   18  H   UNL     1      40.361 -15.553   4.456  1.00  0.00     0.206 HD
BRANCH  17  19
HETATM   19  N   UNL     1      41.239 -14.893   2.735  1.00  0.00    -0.255 N 
HETATM   20  C   UNL     1      40.387 -14.409   1.760  1.00  0.00     0.240 C 
HETATM   21  O   UNL     1      39.377 -13.760   2.039  1.00  0.00    -0.272 OA
HETATM   22  H   UNL     1      41.867 -15.682   2.578  1.00  0.00     0.190 HD
BRANCH  20  23
HETATM   23  C   UNL     1      40.821 -14.711   0.339  1.00  0.00     0.143 C 
BRANCH  23  24
HETATM   24  C   UNL     1      40.170 -13.839  -0.709  1.00  0.00    -0.049 A 
HETATM   25  C   UNL     1      39.129 -14.328  -1.511  1.00  0.00     0.007 A 
HETATM   26  C   UNL     1      38.501 -13.501  -2.445  1.00  0.00     0.001 A 
HETATM   27  C   UNL     1      38.895 -12.172  -2.578  1.00  0.00     0.000 A 
HETATM   28  C   UNL     1      39.920 -11.670  -1.779  1.00  0.00     0.001 A 
HETATM   29  C   UNL     1      40.554 -12.497  -0.848  1.00  0.00     0.007 A 
ENDBRANCH  23  24
ENDBRANCH  20  23
ENDBRANCH  17  19
ENDBRANCH  11  17
BRANCH  12  30
HETATM   30  C   UNL     1      42.954 -15.785   5.654  1.00  0.00     0.060 A 
HETATM   31  C   UNL     1      43.681 -16.256   4.552  1.00  0.00     0.030 A 
HETATM   32  C   UNL     1      44.076 -17.593   4.478  1.00  0.00     0.002 A 
HETATM   33  C   UNL     1      43.737 -18.479   5.498  1.00  0.00     0.000 A 
HETATM   34  C   UNL     1      42.996 -18.032   6.588  1.00  0.00     0.002 A 
HETATM   35  C   UNL     1      42.599 -16.695   6.663  1.00  0.00     0.030 A 
ENDBRANCH  12  30
TORSDOF 5
ENDMDL
