MODEL 1
REMARK VINA RESULT:      -8.4      0.000      0.000
REMARK  8 active torsions:
REMARK  status: ('A' for Active; 'I' for Inactive)
REMARK    1  A    between atoms: C_7  and  C_8 
REMARK       I    between atoms: C_8  and  N_9 
REMARK    2  A    between atoms: N_9  and  S_10 
REMARK    3  A    between atoms: S_10  and  N_11 
REMARK    4  A    between atoms: N_11  and  C_12 
REMARK    5  A    between atoms: C_12  and  C_13 
REMARK    6  A    between atoms: C_13  and  C_14 
REMARK    7  A    between atoms: C_16  and  O_17 
REMARK    8  A    between atoms: C_19  and  O_20 
ROOT
HETATM    1  S   UNL     1      40.913 -13.988   2.594  1.00  0.00     0.303 S 
HETATM    2  O   UNL     1      40.547 -14.890   1.531  1.00  0.00    -0.188 OA
HETATM    3  O   UNL     1      39.909 -13.329   3.395  1.00  0.00    -0.188 OA
ENDROOT
BRANCH   1   4
HETATM    4  N   UNL     1      41.880 -14.816   3.643  1.00  0.00    -0.237 N 
HETATM    5  C   UNL     1      43.025 -15.490   3.200  1.00  0.00     0.268 C 
HETATM    6  O   UNL     1      43.612 -15.136   2.183  1.00  0.00    -0.267 OA
HETATM    7  H   UNL     1      41.310 -15.279   4.336  1.00  0.00     0.183 HD
BRANCH   5   8
HETATM    8  C   UNL     1      43.454 -16.641   4.002  1.00  0.00     0.067 A 
HETATM    9  C   UNL     1      43.903 -16.692   5.324  1.00  0.00     0.022 A 
HETATM   10  C   UNL     1      44.147 -15.655   6.364  1.00  0.00     0.069 C 
HETATM   11  N   UNL     1      44.165 -18.010   5.624  1.00  0.00    -0.358 N 
HETATM   12  H   UNL     1      44.502 -18.347   6.517  1.00  0.00     0.166 HD
HETATM   13  C   UNL     1      43.936 -18.819   4.544  1.00  0.00     0.043 A 
HETATM   14  C   UNL     1      43.492 -18.000   3.509  1.00  0.00     0.008 A 
HETATM   15  C   UNL     1      44.090 -20.205   4.410  1.00  0.00     0.030 A 
HETATM   16  C   UNL     1      43.182 -18.609   2.272  1.00  0.00     0.015 A 
HETATM   17  C   UNL     1      43.331 -19.992   2.116  1.00  0.00     0.001 A 
HETATM   18  C   UNL     1      43.779 -20.777   3.173  1.00  0.00     0.002 A 
ENDBRANCH   5   8
ENDBRANCH   1   4
BRANCH   1  19
HETATM   19  N   UNL     1      41.965 -12.834   1.982  1.00  0.00    -0.202 NA
HETATM   20  H   UNL     1      41.495 -12.405   1.172  1.00  0.00     0.141 HD
BRANCH  19  21
HETATM   21  C   UNL     1      42.349 -11.758   2.933  1.00  0.00     0.110 C 
BRANCH  21  22
HETATM   22  C   UNL     1      43.800 -11.860   3.399  1.00  0.00     0.054 C 
BRANCH  22  23
HETATM   23  C   UNL     1      43.880 -11.678   4.897  1.00  0.00    -0.054 A 
HETATM   24  C   UNL     1      45.100 -11.317   5.494  1.00  0.00     0.046 A 
HETATM   25  C   UNL     1      45.217 -11.213   6.885  1.00  0.00     0.102 A 
HETATM   26  C   UNL     1      44.098 -11.482   7.695  1.00  0.00     0.101 A 
HETATM   27  C   UNL     1      42.879 -11.823   7.100  1.00  0.00     0.040 A 
HETATM   28  C   UNL     1      42.772 -11.925   5.710  1.00  0.00     0.010 A 
BRANCH  25  29
HETATM   29  O   UNL     1      46.375 -10.880   7.543  1.00  0.00    -0.353 OA
HETATM   30  C   UNL     1      46.626  -9.501   7.778  1.00  0.00     0.210 C 
ENDBRANCH  25  29
BRANCH  26  31
HETATM   31  O   UNL     1      44.287 -11.367   9.050  1.00  0.00    -0.353 OA
HETATM   32  C   UNL     1      43.613 -10.304   9.708  1.00  0.00     0.210 C 
ENDBRANCH  26  31
ENDBRANCH  22  23
ENDBRANCH  21  22
ENDBRANCH  19  21
ENDBRANCH   1  19
TORSDOF 8
ENDMDL
MODEL 2
REMARK VINA RESULT:      -8.0      1.146      1.842
REMARK  8 active torsions:
REMARK  status: ('A' for Active; 'I' for Inactive)
REMARK    1  A    between atoms: C_7  and  C_8 
REMARK       I    between atoms: C_8  and  N_9 
REMARK    2  A    between atoms: N_9  and  S_10 
REMARK    3  A    between atoms: S_10  and  N_11 
REMARK    4  A    between atoms: N_11  and  C_12 
REMARK    5  A    between atoms: C_12  and  C_13 
REMARK    6  A    between atoms: C_13  and  C_14 
REMARK    7  A    between atoms: C_16  and  O_17 
REMARK    8  A    between atoms: C_19  and  O_20 
ROOT
HETATM    1  S   UNL     1      40.764 -14.351   1.999  1.00  0.00     0.303 S 
HETATM    2  O   UNL     1      40.929 -15.160   0.818  1.00  0.00    -0.188 OA
HETATM    3  O   UNL     1      39.455 -14.084   2.546  1.00  0.00    -0.188 OA
ENDROOT
BRANCH   1   4
HETATM    4  N   UNL     1      41.646 -15.043   3.209  1.00  0.00    -0.237 N 
HETATM    5  C   UNL     1      42.933 -15.543   2.976  1.00  0.00     0.268 C 
HETATM    6  O   UNL     1      43.628 -15.100   2.068  1.00  0.00    -0.267 OA
HETATM    7  H   UNL     1      41.038 -15.589   3.802  1.00  0.00     0.183 HD
BRANCH   5   8
HETATM    8  C   UNL     1      43.377 -16.630   3.856  1.00  0.00     0.067 A 
HETATM    9  C   UNL     1      43.801 -16.585   5.188  1.00  0.00     0.022 A 
HETATM   10  C   UNL     1      43.994 -15.479   6.165  1.00  0.00     0.069 C 
HETATM   11  N   UNL     1      44.094 -17.874   5.574  1.00  0.00    -0.358 N 
HETATM   12  H   UNL     1      44.422 -18.146   6.492  1.00  0.00     0.166 HD
HETATM   13  C   UNL     1      43.910 -18.755   4.542  1.00  0.00     0.043 A 
HETATM   14  C   UNL     1      43.464 -18.015   3.450  1.00  0.00     0.008 A 
HETATM   15  C   UNL     1      44.106 -20.141   4.498  1.00  0.00     0.030 A 
HETATM   16  C   UNL     1      43.198 -18.708   2.248  1.00  0.00     0.015 A 
HETATM   17  C   UNL     1      43.389 -20.093   2.182  1.00  0.00     0.001 A 
HETATM   18  C   UNL     1      43.837 -20.798   3.293  1.00  0.00     0.002 A 
ENDBRANCH   5   8
ENDBRANCH   1   4
BRANCH   1  19
HETATM   19  N   UNL     1      41.564 -12.895   1.769  1.00  0.00    -0.202 NA
HETATM   20  H   UNL     1      41.014 -12.360   1.082  1.00  0.00     0.141 HD
BRANCH  19  21
HETATM   21  C   UNL     1      41.735 -12.065   2.990  1.00  0.00     0.110 C 
BRANCH  21  22
HETATM   22  C   UNL     1      43.182 -11.636   3.226  1.00  0.00     0.054 C 
BRANCH  22  23
HETATM   23  C   UNL     1      43.402 -11.322   4.688  1.00  0.00    -0.054 A 
HETATM   24  C   UNL     1      42.372 -10.732   5.439  1.00  0.00     0.046 A 
HETATM   25  C   UNL     1      42.575 -10.366   6.775  1.00  0.00     0.102 A 
HETATM   26  C   UNL     1      43.832 -10.586   7.368  1.00  0.00     0.101 A 
HETATM   27  C   UNL     1      44.852 -11.191   6.626  1.00  0.00     0.040 A 
HETATM   28  C   UNL     1      44.640 -11.552   5.292  1.00  0.00     0.010 A 
BRANCH  25  29
HETATM   29  O   UNL     1      41.626  -9.773   7.570  1.00  0.00    -0.353 OA
HETATM   30  C   UNL     1      40.316  -9.631   7.037  1.00  0.00     0.210 C 
ENDBRANCH  25  29
BRANCH  26  31
HETATM   31  O   UNL     1      43.962 -10.197   8.679  1.00  0.00    -0.353 OA
HETATM   32  C   UNL     1      45.261 -10.274   9.249  1.00  0.00     0.210 C 
ENDBRANCH  26  31
ENDBRANCH  22  23
ENDBRANCH  21  22
ENDBRANCH  19  21
ENDBRANCH   1  19
TORSDOF 8
ENDMDL
MODEL 3
REMARK VINA RESULT:      -8.0      3.584      6.687
REMARK  8 active torsions:
REMARK  status: ('A' for Active; 'I' for Inactive)
REMARK    1  A    between atoms: C_7  and  C_8 
REMARK       I    between atoms: C_8  and  N_9 
REMARK    2  A    between atoms: N_9  and  S_10 
REMARK    3  A    between atoms: S_10  and  N_11 
REMARK    4  A    between atoms: N_11  and  C_12 
REMARK    5  A    between atoms: C_12  and  C_13 
REMARK    6  A    between atoms: C_13  and  C_14 
REMARK    7  A    between atoms: C_16  and  O_17 
REMARK    8  A    between atoms: C_19  and  O_20 
ROOT
HETATM    1  S   UNL     1      40.630 -13.766   5.214  1.00  0.00     0.303 S 
HETATM    2  O   UNL     1      39.701 -13.630   6.308  1.00  0.00    -0.188 OA
HETATM    3  O   UNL     1      41.344 -12.624   4.694  1.00  0.00    -0.188 OA
ENDROOT
BRANCH   1   4
HETATM    4  N   UNL     1      41.771 -14.870   5.660  1.00  0.00    -0.237 N 
HETATM    5  C   UNL     1      42.670 -15.404   4.728  1.00  0.00     0.268 C 
HETATM    6  O   UNL     1      42.973 -14.782   3.716  1.00  0.00    -0.267 OA
HETATM    7  H   UNL     1      41.380 -15.505   6.341  1.00  0.00     0.183 HD
BRANCH   5   8
HETATM    8  C   UNL     1      43.195 -16.741   5.023  1.00  0.00     0.067 A 
HETATM    9  C   UNL     1      43.706 -17.257   6.218  1.00  0.00     0.022 A 
HETATM   10  C   UNL     1      43.941 -16.676   7.568  1.00  0.00     0.069 C 
HETATM   11  N   UNL     1      44.052 -18.570   5.989  1.00  0.00    -0.358 N 
HETATM   12  H   UNL     1      44.446 -19.197   6.679  1.00  0.00     0.166 HD
HETATM   13  C   UNL     1      43.817 -18.925   4.687  1.00  0.00     0.043 A 
HETATM   14  C   UNL     1      43.284 -17.808   4.050  1.00  0.00     0.008 A 
HETATM   15  C   UNL     1      44.039 -20.144   4.033  1.00  0.00     0.030 A 
HETATM   16  C   UNL     1      42.951 -17.924   2.682  1.00  0.00     0.015 A 
HETATM   17  C   UNL     1      43.167 -19.132   2.009  1.00  0.00     0.001 A 
HETATM   18  C   UNL     1      43.704 -20.226   2.679  1.00  0.00     0.002 A 
ENDBRANCH   5   8
ENDBRANCH   1   4
BRANCH   1  19
HETATM   19  N   UNL     1      39.858 -14.548   3.948  1.00  0.00    -0.202 NA
HETATM   20  H   UNL     1      38.888 -14.719   4.252  1.00  0.00     0.141 HD
BRANCH  19  21
HETATM   21  C   UNL     1      39.827 -13.800   2.663  1.00  0.00     0.110 C 
BRANCH  21  22
HETATM   22  C   UNL     1      40.180 -14.667   1.457  1.00  0.00     0.054 C 
BRANCH  22  23
HETATM   23  C   UNL     1      40.291 -13.812   0.215  1.00  0.00    -0.054 A 
HETATM   24  C   UNL     1      39.813 -14.298  -1.013  1.00  0.00     0.046 A 
HETATM   25  C   UNL     1      39.969 -13.556  -2.190  1.00  0.00     0.102 A 
HETATM   26  C   UNL     1      40.622 -12.310  -2.140  1.00  0.00     0.101 A 
HETATM   27  C   UNL     1      41.082 -11.818  -0.914  1.00  0.00     0.040 A 
HETATM   28  C   UNL     1      40.922 -12.567   0.256  1.00  0.00     0.010 A 
BRANCH  25  29
HETATM   29  O   UNL     1      39.543 -13.967  -3.429  1.00  0.00    -0.353 OA
HETATM   30  C   UNL     1      38.253 -14.557  -3.520  1.00  0.00     0.210 C 
ENDBRANCH  25  29
BRANCH  26  31
HETATM   31  O   UNL     1      40.746 -11.640  -3.332  1.00  0.00    -0.353 OA
HETATM   32  C   UNL     1      40.036 -10.417  -3.462  1.00  0.00     0.210 C 
ENDBRANCH  26  31
ENDBRANCH  22  23
ENDBRANCH  21  22
ENDBRANCH  19  21
ENDBRANCH   1  19
TORSDOF 8
ENDMDL
MODEL 4
REMARK VINA RESULT:      -7.7      2.746      8.036
REMARK  8 active torsions:
REMARK  status: ('A' for Active; 'I' for Inactive)
REMARK    1  A    between atoms: C_7  and  C_8 
REMARK       I    between atoms: C_8  and  N_9 
REMARK    2  A    between atoms: N_9  and  S_10 
REMARK    3  A    between atoms: S_10  and  N_11 
REMARK    4  A    between atoms: N_11  and  C_12 
REMARK    5  A    between atoms: C_12  and  C_13 
REMARK    6  A    between atoms: C_13  and  C_14 
REMARK    7  A    between atoms: C_16  and  O_17 
REMARK    8  A    between atoms: C_19  and  O_20 
ROOT
HETATM    1  S   UNL     1      40.072 -11.872   5.738  1.00  0.00     0.303 S 
HETATM    2  O   UNL     1      39.583 -13.139   6.216  1.00  0.00    -0.188 OA
HETATM    3  O   UNL     1      39.167 -10.801   5.394  1.00  0.00    -0.188 OA
ENDROOT
BRANCH   1   4
HETATM    4  N   UNL     1      41.101 -11.268   6.878  1.00  0.00    -0.237 N 
HETATM    5  C   UNL     1      42.161 -10.424   6.527  1.00  0.00     0.268 C 
HETATM    6  O   UNL     1      42.112  -9.736   5.513  1.00  0.00    -0.267 OA
HETATM    7  H   UNL     1      41.283 -11.974   7.577  1.00  0.00     0.183 HD
BRANCH   5   8
HETATM    8  C   UNL     1      43.324 -10.435   7.421  1.00  0.00     0.067 A 
HETATM    9  C   UNL     1      44.603 -10.961   7.217  1.00  0.00     0.022 A 
HETATM   10  C   UNL     1      45.237 -11.708   6.096  1.00  0.00     0.069 C 
HETATM   11  N   UNL     1      45.344 -10.702   8.348  1.00  0.00    -0.358 N 
HETATM   12  H   UNL     1      46.312 -10.966   8.482  1.00  0.00     0.166 HD
HETATM   13  C   UNL     1      44.595 -10.056   9.295  1.00  0.00     0.043 A 
HETATM   14  C   UNL     1      43.326  -9.873   8.754  1.00  0.00     0.008 A 
HETATM   15  C   UNL     1      44.948  -9.625  10.580  1.00  0.00     0.030 A 
HETATM   16  C   UNL     1      42.358  -9.218   9.548  1.00  0.00     0.015 A 
HETATM   17  C   UNL     1      42.688  -8.782  10.836  1.00  0.00     0.001 A 
HETATM   18  C   UNL     1      43.967  -8.985  11.343  1.00  0.00     0.002 A 
ENDBRANCH   5   8
ENDBRANCH   1   4
BRANCH   1  19
HETATM   19  N   UNL     1      41.104 -12.148   4.445  1.00  0.00    -0.202 NA
HETATM   20  H   UNL     1      42.007 -11.714   4.688  1.00  0.00     0.141 HD
BRANCH  19  21
HETATM   21  C   UNL     1      41.340 -13.578   4.115  1.00  0.00     0.110 C 
BRANCH  21  22
HETATM   22  C   UNL     1      42.749 -13.849   3.594  1.00  0.00     0.054 C 
BRANCH  22  23
HETATM   23  C   UNL     1      42.981 -15.337   3.464  1.00  0.00    -0.054 A 
HETATM   24  C   UNL     1      43.189 -16.115   4.615  1.00  0.00     0.046 A 
HETATM   25  C   UNL     1      43.477 -17.481   4.516  1.00  0.00     0.102 A 
HETATM   26  C   UNL     1      43.567 -18.079   3.245  1.00  0.00     0.101 A 
HETATM   27  C   UNL     1      43.341 -17.308   2.100  1.00  0.00     0.040 A 
HETATM   28  C   UNL     1      43.055 -15.944   2.208  1.00  0.00     0.010 A 
BRANCH  25  29
HETATM   29  O   UNL     1      43.707 -18.305   5.590  1.00  0.00    -0.353 OA
HETATM   30  C   UNL     1      43.435 -17.789   6.886  1.00  0.00     0.210 C 
ENDBRANCH  25  29
BRANCH  26  31
HETATM   31  O   UNL     1      43.859 -19.421   3.223  1.00  0.00    -0.353 OA
HETATM   32  C   UNL     1      43.403 -20.163   2.101  1.00  0.00     0.210 C 
ENDBRANCH  26  31
ENDBRANCH  22  23
ENDBRANCH  21  22
ENDBRANCH  19  21
ENDBRANCH   1  19
TORSDOF 8
ENDMDL
MODEL 5
REMARK VINA RESULT:      -7.7      3.545      7.424
REMARK  8 active torsions:
REMARK  status: ('A' for Active; 'I' for Inactive)
REMARK    1  A    between atoms: C_7  and  C_8 
REMARK       I    between atoms: C_8  and  N_9 
REMARK    2  A    between atoms: N_9  and  S_10 
REMARK    3  A    between atoms: S_10  and  N_11 
REMARK    4  A    between atoms: N_11  and  C_12 
REMARK    5  A    between atoms: C_12  and  C_13 
REMARK    6  A    between atoms: C_13  and  C_14 
REMARK    7  A    between atoms: C_16  and  O_17 
REMARK    8  A    between atoms: C_19  and  O_20 
ROOT
HETATM    1  S   UNL     1      42.837 -11.259   3.715  1.00  0.00     0.303 S 
HETATM    2  O   UNL     1      44.275 -11.228   3.801  1.00  0.00    -0.188 OA
HETATM    3  O   UNL     1      42.015 -10.536   4.657  1.00  0.00    -0.188 OA
ENDROOT
BRANCH   1   4
HETATM    4  N   UNL     1      42.413 -10.723   2.214  1.00  0.00    -0.237 N 
HETATM    5  C   UNL     1      41.185 -11.070   1.638  1.00  0.00     0.268 C 
HETATM    6  O   UNL     1      40.219 -11.358   2.336  1.00  0.00    -0.267 OA
HETATM    7  H   UNL     1      43.223 -10.725   1.612  1.00  0.00     0.183 HD
BRANCH   5   8
HETATM    8  C   UNL     1      41.138 -11.093   0.171  1.00  0.00     0.067 A 
HETATM    9  C   UNL     1      41.486 -10.100  -0.749  1.00  0.00     0.022 A 
HETATM   10  C   UNL     1      41.973  -8.700  -0.612  1.00  0.00     0.069 C 
HETATM   11  N   UNL     1      41.282 -10.614  -2.011  1.00  0.00    -0.358 N 
HETATM   12  H   UNL     1      41.454 -10.117  -2.875  1.00  0.00     0.166 HD
HETATM   13  C   UNL     1      40.786 -11.889  -1.953  1.00  0.00     0.043 A 
HETATM   14  C   UNL     1      40.680 -12.223  -0.605  1.00  0.00     0.008 A 
HETATM   15  C   UNL     1      40.427 -12.762  -2.988  1.00  0.00     0.030 A 
HETATM   16  C   UNL     1      40.188 -13.508  -0.281  1.00  0.00     0.015 A 
HETATM   17  C   UNL     1      39.821 -14.394  -1.300  1.00  0.00     0.001 A 
HETATM   18  C   UNL     1      39.940 -14.023  -2.635  1.00  0.00     0.002 A 
ENDBRANCH   5   8
ENDBRANCH   1   4
BRANCH   1  19
HETATM   19  N   UNL     1      42.336 -12.859   3.672  1.00  0.00    -0.202 NA
HETATM   20  H   UNL     1      41.388 -12.862   3.268  1.00  0.00     0.141 HD
BRANCH  19  21
HETATM   21  C   UNL     1      43.195 -13.771   2.871  1.00  0.00     0.110 C 
BRANCH  21  22
HETATM   22  C   UNL     1      42.427 -14.952   2.280  1.00  0.00     0.054 C 
BRANCH  22  23
HETATM   23  C   UNL     1      42.897 -16.245   2.905  1.00  0.00    -0.054 A 
HETATM   24  C   UNL     1      43.287 -16.269   4.255  1.00  0.00     0.046 A 
HETATM   25  C   UNL     1      43.794 -17.436   4.836  1.00  0.00     0.102 A 
HETATM   26  C   UNL     1      43.922 -18.600   4.053  1.00  0.00     0.101 A 
HETATM   27  C   UNL     1      43.516 -18.581   2.715  1.00  0.00     0.040 A 
HETATM   28  C   UNL     1      43.012 -17.410   2.143  1.00  0.00     0.010 A 
BRANCH  25  29
HETATM   29  O   UNL     1      44.209 -17.536   6.141  1.00  0.00    -0.353 OA
HETATM   30  C   UNL     1      43.640 -16.638   7.084  1.00  0.00     0.210 C 
ENDBRANCH  25  29
BRANCH  26  31
HETATM   31  O   UNL     1      44.433 -19.706   4.687  1.00  0.00    -0.353 OA
HETATM   32  C   UNL     1      43.962 -20.973   4.253  1.00  0.00     0.210 C 
ENDBRANCH  26  31
ENDBRANCH  22  23
ENDBRANCH  21  22
ENDBRANCH  19  21
ENDBRANCH   1  19
TORSDOF 8
ENDMDL
MODEL 6
REMARK VINA RESULT:      -7.7      2.888      4.608
REMARK  8 active torsions:
REMARK  status: ('A' for Active; 'I' for Inactive)
REMARK    1  A    between atoms: C_7  and  C_8 
REMARK       I    between atoms: C_8  and  N_9 
REMARK    2  A    between atoms: N_9  and  S_10 
REMARK    3  A    between atoms: S_10  and  N_11 
REMARK    4  A    between atoms: N_11  and  C_12 
REMARK    5  A    between atoms: C_12  and  C_13 
REMARK    6  A    between atoms: C_13  and  C_14 
REMARK    7  A    between atoms: C_16  and  O_17 
REMARK    8  A    between atoms: C_19  and  O_20 
ROOT
HETATM    1  S   UNL     1      43.978 -11.605   6.756  1.00  0.00     0.303 S 
HETATM    2  O   UNL     1      43.028 -10.618   6.308  1.00  0.00    -0.188 OA
HETATM    3  O   UNL     1      43.947 -12.114   8.106  1.00  0.00    -0.188 OA
ENDROOT
BRANCH   1   4
HETATM    4  N   UNL     1      43.851 -12.912   5.758  1.00  0.00    -0.237 N 
HETATM    5  C   UNL     1      42.836 -13.861   5.927  1.00  0.00     0.268 C 
HETATM    6  O   UNL     1      41.774 -13.561   6.463  1.00  0.00    -0.267 OA
HETATM    7  H   UNL     1      44.773 -13.256   5.533  1.00  0.00     0.183 HD
BRANCH   5   8
HETATM    8  C   UNL     1      43.129 -15.219   5.456  1.00  0.00     0.067 A 
HETATM    9  C   UNL     1      43.492 -16.358   6.181  1.00  0.00     0.022 A 
HETATM   10  C   UNL     1      43.746 -16.616   7.624  1.00  0.00     0.069 C 
HETATM   11  N   UNL     1      43.638 -17.392   5.284  1.00  0.00    -0.358 N 
HETATM   12  H   UNL     1      43.894 -18.341   5.526  1.00  0.00     0.166 HD
HETATM   13  C   UNL     1      43.417 -16.970   4.000  1.00  0.00     0.043 A 
HETATM   14  C   UNL     1      43.099 -15.616   4.066  1.00  0.00     0.008 A 
HETATM   15  C   UNL     1      43.477 -17.683   2.796  1.00  0.00     0.030 A 
HETATM   16  C   UNL     1      42.822 -14.944   2.854  1.00  0.00     0.015 A 
HETATM   17  C   UNL     1      42.880 -15.637   1.640  1.00  0.00     0.001 A 
HETATM   18  C   UNL     1      43.203 -16.989   1.614  1.00  0.00     0.002 A 
ENDBRANCH   5   8
ENDBRANCH   1   4
BRANCH   1  19
HETATM   19  N   UNL     1      45.525 -11.053   6.418  1.00  0.00    -0.202 NA
HETATM   20  H   UNL     1      45.418 -10.204   5.843  1.00  0.00     0.141 HD
BRANCH  19  21
HETATM   21  C   UNL     1      46.354 -10.718   7.606  1.00  0.00     0.110 C 
BRANCH  21  22
HETATM   22  C   UNL     1      46.317  -9.234   7.963  1.00  0.00     0.054 C 
BRANCH  22  23
HETATM   23  C   UNL     1      45.258  -8.975   9.011  1.00  0.00    -0.054 A 
HETATM   24  C   UNL     1      44.293  -7.978   8.798  1.00  0.00     0.046 A 
HETATM   25  C   UNL     1      43.347  -7.671   9.783  1.00  0.00     0.102 A 
HETATM   26  C   UNL     1      43.371  -8.367  11.006  1.00  0.00     0.101 A 
HETATM   27  C   UNL     1      44.321  -9.373  11.211  1.00  0.00     0.040 A 
HETATM   28  C   UNL     1      45.262  -9.672  10.221  1.00  0.00     0.010 A 
BRANCH  25  29
HETATM   29  O   UNL     1      42.382  -6.702   9.657  1.00  0.00    -0.353 OA
HETATM   30  C   UNL     1      42.105  -6.213   8.351  1.00  0.00     0.210 C 
ENDBRANCH  25  29
BRANCH  26  31
HETATM   31  O   UNL     1      42.419  -8.010  11.928  1.00  0.00    -0.353 OA
HETATM   32  C   UNL     1      42.840  -7.893  13.279  1.00  0.00     0.210 C 
ENDBRANCH  26  31
ENDBRANCH  22  23
ENDBRANCH  21  22
ENDBRANCH  19  21
ENDBRANCH   1  19
TORSDOF 8
ENDMDL
MODEL 7
REMARK VINA RESULT:      -7.7      3.107      6.303
REMARK  8 active torsions:
REMARK  status: ('A' for Active; 'I' for Inactive)
REMARK    1  A    between atoms: C_7  and  C_8 
REMARK       I    between atoms: C_8  and  N_9 
REMARK    2  A    between atoms: N_9  and  S_10 
REMARK    3  A    between atoms: S_10  and  N_11 
REMARK    4  A    between atoms: N_11  and  C_12 
REMARK    5  A    between atoms: C_12  and  C_13 
REMARK    6  A    between atoms: C_13  and  C_14 
REMARK    7  A    between atoms: C_16  and  O_17 
REMARK    8  A    between atoms: C_19  and  O_20 
ROOT
HETATM    1  S   UNL     1      42.879 -11.920   5.000  1.00  0.00     0.303 S 
HETATM    2  O   UNL     1      42.169 -11.783   6.247  1.00  0.00    -0.188 OA
HETATM    3  O   UNL     1      44.062 -11.140   4.723  1.00  0.00    -0.188 OA
ENDROOT
BRANCH   1   4
HETATM    4  N   UNL     1      43.313 -13.503   4.842  1.00  0.00    -0.237 N 
HETATM    5  C   UNL     1      42.364 -14.530   4.928  1.00  0.00     0.268 C 
HETATM    6  O   UNL     1      41.186 -14.325   4.656  1.00  0.00    -0.267 OA
HETATM    7  H   UNL     1      44.203 -13.657   5.292  1.00  0.00     0.183 HD
BRANCH   5   8
HETATM    8  C   UNL     1      42.858 -15.835   5.382  1.00  0.00     0.067 A 
HETATM    9  C   UNL     1      43.110 -16.293   6.678  1.00  0.00     0.022 A 
HETATM   10  C   UNL     1      43.021 -15.663   8.023  1.00  0.00     0.069 C 
HETATM   11  N   UNL     1      43.543 -17.597   6.581  1.00  0.00    -0.358 N 
HETATM   12  H   UNL     1      43.797 -18.185   7.364  1.00  0.00     0.166 HD
HETATM   13  C   UNL     1      43.613 -18.000   5.274  1.00  0.00     0.043 A 
HETATM   14  C   UNL     1      43.195 -16.925   4.494  1.00  0.00     0.008 A 
HETATM   15  C   UNL     1      44.015 -19.227   4.732  1.00  0.00     0.030 A 
HETATM   16  C   UNL     1      43.177 -17.096   3.091  1.00  0.00     0.015 A 
HETATM   17  C   UNL     1      43.577 -18.314   2.529  1.00  0.00     0.001 A 
HETATM   18  C   UNL     1      43.990 -19.364   3.341  1.00  0.00     0.002 A 
ENDBRANCH   5   8
ENDBRANCH   1   4
BRANCH   1  19
HETATM   19  N   UNL     1      41.791 -11.726   3.739  1.00  0.00    -0.202 NA
HETATM   20  H   UNL     1      41.259 -10.865   3.936  1.00  0.00     0.141 HD
BRANCH  19  21
HETATM   21  C   UNL     1      42.400 -11.608   2.387  1.00  0.00     0.110 C 
BRANCH  21  22
HETATM   22  C   UNL     1      41.511 -10.864   1.393  1.00  0.00     0.054 C 
BRANCH  22  23
HETATM   23  C   UNL     1      40.959 -11.825   0.366  1.00  0.00    -0.054 A 
HETATM   24  C   UNL     1      40.586 -13.123   0.752  1.00  0.00     0.046 A 
HETATM   25  C   UNL     1      40.140 -14.055  -0.193  1.00  0.00     0.102 A 
HETATM   26  C   UNL     1      40.074 -13.685  -1.550  1.00  0.00     0.101 A 
HETATM   27  C   UNL     1      40.428 -12.387  -1.932  1.00  0.00     0.040 A 
HETATM   28  C   UNL     1      40.873 -11.465  -0.981  1.00  0.00     0.010 A 
BRANCH  25  29
HETATM   29  O   UNL     1      39.771 -15.344   0.102  1.00  0.00    -0.353 OA
HETATM   30  C   UNL     1      39.914 -15.778   1.448  1.00  0.00     0.210 C 
ENDBRANCH  25  29
BRANCH  26  31
HETATM   31  O   UNL     1      39.635 -14.651  -2.422  1.00  0.00    -0.353 OA
HETATM   32  C   UNL     1      38.491 -14.340  -3.206  1.00  0.00     0.210 C 
ENDBRANCH  26  31
ENDBRANCH  22  23
ENDBRANCH  21  22
ENDBRANCH  19  21
ENDBRANCH   1  19
TORSDOF 8
ENDMDL
MODEL 8
REMARK VINA RESULT:      -7.6      1.625      2.141
REMARK  8 active torsions:
REMARK  status: ('A' for Active; 'I' for Inactive)
REMARK    1  A    between atoms: C_7  and  C_8 
REMARK       I    between atoms: C_8  and  N_9 
REMARK    2  A    between atoms: N_9  and  S_10 
REMARK    3  A    between atoms: S_10  and  N_11 
REMARK    4  A    between atoms: N_11  and  C_12 
REMARK    5  A    between atoms: C_12  and  C_13 
REMARK    6  A    between atoms: C_13  and  C_14 
REMARK    7  A    between atoms: C_16  and  O_17 
REMARK    8  A    between atoms: C_19  and  O_20 
ROOT
HETATM    1  S   UNL     1      42.272 -12.453   2.583  1.00  0.00     0.303 S 
HETATM    2  O   UNL     1      43.244 -11.438   2.901  1.00  0.00    -0.188 OA
HETATM    3  O   UNL     1      41.657 -12.517   1.278  1.00  0.00    -0.188 OA
ENDROOT
BRANCH   1   4
HETATM    4  N   UNL     1      42.978 -13.921   2.842  1.00  0.00    -0.237 N 
HETATM    5  C   UNL     1      42.221 -15.034   3.226  1.00  0.00     0.268 C 
HETATM    6  O   UNL     1      41.031 -15.117   2.943  1.00  0.00    -0.267 OA
HETATM    7  H   UNL     1      43.872 -13.792   3.292  1.00  0.00     0.183 HD
BRANCH   5   8
HETATM    8  C   UNL     1      42.924 -16.064   3.999  1.00  0.00     0.067 A 
HETATM    9  C   UNL     1      43.496 -15.991   5.273  1.00  0.00     0.022 A 
HETATM   10  C   UNL     1      43.643 -14.895   6.269  1.00  0.00     0.069 C 
HETATM   11  N   UNL     1      44.020 -17.230   5.564  1.00  0.00    -0.358 N 
HETATM   12  H   UNL     1      44.494 -17.473   6.425  1.00  0.00     0.166 HD
HETATM   13  C   UNL     1      43.843 -18.102   4.523  1.00  0.00     0.043 A 
HETATM   14  C   UNL     1      43.163 -17.409   3.525  1.00  0.00     0.008 A 
HETATM   15  C   UNL     1      44.233 -19.441   4.395  1.00  0.00     0.030 A 
HETATM   16  C   UNL     1      42.856 -18.103   2.332  1.00  0.00     0.015 A 
HETATM   17  C   UNL     1      43.239 -19.441   2.183  1.00  0.00     0.001 A 
HETATM   18  C   UNL     1      43.918 -20.098   3.202  1.00  0.00     0.002 A 
ENDBRANCH   5   8
ENDBRANCH   1   4
BRANCH   1  19
HETATM   19  N   UNL     1      41.069 -12.430   3.751  1.00  0.00    -0.202 NA
HETATM   20  H   UNL     1      40.619 -13.357   3.731  1.00  0.00     0.141 HD
BRANCH  19  21
HETATM   21  C   UNL     1      41.534 -12.158   5.137  1.00  0.00     0.110 C 
BRANCH  21  22
HETATM   22  C   UNL     1      41.083 -10.798   5.664  1.00  0.00     0.054 C 
BRANCH  22  23
HETATM   23  C   UNL     1      41.941 -10.383   6.837  1.00  0.00    -0.054 A 
HETATM   24  C   UNL     1      43.218 -10.945   7.004  1.00  0.00     0.046 A 
HETATM   25  C   UNL     1      44.002 -10.631   8.120  1.00  0.00     0.102 A 
HETATM   26  C   UNL     1      43.498  -9.746   9.092  1.00  0.00     0.101 A 
HETATM   27  C   UNL     1      42.234  -9.172   8.917  1.00  0.00     0.040 A 
HETATM   28  C   UNL     1      41.459  -9.493   7.799  1.00  0.00     0.010 A 
BRANCH  25  29
HETATM   29  O   UNL     1      45.251 -11.148   8.361  1.00  0.00    -0.353 OA
HETATM   30  C   UNL     1      46.300 -10.775   7.478  1.00  0.00     0.210 C 
ENDBRANCH  25  29
BRANCH  26  31
HETATM   31  O   UNL     1      44.318  -9.489  10.163  1.00  0.00    -0.353 OA
HETATM   32  C   UNL     1      43.730  -8.848  11.286  1.00  0.00     0.210 C 
ENDBRANCH  26  31
ENDBRANCH  22  23
ENDBRANCH  21  22
ENDBRANCH  19  21
ENDBRANCH   1  19
TORSDOF 8
ENDMDL
MODEL 9
REMARK VINA RESULT:      -7.5      3.460      6.501
REMARK  8 active torsions:
REMARK  status: ('A' for Active; 'I' for Inactive)
REMARK    1  A    between atoms: C_7  and  C_8 
REMARK       I    between atoms: C_8  and  N_9 
REMARK    2  A    between atoms: N_9  and  S_10 
REMARK    3  A    between atoms: S_10  and  N_11 
REMARK    4  A    between atoms: N_11  and  C_12 
REMARK    5  A    between atoms: C_12  and  C_13 
REMARK    6  A    between atoms: C_13  and  C_14 
REMARK    7  A    between atoms: C_16  and  O_17 
REMARK    8  A    between atoms: C_19  and  O_20 
ROOT
HETATM    1  S   UNL     1      42.748 -11.982   4.874  1.00  0.00     0.303 S 
HETATM    2  O   UNL     1      42.172 -11.801   6.183  1.00  0.00    -0.188 OA
HETATM    3  O   UNL     1      43.887 -11.206   4.444  1.00  0.00    -0.188 OA
ENDROOT
BRANCH   1   4
HETATM    4  N   UNL     1      43.178 -13.568   4.730  1.00  0.00    -0.237 N 
HETATM    5  C   UNL     1      42.256 -14.595   4.961  1.00  0.00     0.268 C 
HETATM    6  O   UNL     1      41.053 -14.409   4.815  1.00  0.00    -0.267 OA
HETATM    7  H   UNL     1      44.114 -13.698   5.084  1.00  0.00     0.183 HD
BRANCH   5   8
HETATM    8  C   UNL     1      42.810 -15.879   5.407  1.00  0.00     0.067 A 
HETATM    9  C   UNL     1      43.119 -16.318   6.698  1.00  0.00     0.022 A 
HETATM   10  C   UNL     1      43.048 -15.682   8.042  1.00  0.00     0.069 C 
HETATM   11  N   UNL     1      43.595 -17.606   6.595  1.00  0.00    -0.358 N 
HETATM   12  H   UNL     1      43.895 -18.179   7.374  1.00  0.00     0.166 HD
HETATM   13  C   UNL     1      43.640 -18.015   5.289  1.00  0.00     0.043 A 
HETATM   14  C   UNL     1      43.160 -16.962   4.516  1.00  0.00     0.008 A 
HETATM   15  C   UNL     1      44.070 -19.231   4.743  1.00  0.00     0.030 A 
HETATM   16  C   UNL     1      43.105 -17.143   3.115  1.00  0.00     0.015 A 
HETATM   17  C   UNL     1      43.532 -18.350   2.549  1.00  0.00     0.001 A 
HETATM   18  C   UNL     1      44.007 -19.378   3.354  1.00  0.00     0.002 A 
ENDBRANCH   5   8
ENDBRANCH   1   4
BRANCH   1  19
HETATM   19  N   UNL     1      41.531 -11.842   3.728  1.00  0.00    -0.202 NA
HETATM   20  H   UNL     1      41.012 -10.980   3.951  1.00  0.00     0.141 HD
BRANCH  19  21
HETATM   21  C   UNL     1      41.994 -11.765   2.317  1.00  0.00     0.110 C 
BRANCH  21  22
HETATM   22  C   UNL     1      42.201 -13.136   1.679  1.00  0.00     0.054 C 
BRANCH  22  23
HETATM   23  C   UNL     1      41.163 -13.374   0.605  1.00  0.00    -0.054 A 
HETATM   24  C   UNL     1      40.679 -12.293  -0.151  1.00  0.00     0.046 A 
HETATM   25  C   UNL     1      39.667 -12.476  -1.100  1.00  0.00     0.102 A 
HETATM   26  C   UNL     1      39.123 -13.760  -1.292  1.00  0.00     0.101 A 
HETATM   27  C   UNL     1      39.618 -14.839  -0.552  1.00  0.00     0.040 A 
HETATM   28  C   UNL     1      40.629 -14.646   0.394  1.00  0.00     0.010 A 
BRANCH  25  29
HETATM   29  O   UNL     1      39.132 -11.471  -1.867  1.00  0.00    -0.353 OA
HETATM   30  C   UNL     1      39.899 -11.003  -2.969  1.00  0.00     0.210 C 
ENDBRANCH  25  29
BRANCH  26  31
HETATM   31  O   UNL     1      38.130 -13.865  -2.234  1.00  0.00    -0.353 OA
HETATM   32  C   UNL     1      38.395 -14.683  -3.364  1.00  0.00     0.210 C 
ENDBRANCH  26  31
ENDBRANCH  22  23
ENDBRANCH  21  22
ENDBRANCH  19  21
ENDBRANCH   1  19
TORSDOF 8
ENDMDL
MODEL 10
REMARK VINA RESULT:      -7.4      4.074      6.732
REMARK  8 active torsions:
REMARK  status: ('A' for Active; 'I' for Inactive)
REMARK    1  A    between atoms: C_7  and  C_8 
REMARK       I    between atoms: C_8  and  N_9 
REMARK    2  A    between atoms: N_9  and  S_10 
REMARK    3  A    between atoms: S_10  and  N_11 
REMARK    4  A    between atoms: N_11  and  C_12 
REMARK    5  A    between atoms: C_12  and  C_13 
REMARK    6  A    between atoms: C_13  and  C_14 
REMARK    7  A    between atoms: C_16  and  O_17 
REMARK    8  A    between atoms: C_19  and  O_20 
ROOT
HETATM    1  S   UNL     1      40.810 -13.912   2.566  1.00  0.00     0.303 S 
HETATM    2  O   UNL     1      39.561 -13.713   3.255  1.00  0.00    -0.188 OA
HETATM    3  O   UNL     1      41.558 -12.797   2.035  1.00  0.00    -0.188 OA
ENDROOT
BRANCH   1   4
HETATM    4  N   UNL     1      41.825 -14.714   3.589  1.00  0.00    -0.237 N 
HETATM    5  C   UNL     1      42.925 -15.434   3.106  1.00  0.00     0.268 C 
HETATM    6  O   UNL     1      43.452 -15.141   2.039  1.00  0.00    -0.267 OA
HETATM    7  H   UNL     1      41.291 -15.131   4.337  1.00  0.00     0.183 HD
BRANCH   5   8
HETATM    8  C   UNL     1      43.380 -16.558   3.933  1.00  0.00     0.067 A 
HETATM    9  C   UNL     1      43.836 -16.568   5.254  1.00  0.00     0.022 A 
HETATM   10  C   UNL     1      44.063 -15.502   6.269  1.00  0.00     0.069 C 
HETATM   11  N   UNL     1      44.126 -17.873   5.583  1.00  0.00    -0.358 N 
HETATM   12  H   UNL     1      44.474 -18.183   6.482  1.00  0.00     0.166 HD
HETATM   13  C   UNL     1      43.909 -18.712   4.523  1.00  0.00     0.043 A 
HETATM   14  C   UNL     1      43.444 -17.926   3.472  1.00  0.00     0.008 A 
HETATM   15  C   UNL     1      44.090 -20.097   4.420  1.00  0.00     0.030 A 
HETATM   16  C   UNL     1      43.142 -18.570   2.250  1.00  0.00     0.015 A 
HETATM   17  C   UNL     1      43.318 -19.953   2.126  1.00  0.00     0.001 A 
HETATM   18  C   UNL     1      43.786 -20.704   3.199  1.00  0.00     0.002 A 
ENDBRANCH   5   8
ENDBRANCH   1   4
BRANCH   1  19
HETATM   19  N   UNL     1      40.577 -15.040   1.346  1.00  0.00    -0.202 NA
HETATM   20  H   UNL     1      39.619 -15.403   1.459  1.00  0.00     0.141 HD
BRANCH  19  21
HETATM   21  C   UNL     1      40.727 -14.519  -0.038  1.00  0.00     0.110 C 
BRANCH  21  22
HETATM   22  C   UNL     1      39.461 -14.675  -0.877  1.00  0.00     0.054 C 
BRANCH  22  23
HETATM   23  C   UNL     1      39.047 -13.339  -1.451  1.00  0.00    -0.054 A 
HETATM   24  C   UNL     1      39.860 -12.210  -1.252  1.00  0.00     0.046 A 
HETATM   25  C   UNL     1      39.463 -10.949  -1.711  1.00  0.00     0.102 A 
HETATM   26  C   UNL     1      38.229 -10.811  -2.374  1.00  0.00     0.101 A 
HETATM   27  C   UNL     1      37.428 -11.938  -2.588  1.00  0.00     0.040 A 
HETATM   28  C   UNL     1      37.833 -13.193  -2.126  1.00  0.00     0.010 A 
BRANCH  25  29
HETATM   29  O   UNL     1      40.193  -9.798  -1.544  1.00  0.00    -0.353 OA
HETATM   30  C   UNL     1      41.563  -9.932  -1.190  1.00  0.00     0.210 C 
ENDBRANCH  25  29
BRANCH  26  31
HETATM   31  O   UNL     1      37.901  -9.544  -2.791  1.00  0.00    -0.353 OA
HETATM   32  C   UNL     1      38.009  -9.274  -4.181  1.00  0.00     0.210 C 
ENDBRANCH  26  31
ENDBRANCH  22  23
ENDBRANCH  21  22
ENDBRANCH  19  21
ENDBRANCH   1  19
TORSDOF 8
ENDMDL
