MODEL 1
REMARK VINA RESULT:      -7.9      0.000      0.000
REMARK  5 active torsions:
REMARK  status: ('A' for Active; 'I' for Inactive)
REMARK    1  A    between atoms: C_7  and  O_8 
REMARK    2  A    between atoms: O_8  and  C_9 
REMARK    3  A    between atoms: C_12  and  N_13 
REMARK    4  A    between atoms: N_13  and  C_16 
REMARK    5  A    between atoms: C_16  and  C_17 
ROOT
HETATM    1  C   UNL     1      43.439 -17.554   2.728  1.00  0.00     0.028 A 
HETATM    2  C   UNL     1      43.752 -18.845   3.144  1.00  0.00     0.062 A 
HETATM    3  C   UNL     1      43.694 -19.953   2.245  1.00  0.00     0.101 C 
HETATM    4  N   UNL     1      43.656 -20.867   1.533  1.00  0.00    -0.191 NA
HETATM    5  C   UNL     1      44.127 -19.032   4.470  1.00  0.00     0.142 A 
HETATM    6  N   UNL     1      44.213 -18.037   5.394  1.00  0.00    -0.236 NA
HETATM    7  C   UNL     1      43.903 -16.797   4.951  1.00  0.00     0.164 A 
HETATM    8  C   UNL     1      43.516 -16.512   3.648  1.00  0.00     0.059 A 
ENDROOT
BRANCH   7   9
HETATM    9  O   UNL     1      43.958 -15.713   5.794  1.00  0.00    -0.329 OA
BRANCH   9  10
HETATM   10  C   UNL     1      42.793 -14.934   6.042  1.00  0.00     0.130 C 
HETATM   11  C   UNL     1      41.495 -15.751   6.098  1.00  0.00     0.034 C 
HETATM   12  C   UNL     1      40.305 -14.874   6.487  1.00  0.00     0.035 C 
HETATM   13  C   UNL     1      40.170 -13.615   5.624  1.00  0.00     0.186 C 
HETATM   14  C   UNL     1      41.483 -12.823   5.570  1.00  0.00     0.035 C 
HETATM   15  C   UNL     1      42.686 -13.678   5.167  1.00  0.00     0.034 C 
BRANCH  13  16
HETATM   16  N   UNL     1      39.758 -13.963   4.224  1.00  0.00    -0.067 N 
HETATM   17  H   UNL     1      40.433 -14.638   3.839  1.00  0.00     0.278 HD
HETATM   18  H   UNL     1      38.854 -14.459   4.207  1.00  0.00     0.278 HD
BRANCH  16  19
HETATM   19  C   UNL     1      39.687 -12.817   3.261  1.00  0.00     0.278 C 
BRANCH  19  20
HETATM   20  C   UNL     1      39.738 -13.282   1.842  1.00  0.00     0.009 A 
HETATM   21  S   UNL     1      40.244 -14.878   1.475  1.00  0.00    -0.103 SA
HETATM   22  C   UNL     1      40.022 -14.636  -0.205  1.00  0.00     0.072 A 
HETATM   23  C   UNL     1      39.573 -13.364  -0.489  1.00  0.00     0.052 A 
HETATM   24  C   UNL     1      39.306 -12.904  -1.821  1.00  0.00     0.100 C 
HETATM   25  C   UNL     1      39.412 -12.581   0.696  1.00  0.00     0.039 A 
HETATM   26  N   UNL     1      39.094 -12.510  -2.890  1.00  0.00    -0.191 NA
ENDBRANCH  19  20
ENDBRANCH  16  19
ENDBRANCH  13  16
ENDBRANCH   9  10
ENDBRANCH   7   9
TORSDOF 5
ENDMDL
MODEL 2
REMARK VINA RESULT:      -7.8      4.135      6.773
REMARK  5 active torsions:
REMARK  status: ('A' for Active; 'I' for Inactive)
REMARK    1  A    between atoms: C_7  and  O_8 
REMARK    2  A    between atoms: O_8  and  C_9 
REMARK    3  A    between atoms: C_12  and  N_13 
REMARK    4  A    between atoms: N_13  and  C_16 
REMARK    5  A    between atoms: C_16  and  C_17 
ROOT
HETATM    1  C   UNL     1      42.847 -17.624   2.665  1.00  0.00     0.028 A 
HETATM    2  C   UNL     1      43.599 -18.753   2.976  1.00  0.00     0.062 A 
HETATM    3  C   UNL     1      43.619 -19.895   2.119  1.00  0.00     0.101 C 
HETATM    4  N   UNL     1      43.652 -20.833   1.438  1.00  0.00    -0.191 NA
HETATM    5  C   UNL     1      44.340 -18.741   4.153  1.00  0.00     0.142 A 
HETATM    6  N   UNL     1      44.385 -17.698   5.026  1.00  0.00    -0.236 NA
HETATM    7  C   UNL     1      43.641 -16.619   4.688  1.00  0.00     0.164 A 
HETATM    8  C   UNL     1      42.868 -16.539   3.537  1.00  0.00     0.059 A 
ENDROOT
BRANCH   7   9
HETATM    9  O   UNL     1      43.612 -15.505   5.491  1.00  0.00    -0.329 OA
BRANCH   9  10
HETATM   10  C   UNL     1      42.669 -14.466   5.247  1.00  0.00     0.130 C 
HETATM   11  C   UNL     1      43.305 -13.123   4.863  1.00  0.00     0.034 C 
HETATM   12  C   UNL     1      42.239 -12.091   4.497  1.00  0.00     0.035 C 
HETATM   13  C   UNL     1      41.146 -11.942   5.562  1.00  0.00     0.186 C 
HETATM   14  C   UNL     1      40.538 -13.297   5.941  1.00  0.00     0.035 C 
HETATM   15  C   UNL     1      41.586 -14.342   6.326  1.00  0.00     0.034 C 
BRANCH  13  16
HETATM   16  N   UNL     1      41.687 -11.291   6.801  1.00  0.00    -0.067 N 
HETATM   17  H   UNL     1      40.960 -10.682   7.199  1.00  0.00     0.278 HD
HETATM   18  H   UNL     1      41.879 -11.985   7.540  1.00  0.00     0.278 HD
BRANCH  16  19
HETATM   19  C   UNL     1      42.911 -10.448   6.614  1.00  0.00     0.278 C 
BRANCH  19  20
HETATM   20  C   UNL     1      43.582 -10.149   7.914  1.00  0.00     0.009 A 
HETATM   21  S   UNL     1      45.241 -10.521   8.136  1.00  0.00    -0.103 SA
HETATM   22  C   UNL     1      45.237  -9.907   9.734  1.00  0.00     0.072 A 
HETATM   23  C   UNL     1      43.998  -9.427  10.100  1.00  0.00     0.052 A 
HETATM   24  C   UNL     1      43.725  -8.858  11.387  1.00  0.00     0.100 C 
HETATM   25  C   UNL     1      43.040  -9.570   9.048  1.00  0.00     0.039 A 
HETATM   26  N   UNL     1      43.482  -8.403  12.425  1.00  0.00    -0.191 NA
ENDBRANCH  19  20
ENDBRANCH  16  19
ENDBRANCH  13  16
ENDBRANCH   9  10
ENDBRANCH   7   9
TORSDOF 5
ENDMDL
MODEL 3
REMARK VINA RESULT:      -7.5      3.818      6.069
REMARK  5 active torsions:
REMARK  status: ('A' for Active; 'I' for Inactive)
REMARK    1  A    between atoms: C_7  and  O_8 
REMARK    2  A    between atoms: O_8  and  C_9 
REMARK    3  A    between atoms: C_12  and  N_13 
REMARK    4  A    between atoms: N_13  and  C_16 
REMARK    5  A    between atoms: C_16  and  C_17 
ROOT
HETATM    1  C   UNL     1      43.200 -17.220   2.217  1.00  0.00     0.028 A 
HETATM    2  C   UNL     1      43.468 -18.419   2.872  1.00  0.00     0.062 A 
HETATM    3  C   UNL     1      43.498 -19.662   2.170  1.00  0.00     0.101 C 
HETATM    4  N   UNL     1      43.529 -20.683   1.621  1.00  0.00    -0.191 NA
HETATM    5  C   UNL     1      43.711 -18.375   4.241  1.00  0.00     0.142 A 
HETATM    6  N   UNL     1      43.707 -17.239   4.989  1.00  0.00    -0.236 NA
HETATM    7  C   UNL     1      43.443 -16.095   4.317  1.00  0.00     0.164 A 
HETATM    8  C   UNL     1      43.186 -16.038   2.953  1.00  0.00     0.059 A 
ENDROOT
BRANCH   7   9
HETATM    9  O   UNL     1      43.417 -14.885   4.968  1.00  0.00    -0.329 OA
BRANCH   9  10
HETATM   10  C   UNL     1      42.404 -13.930   4.670  1.00  0.00     0.130 C 
HETATM   11  C   UNL     1      42.810 -12.478   4.959  1.00  0.00     0.034 C 
HETATM   12  C   UNL     1      41.728 -11.500   4.505  1.00  0.00     0.035 C 
HETATM   13  C   UNL     1      40.335 -11.840   5.047  1.00  0.00     0.186 C 
HETATM   14  C   UNL     1      39.958 -13.299   4.762  1.00  0.00     0.035 C 
HETATM   15  C   UNL     1      41.020 -14.297   5.222  1.00  0.00     0.034 C 
BRANCH  13  16
HETATM   16  N   UNL     1      40.261 -11.603   6.527  1.00  0.00    -0.067 N 
HETATM   17  H   UNL     1      39.564 -12.245   6.930  1.00  0.00     0.278 HD
HETATM   18  H   UNL     1      41.146 -11.850   6.995  1.00  0.00     0.278 HD
BRANCH  16  19
HETATM   19  C   UNL     1      39.873 -10.218   6.947  1.00  0.00     0.278 C 
BRANCH  19  20
HETATM   20  C   UNL     1      40.944  -9.566   7.760  1.00  0.00     0.009 A 
HETATM   21  S   UNL     1      40.578  -8.912   9.301  1.00  0.00    -0.103 SA
HETATM   22  C   UNL     1      42.198  -8.416   9.552  1.00  0.00     0.072 A 
HETATM   23  C   UNL     1      43.008  -8.737   8.484  1.00  0.00     0.052 A 
HETATM   24  C   UNL     1      44.408  -8.434   8.441  1.00  0.00     0.100 C 
HETATM   25  C   UNL     1      42.281  -9.400   7.446  1.00  0.00     0.039 A 
HETATM   26  N   UNL     1      45.539  -8.189   8.382  1.00  0.00    -0.191 NA
ENDBRANCH  19  20
ENDBRANCH  16  19
ENDBRANCH  13  16
ENDBRANCH   9  10
ENDBRANCH   7   9
TORSDOF 5
ENDMDL
MODEL 4
REMARK VINA RESULT:      -7.4      2.401      2.820
REMARK  5 active torsions:
REMARK  status: ('A' for Active; 'I' for Inactive)
REMARK    1  A    between atoms: C_7  and  O_8 
REMARK    2  A    between atoms: O_8  and  C_9 
REMARK    3  A    between atoms: C_12  and  N_13 
REMARK    4  A    between atoms: N_13  and  C_16 
REMARK    5  A    between atoms: C_16  and  C_17 
ROOT
HETATM    1  C   UNL     1      43.612 -18.428   2.810  1.00  0.00     0.028 A 
HETATM    2  C   UNL     1      43.868 -18.483   4.177  1.00  0.00     0.062 A 
HETATM    3  C   UNL     1      44.203 -19.711   4.824  1.00  0.00     0.101 C 
HETATM    4  N   UNL     1      44.479 -20.695   5.371  1.00  0.00    -0.191 NA
HETATM    5  C   UNL     1      43.791 -17.300   4.904  1.00  0.00     0.142 A 
HETATM    6  N   UNL     1      43.483 -16.086   4.372  1.00  0.00    -0.236 NA
HETATM    7  C   UNL     1      43.242 -16.073   3.041  1.00  0.00     0.164 A 
HETATM    8  C   UNL     1      43.292 -17.202   2.233  1.00  0.00     0.059 A 
ENDROOT
BRANCH   7   9
HETATM    9  O   UNL     1      42.926 -14.904   2.394  1.00  0.00    -0.329 OA
BRANCH   9  10
HETATM   10  C   UNL     1      41.935 -14.030   2.927  1.00  0.00     0.130 C 
HETATM   11  C   UNL     1      40.561 -14.159   2.255  1.00  0.00     0.034 C 
HETATM   12  C   UNL     1      39.519 -13.287   2.954  1.00  0.00     0.035 C 
HETATM   13  C   UNL     1      39.960 -11.828   3.118  1.00  0.00     0.186 C 
HETATM   14  C   UNL     1      41.342 -11.724   3.776  1.00  0.00     0.035 C 
HETATM   15  C   UNL     1      42.404 -12.578   3.083  1.00  0.00     0.034 C 
BRANCH  13  16
HETATM   16  N   UNL     1      40.003 -11.126   1.791  1.00  0.00    -0.067 N 
HETATM   17  H   UNL     1      40.069 -10.112   1.956  1.00  0.00     0.278 HD
HETATM   18  H   UNL     1      40.859 -11.362   1.266  1.00  0.00     0.278 HD
BRANCH  16  19
HETATM   19  C   UNL     1      38.822 -11.349   0.897  1.00  0.00     0.278 C 
BRANCH  19  20
HETATM   20  C   UNL     1      39.210 -12.035  -0.372  1.00  0.00     0.009 A 
HETATM   21  S   UNL     1      40.811 -11.903  -0.970  1.00  0.00    -0.103 SA
HETATM   22  C   UNL     1      40.463 -12.897  -2.320  1.00  0.00     0.072 A 
HETATM   23  C   UNL     1      39.152 -13.324  -2.323  1.00  0.00     0.052 A 
HETATM   24  C   UNL     1      38.604 -14.169  -3.343  1.00  0.00     0.100 C 
HETATM   25  C   UNL     1      38.427 -12.822  -1.198  1.00  0.00     0.039 A 
HETATM   26  N   UNL     1      38.139 -14.844  -4.162  1.00  0.00    -0.191 NA
ENDBRANCH  19  20
ENDBRANCH  16  19
ENDBRANCH  13  16
ENDBRANCH   9  10
ENDBRANCH   7   9
TORSDOF 5
ENDMDL
MODEL 5
REMARK VINA RESULT:      -7.3      5.216      7.916
REMARK  5 active torsions:
REMARK  status: ('A' for Active; 'I' for Inactive)
REMARK    1  A    between atoms: C_7  and  O_8 
REMARK    2  A    between atoms: O_8  and  C_9 
REMARK    3  A    between atoms: C_12  and  N_13 
REMARK    4  A    between atoms: N_13  and  C_16 
REMARK    5  A    between atoms: C_16  and  C_17 
ROOT
HETATM    1  C   UNL     1      43.605 -17.880   4.631  1.00  0.00     0.028 A 
HETATM    2  C   UNL     1      43.192 -18.047   3.312  1.00  0.00     0.062 A 
HETATM    3  C   UNL     1      43.590 -19.184   2.545  1.00  0.00     0.101 C 
HETATM    4  N   UNL     1      43.898 -20.099   1.903  1.00  0.00    -0.191 NA
HETATM    5  C   UNL     1      42.372 -17.072   2.756  1.00  0.00     0.142 A 
HETATM    6  N   UNL     1      41.941 -15.960   3.411  1.00  0.00    -0.236 NA
HETATM    7  C   UNL     1      42.363 -15.834   4.691  1.00  0.00     0.164 A 
HETATM    8  C   UNL     1      43.184 -16.753   5.332  1.00  0.00     0.059 A 
ENDROOT
BRANCH   7   9
HETATM    9  O   UNL     1      41.988 -14.754   5.453  1.00  0.00    -0.329 OA
BRANCH   9  10
HETATM   10  C   UNL     1      42.826 -13.606   5.536  1.00  0.00     0.130 C 
HETATM   11  C   UNL     1      43.771 -13.609   6.746  1.00  0.00     0.034 C 
HETATM   12  C   UNL     1      44.723 -12.414   6.708  1.00  0.00     0.035 C 
HETATM   13  C   UNL     1      44.006 -11.072   6.525  1.00  0.00     0.186 C 
HETATM   14  C   UNL     1      43.056 -11.098   5.322  1.00  0.00     0.035 C 
HETATM   15  C   UNL     1      42.083 -12.277   5.347  1.00  0.00     0.034 C 
BRANCH  13  16
HETATM   16  N   UNL     1      43.222 -10.709   7.752  1.00  0.00    -0.067 N 
HETATM   17  H   UNL     1      42.768  -9.798   7.597  1.00  0.00     0.278 HD
HETATM   18  H   UNL     1      42.442 -11.365   7.911  1.00  0.00     0.278 HD
BRANCH  16  19
HETATM   19  C   UNL     1      44.011 -10.595   9.020  1.00  0.00     0.278 C 
BRANCH  19  20
HETATM   20  C   UNL     1      43.346  -9.692  10.007  1.00  0.00     0.009 A 
HETATM   21  S   UNL     1      41.766  -9.099   9.706  1.00  0.00    -0.103 SA
HETATM   22  C   UNL     1      41.733  -8.237  11.185  1.00  0.00     0.072 A 
HETATM   23  C   UNL     1      42.901  -8.392  11.900  1.00  0.00     0.052 A 
HETATM   24  C   UNL     1      43.129  -7.775  13.174  1.00  0.00     0.100 C 
HETATM   25  C   UNL     1      43.835  -9.231  11.216  1.00  0.00     0.039 A 
HETATM   26  N   UNL     1      43.338  -7.278  14.200  1.00  0.00    -0.191 NA
ENDBRANCH  19  20
ENDBRANCH  16  19
ENDBRANCH  13  16
ENDBRANCH   9  10
ENDBRANCH   7   9
TORSDOF 5
ENDMDL
MODEL 6
REMARK VINA RESULT:      -7.1      3.894      6.351
REMARK  5 active torsions:
REMARK  status: ('A' for Active; 'I' for Inactive)
REMARK    1  A    between atoms: C_7  and  O_8 
REMARK    2  A    between atoms: O_8  and  C_9 
REMARK    3  A    between atoms: C_12  and  N_13 
REMARK    4  A    between atoms: N_13  and  C_16 
REMARK    5  A    between atoms: C_16  and  C_17 
ROOT
HETATM    1  C   UNL     1      43.064 -17.521   2.187  1.00  0.00     0.028 A 
HETATM    2  C   UNL     1      43.561 -18.533   3.003  1.00  0.00     0.062 A 
HETATM    3  C   UNL     1      43.745 -19.863   2.514  1.00  0.00     0.101 C 
HETATM    4  N   UNL     1      43.904 -20.948   2.139  1.00  0.00    -0.191 NA
HETATM    5  C   UNL     1      43.880 -18.215   4.319  1.00  0.00     0.142 A 
HETATM    6  N   UNL     1      43.742 -16.978   4.868  1.00  0.00    -0.236 NA
HETATM    7  C   UNL     1      43.257 -16.021   4.043  1.00  0.00     0.164 A 
HETATM    8  C   UNL     1      42.909 -16.243   2.717  1.00  0.00     0.059 A 
ENDROOT
BRANCH   7   9
HETATM    9  O   UNL     1      43.080 -14.733   4.487  1.00  0.00    -0.329 OA
BRANCH   9  10
HETATM   10  C   UNL     1      41.769 -14.198   4.639  1.00  0.00     0.130 C 
HETATM   11  C   UNL     1      41.426 -13.090   3.634  1.00  0.00     0.034 C 
HETATM   12  C   UNL     1      39.969 -12.648   3.772  1.00  0.00     0.035 C 
HETATM   13  C   UNL     1      39.580 -12.281   5.209  1.00  0.00     0.186 C 
HETATM   14  C   UNL     1      39.947 -13.396   6.196  1.00  0.00     0.035 C 
HETATM   15  C   UNL     1      41.405 -13.843   6.086  1.00  0.00     0.034 C 
BRANCH  13  16
HETATM   16  N   UNL     1      40.253 -11.012   5.641  1.00  0.00    -0.067 N 
HETATM   17  H   UNL     1      41.050 -11.251   6.248  1.00  0.00     0.278 HD
HETATM   18  H   UNL     1      40.673 -10.514   4.842  1.00  0.00     0.278 HD
BRANCH  16  19
HETATM   19  C   UNL     1      39.397 -10.047   6.402  1.00  0.00     0.278 C 
BRANCH  19  20
HETATM   20  C   UNL     1      39.980  -9.724   7.740  1.00  0.00     0.009 A 
HETATM   21  S   UNL     1      41.644  -9.340   7.885  1.00  0.00    -0.103 SA
HETATM   22  C   UNL     1      41.512  -9.104   9.576  1.00  0.00     0.072 A 
HETATM   23  C   UNL     1      40.228  -9.314  10.029  1.00  0.00     0.052 A 
HETATM   24  C   UNL     1      39.849  -9.180  11.405  1.00  0.00     0.100 C 
HETATM   25  C   UNL     1      39.343  -9.676   8.966  1.00  0.00     0.039 A 
HETATM   26  N   UNL     1      39.523  -9.087  12.513  1.00  0.00    -0.191 NA
ENDBRANCH  19  20
ENDBRANCH  16  19
ENDBRANCH  13  16
ENDBRANCH   9  10
ENDBRANCH   7   9
TORSDOF 5
ENDMDL
MODEL 7
REMARK VINA RESULT:      -7.1      4.914      8.450
REMARK  5 active torsions:
REMARK  status: ('A' for Active; 'I' for Inactive)
REMARK    1  A    between atoms: C_7  and  O_8 
REMARK    2  A    between atoms: O_8  and  C_9 
REMARK    3  A    between atoms: C_12  and  N_13 
REMARK    4  A    between atoms: N_13  and  C_16 
REMARK    5  A    between atoms: C_16  and  C_17 
ROOT
HETATM    1  C   UNL     1      43.748  -8.110  10.061  1.00  0.00     0.028 A 
HETATM    2  C   UNL     1      43.623  -9.024  11.104  1.00  0.00     0.062 A 
HETATM    3  C   UNL     1      43.182  -8.620  12.401  1.00  0.00     0.101 C 
HETATM    4  N   UNL     1      42.824  -8.315  13.461  1.00  0.00    -0.191 NA
HETATM    5  C   UNL     1      43.939 -10.354  10.849  1.00  0.00     0.142 A 
HETATM    6  N   UNL     1      44.363 -10.829   9.646  1.00  0.00    -0.236 NA
HETATM    7  C   UNL     1      44.471  -9.911   8.658  1.00  0.00     0.164 A 
HETATM    8  C   UNL     1      44.180  -8.562   8.817  1.00  0.00     0.059 A 
ENDROOT
BRANCH   7   9
HETATM    9  O   UNL     1      44.885 -10.276   7.400  1.00  0.00    -0.329 OA
BRANCH   9  10
HETATM   10  C   UNL     1      43.983 -10.918   6.504  1.00  0.00     0.130 C 
HETATM   11  C   UNL     1      42.505 -10.596   6.767  1.00  0.00     0.034 C 
HETATM   12  C   UNL     1      41.605 -11.216   5.699  1.00  0.00     0.035 C 
HETATM   13  C   UNL     1      41.853 -12.715   5.491  1.00  0.00     0.186 C 
HETATM   14  C   UNL     1      43.338 -13.014   5.246  1.00  0.00     0.035 C 
HETATM   15  C   UNL     1      44.257 -12.415   6.312  1.00  0.00     0.034 C 
BRANCH  13  16
HETATM   16  N   UNL     1      41.391 -13.507   6.678  1.00  0.00    -0.067 N 
HETATM   17  H   UNL     1      42.191 -13.656   7.308  1.00  0.00     0.278 HD
HETATM   18  H   UNL     1      40.708 -12.979   7.243  1.00  0.00     0.278 HD
BRANCH  16  19
HETATM   19  C   UNL     1      40.813 -14.856   6.377  1.00  0.00     0.278 C 
BRANCH  19  20
HETATM   20  C   UNL     1      41.876 -15.852   6.044  1.00  0.00     0.009 A 
HETATM   21  S   UNL     1      42.978 -16.372   7.249  1.00  0.00    -0.103 SA
HETATM   22  C   UNL     1      43.780 -17.423   6.161  1.00  0.00     0.072 A 
HETATM   23  C   UNL     1      43.225 -17.382   4.900  1.00  0.00     0.052 A 
HETATM   24  C   UNL     1      43.709 -18.169   3.803  1.00  0.00     0.100 C 
HETATM   25  C   UNL     1      42.126 -16.471   4.833  1.00  0.00     0.039 A 
HETATM   26  N   UNL     1      44.091 -18.788   2.901  1.00  0.00    -0.191 NA
ENDBRANCH  19  20
ENDBRANCH  16  19
ENDBRANCH  13  16
ENDBRANCH   9  10
ENDBRANCH   7   9
TORSDOF 5
ENDMDL
MODEL 8
REMARK VINA RESULT:      -7.1      7.769     11.172
REMARK  5 active torsions:
REMARK  status: ('A' for Active; 'I' for Inactive)
REMARK    1  A    between atoms: C_7  and  O_8 
REMARK    2  A    between atoms: O_8  and  C_9 
REMARK    3  A    between atoms: C_12  and  N_13 
REMARK    4  A    between atoms: N_13  and  C_16 
REMARK    5  A    between atoms: C_16  and  C_17 
ROOT
HETATM    1  C   UNL     1      43.001  -6.811  14.421  1.00  0.00     0.028 A 
HETATM    2  C   UNL     1      41.942  -6.890  15.320  1.00  0.00     0.062 A 
HETATM    3  C   UNL     1      41.699  -5.860  16.278  1.00  0.00     0.101 C 
HETATM    4  N   UNL     1      41.480  -5.035  17.063  1.00  0.00    -0.191 NA
HETATM    5  C   UNL     1      41.117  -8.008  15.261  1.00  0.00     0.142 A 
HETATM    6  N   UNL     1      41.270  -9.034  14.382  1.00  0.00    -0.236 NA
HETATM    7  C   UNL     1      42.309  -8.921  13.523  1.00  0.00     0.164 A 
HETATM    8  C   UNL     1      43.188  -7.845  13.507  1.00  0.00     0.059 A 
ENDROOT
BRANCH   7   9
HETATM    9  O   UNL     1      42.560  -9.894  12.587  1.00  0.00    -0.329 OA
BRANCH   9  10
HETATM   10  C   UNL     1      43.133  -9.552  11.329  1.00  0.00     0.130 C 
HETATM   11  C   UNL     1      42.101  -9.246  10.234  1.00  0.00     0.034 C 
HETATM   12  C   UNL     1      42.780  -8.769   8.951  1.00  0.00     0.035 C 
HETATM   13  C   UNL     1      43.890  -9.709   8.466  1.00  0.00     0.186 C 
HETATM   14  C   UNL     1      44.899 -10.014   9.580  1.00  0.00     0.035 C 
HETATM   15  C   UNL     1      44.242 -10.507  10.870  1.00  0.00     0.034 C 
BRANCH  13  16
HETATM   16  N   UNL     1      43.318 -11.003   7.964  1.00  0.00    -0.067 N 
HETATM   17  H   UNL     1      42.874 -11.495   8.752  1.00  0.00     0.278 HD
HETATM   18  H   UNL     1      42.554 -10.844   7.291  1.00  0.00     0.278 HD
BRANCH  16  19
HETATM   19  C   UNL     1      44.299 -11.954   7.351  1.00  0.00     0.278 C 
BRANCH  19  20
HETATM   20  C   UNL     1      43.617 -13.012   6.546  1.00  0.00     0.009 A 
HETATM   21  S   UNL     1      42.208 -12.636   5.646  1.00  0.00    -0.103 SA
HETATM   22  C   UNL     1      42.075 -14.236   5.053  1.00  0.00     0.072 A 
HETATM   23  C   UNL     1      43.081 -15.049   5.530  1.00  0.00     0.052 A 
HETATM   24  C   UNL     1      43.201 -16.435   5.184  1.00  0.00     0.100 C 
HETATM   25  C   UNL     1      43.971 -14.340   6.396  1.00  0.00     0.039 A 
HETATM   26  N   UNL     1      43.310 -17.560   4.926  1.00  0.00    -0.191 NA
ENDBRANCH  19  20
ENDBRANCH  16  19
ENDBRANCH  13  16
ENDBRANCH   9  10
ENDBRANCH   7   9
TORSDOF 5
ENDMDL
MODEL 9
REMARK VINA RESULT:      -6.9      5.537      8.978
REMARK  5 active torsions:
REMARK  status: ('A' for Active; 'I' for Inactive)
REMARK    1  A    between atoms: C_7  and  O_8 
REMARK    2  A    between atoms: O_8  and  C_9 
REMARK    3  A    between atoms: C_12  and  N_13 
REMARK    4  A    between atoms: N_13  and  C_16 
REMARK    5  A    between atoms: C_16  and  C_17 
ROOT
HETATM    1  C   UNL     1      42.850 -10.329  12.550  1.00  0.00     0.028 A 
HETATM    2  C   UNL     1      42.618  -8.957  12.554  1.00  0.00     0.062 A 
HETATM    3  C   UNL     1      41.790  -8.343  13.543  1.00  0.00     0.101 C 
HETATM    4  N   UNL     1      41.123  -7.822  14.335  1.00  0.00    -0.191 NA
HETATM    5  C   UNL     1      43.221  -8.189  11.564  1.00  0.00     0.142 A 
HETATM    6  N   UNL     1      44.027  -8.686  10.587  1.00  0.00    -0.236 NA
HETATM    7  C   UNL     1      44.229 -10.023  10.617  1.00  0.00     0.164 A 
HETATM    8  C   UNL     1      43.669 -10.871  11.564  1.00  0.00     0.059 A 
ENDROOT
BRANCH   7   9
HETATM    9  O   UNL     1      45.029 -10.636   9.683  1.00  0.00    -0.329 OA
BRANCH   9  10
HETATM   10  C   UNL     1      44.700 -10.569   8.299  1.00  0.00     0.130 C 
HETATM   11  C   UNL     1      43.205 -10.746   8.002  1.00  0.00     0.034 C 
HETATM   12  C   UNL     1      42.907 -10.541   6.517  1.00  0.00     0.035 C 
HETATM   13  C   UNL     1      43.794 -11.387   5.597  1.00  0.00     0.186 C 
HETATM   14  C   UNL     1      45.282 -11.206   5.923  1.00  0.00     0.035 C 
HETATM   15  C   UNL     1      45.606 -11.422   7.402  1.00  0.00     0.034 C 
BRANCH  13  16
HETATM   16  N   UNL     1      43.449 -12.844   5.707  1.00  0.00    -0.067 N 
HETATM   17  H   UNL     1      44.222 -13.397   5.312  1.00  0.00     0.278 HD
HETATM   18  H   UNL     1      43.389 -13.145   6.692  1.00  0.00     0.278 HD
BRANCH  16  19
HETATM   19  C   UNL     1      42.199 -13.273   5.003  1.00  0.00     0.278 C 
BRANCH  19  20
HETATM   20  C   UNL     1      42.331 -14.645   4.426  1.00  0.00     0.009 A 
HETATM   21  S   UNL     1      41.338 -15.129   3.116  1.00  0.00    -0.103 SA
HETATM   22  C   UNL     1      42.061 -16.679   3.050  1.00  0.00     0.072 A 
HETATM   23  C   UNL     1      43.040 -16.834   4.007  1.00  0.00     0.052 A 
HETATM   24  C   UNL     1      43.801 -18.038   4.166  1.00  0.00     0.100 C 
HETATM   25  C   UNL     1      43.193 -15.657   4.805  1.00  0.00     0.039 A 
HETATM   26  N   UNL     1      44.420 -19.006   4.316  1.00  0.00    -0.191 NA
ENDBRANCH  19  20
ENDBRANCH  16  19
ENDBRANCH  13  16
ENDBRANCH   9  10
ENDBRANCH   7   9
TORSDOF 5
ENDMDL
MODEL 10
REMARK VINA RESULT:      -6.9      2.976      5.626
REMARK  5 active torsions:
REMARK  status: ('A' for Active; 'I' for Inactive)
REMARK    1  A    between atoms: C_7  and  O_8 
REMARK    2  A    between atoms: O_8  and  C_9 
REMARK    3  A    between atoms: C_12  and  N_13 
REMARK    4  A    between atoms: N_13  and  C_16 
REMARK    5  A    between atoms: C_16  and  C_17 
ROOT
HETATM    1  C   UNL     1      43.391 -16.973   2.401  1.00  0.00     0.028 A 
HETATM    2  C   UNL     1      42.817 -17.166   3.654  1.00  0.00     0.062 A 
HETATM    3  C   UNL     1      43.421 -18.017   4.628  1.00  0.00     0.101 C 
HETATM    4  N   UNL     1      43.895 -18.701   5.436  1.00  0.00    -0.191 NA
HETATM    5  C   UNL     1      41.628 -16.502   3.937  1.00  0.00     0.142 A 
HETATM    6  N   UNL     1      40.984 -15.671   3.074  1.00  0.00    -0.236 NA
HETATM    7  C   UNL     1      41.574 -15.508   1.867  1.00  0.00     0.164 A 
HETATM    8  C   UNL     1      42.758 -16.130   1.491  1.00  0.00     0.059 A 
ENDROOT
BRANCH   7   9
HETATM    9  O   UNL     1      41.016 -14.688   0.915  1.00  0.00    -0.329 OA
BRANCH   9  10
HETATM   10  C   UNL     1      40.893 -13.290   1.153  1.00  0.00     0.130 C 
HETATM   11  C   UNL     1      42.069 -12.682   1.930  1.00  0.00     0.034 C 
HETATM   12  C   UNL     1      41.932 -11.164   2.043  1.00  0.00     0.035 C 
HETATM   13  C   UNL     1      40.571 -10.716   2.589  1.00  0.00     0.186 C 
HETATM   14  C   UNL     1      39.412 -11.348   1.808  1.00  0.00     0.035 C 
HETATM   15  C   UNL     1      39.521 -12.869   1.695  1.00  0.00     0.034 C 
BRANCH  13  16
HETATM   16  N   UNL     1      40.428 -11.074   4.039  1.00  0.00    -0.067 N 
HETATM   17  H   UNL     1      39.519 -10.727   4.377  1.00  0.00     0.278 HD
HETATM   18  H   UNL     1      40.384 -12.095   4.175  1.00  0.00     0.278 HD
BRANCH  16  19
HETATM   19  C   UNL     1      41.476 -10.519   4.954  1.00  0.00     0.278 C 
BRANCH  19  20
HETATM   20  C   UNL     1      42.286 -11.601   5.589  1.00  0.00     0.009 A 
HETATM   21  S   UNL     1      43.960 -11.370   5.876  1.00  0.00    -0.103 SA
HETATM   22  C   UNL     1      44.125 -12.923   6.578  1.00  0.00     0.072 A 
HETATM   23  C   UNL     1      42.932 -13.612   6.595  1.00  0.00     0.052 A 
HETATM   24  C   UNL     1      42.796 -14.934   7.131  1.00  0.00     0.100 C 
HETATM   25  C   UNL     1      41.869 -12.848   6.020  1.00  0.00     0.039 A 
HETATM   26  N   UNL     1      42.667 -16.007   7.550  1.00  0.00    -0.191 NA
ENDBRANCH  19  20
ENDBRANCH  16  19
ENDBRANCH  13  16
ENDBRANCH   9  10
ENDBRANCH   7   9
TORSDOF 5
ENDMDL
