MODEL 1
REMARK VINA RESULT:      -7.8      0.000      0.000
REMARK  9 active torsions:
REMARK  status: ('A' for Active; 'I' for Inactive)
REMARK    1  A    between atoms: C_2  and  N_3 
REMARK    2  A    between atoms: N_3  and  C_30 
REMARK    3  A    between atoms: N_3  and  C_5 
REMARK    4  A    between atoms: C_5  and  C_6 
REMARK    5  A    between atoms: C_5  and  C_14 
REMARK    6  A    between atoms: C_8  and  O_9 
REMARK    7  A    between atoms: C_14  and  N_15 
REMARK       I    between atoms: N_15  and  C_16 
REMARK    8  A    between atoms: C_16  and  C_17 
REMARK    9  A    between atoms: C_18  and  N_19 
ROOT
HETATM    1  C   UNL     1      43.288 -13.959   6.809  1.00  0.00     0.161 C 
ENDROOT
BRANCH   1   2
HETATM    2  C   UNL     1      43.125 -12.527   6.196  1.00  0.00     0.238 C 
BRANCH   2   3
HETATM    3  N   UNL     1      43.150 -11.412   7.286  1.00  0.00    -0.062 N 
HETATM    4  H   UNL     1      42.435 -11.690   7.967  1.00  0.00     0.280 HD
BRANCH   3   5
HETATM    5  C   UNL     1      42.674 -10.061   6.753  1.00  0.00     0.231 C 
HETATM    6  C   UNL     1      41.538  -9.465   7.565  1.00  0.00     0.034 C 
ENDBRANCH   3   5
BRANCH   3   7
HETATM    7  C   UNL     1      44.467 -11.345   8.043  1.00  0.00     0.231 C 
HETATM    8  C   UNL     1      45.640 -11.036   7.127  1.00  0.00     0.034 C 
ENDBRANCH   3   7
ENDBRANCH   2   3
BRANCH   2   9
HETATM    9  C   UNL     1      41.844 -12.460   5.369  1.00  0.00    -0.023 A 
HETATM   10  C   UNL     1      41.854 -12.065   4.018  1.00  0.00     0.046 A 
HETATM   11  C   UNL     1      40.666 -12.019   3.286  1.00  0.00     0.068 A 
HETATM   12  C   UNL     1      39.470 -12.427   3.870  1.00  0.00     0.037 A 
HETATM   13  C   UNL     1      39.444 -12.820   5.206  1.00  0.00     0.003 A 
HETATM   14  C   UNL     1      40.620 -12.822   5.956  1.00  0.00     0.009 A 
BRANCH  11  15
HETATM   15  O   UNL     1      40.602 -11.648   1.973  1.00  0.00    -0.356 OA
HETATM   16  C   UNL     1      41.706 -10.857   1.536  1.00  0.00     0.210 C 
ENDBRANCH  11  15
ENDBRANCH   2   9
ENDBRANCH   1   2
BRANCH   1  17
HETATM   17  N   UNL     1      43.465 -14.999   5.816  1.00  0.00    -0.354 N 
HETATM   18  C   UNL     1      42.751 -16.176   5.928  1.00  0.00     0.253 C 
HETATM   19  O   UNL     1      41.893 -16.344   6.786  1.00  0.00    -0.268 OA
HETATM   20  H   UNL     1      44.266 -14.991   5.190  1.00  0.00     0.162 HD
BRANCH  18  21
HETATM   21  C   UNL     1      43.089 -17.197   4.915  1.00  0.00     0.053 A 
HETATM   22  C   UNL     1      42.756 -17.029   3.556  1.00  0.00     0.026 A 
HETATM   23  C   UNL     1      43.100 -18.086   2.695  1.00  0.00     0.025 A 
HETATM   24  C   UNL     1      43.705 -19.260   3.167  1.00  0.00     0.008 A 
HETATM   25  C   UNL     1      44.004 -19.415   4.521  1.00  0.00    -0.061 A 
HETATM   26  C   UNL     1      44.646 -20.669   5.036  1.00  0.00     0.048 C 
HETATM   27  C   UNL     1      43.697 -18.370   5.395  1.00  0.00     0.025 A 
BRANCH  22  28
HETATM   28  N   UNL     1      42.130 -15.855   3.091  1.00  0.00    -0.283 NA
HETATM   29  C   UNL     1      40.655 -15.771   3.142  1.00  0.00     0.096 C 
HETATM   30  C   UNL     1      40.208 -15.726   1.688  1.00  0.00     0.016 C 
HETATM   31  C   UNL     1      41.332 -14.945   1.035  1.00  0.00     0.016 C 
HETATM   32  C   UNL     1      42.573 -15.516   1.715  1.00  0.00     0.096 C 
ENDBRANCH  22  28
ENDBRANCH  18  21
ENDBRANCH   1  17
TORSDOF 9
ENDMDL
MODEL 2
REMARK VINA RESULT:      -7.5      2.604      5.252
REMARK  9 active torsions:
REMARK  status: ('A' for Active; 'I' for Inactive)
REMARK    1  A    between atoms: C_2  and  N_3 
REMARK    2  A    between atoms: N_3  and  C_30 
REMARK    3  A    between atoms: N_3  and  C_5 
REMARK    4  A    between atoms: C_5  and  C_6 
REMARK    5  A    between atoms: C_5  and  C_14 
REMARK    6  A    between atoms: C_8  and  O_9 
REMARK    7  A    between atoms: C_14  and  N_15 
REMARK       I    between atoms: N_15  and  C_16 
REMARK    8  A    between atoms: C_16  and  C_17 
REMARK    9  A    between atoms: C_18  and  N_19 
ROOT
HETATM    1  C   UNL     1      40.400 -14.597   1.192  1.00  0.00     0.161 C 
ENDROOT
BRANCH   1   2
HETATM    2  C   UNL     1      41.006 -13.166   0.993  1.00  0.00     0.238 C 
BRANCH   2   3
HETATM    3  N   UNL     1      40.454 -12.142   2.032  1.00  0.00    -0.062 N 
HETATM    4  H   UNL     1      40.092 -11.363   1.472  1.00  0.00     0.280 HD
BRANCH   3   5
HETATM    5  C   UNL     1      41.559 -11.524   2.889  1.00  0.00     0.231 C 
HETATM    6  C   UNL     1      42.895 -12.229   2.742  1.00  0.00     0.034 C 
ENDBRANCH   3   5
BRANCH   3   7
HETATM    7  C   UNL     1      39.281 -12.680   2.836  1.00  0.00     0.231 C 
HETATM    8  C   UNL     1      39.586 -12.743   4.324  1.00  0.00     0.034 C 
ENDBRANCH   3   7
ENDBRANCH   2   3
BRANCH   2   9
HETATM    9  C   UNL     1      40.754 -12.692  -0.435  1.00  0.00    -0.023 A 
HETATM   10  C   UNL     1      40.120 -13.513  -1.387  1.00  0.00     0.046 A 
HETATM   11  C   UNL     1      39.898 -13.049  -2.685  1.00  0.00     0.068 A 
HETATM   12  C   UNL     1      40.244 -11.745  -3.029  1.00  0.00     0.037 A 
HETATM   13  C   UNL     1      40.872 -10.921  -2.098  1.00  0.00     0.003 A 
HETATM   14  C   UNL     1      41.140 -11.396  -0.815  1.00  0.00     0.009 A 
BRANCH  11  15
HETATM   15  O   UNL     1      39.288 -13.790  -3.657  1.00  0.00    -0.356 OA
HETATM   16  C   UNL     1      38.460 -14.839  -3.159  1.00  0.00     0.210 C 
ENDBRANCH  11  15
ENDBRANCH   2   9
ENDBRANCH   1   2
BRANCH   1  17
HETATM   17  N   UNL     1      41.356 -15.569   1.682  1.00  0.00    -0.354 N 
HETATM   18  C   UNL     1      41.089 -16.257   2.850  1.00  0.00     0.253 C 
HETATM   19  O   UNL     1      40.024 -16.151   3.446  1.00  0.00    -0.268 OA
HETATM   20  H   UNL     1      42.311 -15.582   1.335  1.00  0.00     0.162 HD
BRANCH  18  21
HETATM   21  C   UNL     1      42.180 -17.146   3.301  1.00  0.00     0.053 A 
HETATM   22  C   UNL     1      42.858 -16.925   4.517  1.00  0.00     0.026 A 
HETATM   23  C   UNL     1      43.900 -17.818   4.820  1.00  0.00     0.025 A 
HETATM   24  C   UNL     1      44.272 -18.849   3.944  1.00  0.00     0.008 A 
HETATM   25  C   UNL     1      43.603 -19.034   2.734  1.00  0.00    -0.061 A 
HETATM   26  C   UNL     1      43.996 -20.129   1.788  1.00  0.00     0.048 C 
HETATM   27  C   UNL     1      42.546 -18.178   2.419  1.00  0.00     0.025 A 
BRANCH  22  28
HETATM   28  N   UNL     1      42.493 -15.876   5.384  1.00  0.00    -0.283 NA
HETATM   29  C   UNL     1      43.310 -14.645   5.390  1.00  0.00     0.096 C 
HETATM   30  C   UNL     1      43.951 -14.600   6.770  1.00  0.00     0.016 C 
HETATM   31  C   UNL     1      42.869 -15.205   7.642  1.00  0.00     0.016 C 
HETATM   32  C   UNL     1      42.352 -16.355   6.782  1.00  0.00     0.096 C 
ENDBRANCH  22  28
ENDBRANCH  18  21
ENDBRANCH   1  17
TORSDOF 9
ENDMDL
MODEL 3
REMARK VINA RESULT:      -7.4      2.052      4.617
REMARK  9 active torsions:
REMARK  status: ('A' for Active; 'I' for Inactive)
REMARK    1  A    between atoms: C_2  and  N_3 
REMARK    2  A    between atoms: N_3  and  C_30 
REMARK    3  A    between atoms: N_3  and  C_5 
REMARK    4  A    between atoms: C_5  and  C_6 
REMARK    5  A    between atoms: C_5  and  C_14 
REMARK    6  A    between atoms: C_8  and  O_9 
REMARK    7  A    between atoms: C_14  and  N_15 
REMARK       I    between atoms: N_15  and  C_16 
REMARK    8  A    between atoms: C_16  and  C_17 
REMARK    9  A    between atoms: C_18  and  N_19 
ROOT
HETATM    1  C   UNL     1      41.760 -13.720   1.538  1.00  0.00     0.161 C 
ENDROOT
BRANCH   1   2
HETATM    2  C   UNL     1      40.799 -12.996   2.541  1.00  0.00     0.238 C 
BRANCH   2   3
HETATM    3  N   UNL     1      40.015 -11.828   1.868  1.00  0.00    -0.062 N 
HETATM    4  H   UNL     1      40.234 -11.000   2.432  1.00  0.00     0.280 HD
BRANCH   3   5
HETATM    5  C   UNL     1      38.500 -11.992   1.991  1.00  0.00     0.231 C 
HETATM    6  C   UNL     1      37.721 -11.049   1.091  1.00  0.00     0.034 C 
ENDBRANCH   3   5
BRANCH   3   7
HETATM    7  C   UNL     1      40.487 -11.527   0.454  1.00  0.00     0.231 C 
HETATM    8  C   UNL     1      41.308 -10.250   0.383  1.00  0.00     0.034 C 
ENDBRANCH   3   7
ENDBRANCH   2   3
BRANCH   2   9
HETATM    9  C   UNL     1      41.589 -12.504   3.750  1.00  0.00    -0.023 A 
HETATM   10  C   UNL     1      42.940 -12.122   3.646  1.00  0.00     0.046 A 
HETATM   11  C   UNL     1      43.636 -11.670   4.770  1.00  0.00     0.068 A 
HETATM   12  C   UNL     1      42.978 -11.532   5.989  1.00  0.00     0.037 A 
HETATM   13  C   UNL     1      41.642 -11.906   6.107  1.00  0.00     0.003 A 
HETATM   14  C   UNL     1      40.956 -12.404   5.000  1.00  0.00     0.009 A 
BRANCH  11  15
HETATM   15  O   UNL     1      44.945 -11.282   4.741  1.00  0.00    -0.356 OA
HETATM   16  C   UNL     1      45.587 -11.300   6.014  1.00  0.00     0.210 C 
ENDBRANCH  11  15
ENDBRANCH   2   9
ENDBRANCH   1   2
BRANCH   1  17
HETATM   17  N   UNL     1      42.432 -14.871   2.106  1.00  0.00    -0.354 N 
HETATM   18  C   UNL     1      41.756 -16.071   2.211  1.00  0.00     0.253 C 
HETATM   19  O   UNL     1      40.632 -16.233   1.752  1.00  0.00    -0.268 OA
HETATM   20  H   UNL     1      43.285 -14.762   2.647  1.00  0.00     0.162 HD
BRANCH  18  21
HETATM   21  C   UNL     1      42.509 -17.141   2.896  1.00  0.00     0.053 A 
HETATM   22  C   UNL     1      42.927 -17.010   4.236  1.00  0.00     0.026 A 
HETATM   23  C   UNL     1      43.666 -18.081   4.766  1.00  0.00     0.025 A 
HETATM   24  C   UNL     1      44.005 -19.203   3.994  1.00  0.00     0.008 A 
HETATM   25  C   UNL     1      43.602 -19.301   2.662  1.00  0.00    -0.061 A 
HETATM   26  C   UNL     1      43.964 -20.492   1.826  1.00  0.00     0.048 C 
HETATM   27  C   UNL     1      42.843 -18.262   2.116  1.00  0.00     0.025 A 
BRANCH  22  28
HETATM   28  N   UNL     1      42.600 -15.872   5.001  1.00  0.00    -0.283 NA
HETATM   29  C   UNL     1      43.602 -15.346   5.951  1.00  0.00     0.096 C 
HETATM   30  C   UNL     1      42.994 -15.560   7.330  1.00  0.00     0.016 C 
HETATM   31  C   UNL     1      41.517 -15.350   7.061  1.00  0.00     0.016 C 
HETATM   32  C   UNL     1      41.317 -16.059   5.725  1.00  0.00     0.096 C 
ENDBRANCH  22  28
ENDBRANCH  18  21
ENDBRANCH   1  17
TORSDOF 9
ENDMDL
MODEL 4
REMARK VINA RESULT:      -7.4      2.954      6.820
REMARK  9 active torsions:
REMARK  status: ('A' for Active; 'I' for Inactive)
REMARK    1  A    between atoms: C_2  and  N_3 
REMARK    2  A    between atoms: N_3  and  C_30 
REMARK    3  A    between atoms: N_3  and  C_5 
REMARK    4  A    between atoms: C_5  and  C_6 
REMARK    5  A    between atoms: C_5  and  C_14 
REMARK    6  A    between atoms: C_8  and  O_9 
REMARK    7  A    between atoms: C_14  and  N_15 
REMARK       I    between atoms: N_15  and  C_16 
REMARK    8  A    between atoms: C_16  and  C_17 
REMARK    9  A    between atoms: C_18  and  N_19 
ROOT
HETATM    1  C   UNL     1      42.741 -14.787   1.554  1.00  0.00     0.161 C 
ENDROOT
BRANCH   1   2
HETATM    2  C   UNL     1      42.293 -14.972   3.044  1.00  0.00     0.238 C 
BRANCH   2   3
HETATM    3  N   UNL     1      42.569 -13.701   3.905  1.00  0.00    -0.062 N 
HETATM    4  H   UNL     1      43.063 -14.044   4.736  1.00  0.00     0.280 HD
BRANCH   3   5
HETATM    5  C   UNL     1      41.286 -13.072   4.448  1.00  0.00     0.231 C 
HETATM    6  C   UNL     1      41.137 -13.220   5.951  1.00  0.00     0.034 C 
ENDBRANCH   3   5
BRANCH   3   7
HETATM    7  C   UNL     1      43.500 -12.709   3.226  1.00  0.00     0.231 C 
HETATM    8  C   UNL     1      42.875 -11.330   3.098  1.00  0.00     0.034 C 
ENDBRANCH   3   7
ENDBRANCH   2   3
BRANCH   2   9
HETATM    9  C   UNL     1      42.976 -16.200   3.640  1.00  0.00    -0.023 A 
HETATM   10  C   UNL     1      43.271 -17.335   2.861  1.00  0.00     0.046 A 
HETATM   11  C   UNL     1      43.901 -18.441   3.434  1.00  0.00     0.068 A 
HETATM   12  C   UNL     1      44.300 -18.404   4.767  1.00  0.00     0.037 A 
HETATM   13  C   UNL     1      44.015 -17.289   5.550  1.00  0.00     0.003 A 
HETATM   14  C   UNL     1      43.343 -16.200   4.996  1.00  0.00     0.009 A 
BRANCH  11  15
HETATM   15  O   UNL     1      44.219 -19.573   2.738  1.00  0.00    -0.356 OA
HETATM   16  C   UNL     1      43.125 -20.147   2.026  1.00  0.00     0.210 C 
ENDBRANCH  11  15
ENDBRANCH   2   9
ENDBRANCH   1   2
BRANCH   1  17
HETATM   17  N   UNL     1      41.761 -14.106   0.733  1.00  0.00    -0.354 N 
HETATM   18  C   UNL     1      40.541 -14.707   0.492  1.00  0.00     0.253 C 
HETATM   19  O   UNL     1      40.210 -15.759   1.026  1.00  0.00    -0.268 OA
HETATM   20  H   UNL     1      42.030 -13.329   0.137  1.00  0.00     0.162 HD
BRANCH  18  21
HETATM   21  C   UNL     1      39.665 -13.964  -0.438  1.00  0.00     0.053 A 
HETATM   22  C   UNL     1      39.171 -12.682  -0.123  1.00  0.00     0.026 A 
HETATM   23  C   UNL     1      38.320 -12.092  -1.072  1.00  0.00     0.025 A 
HETATM   24  C   UNL     1      37.948 -12.757  -2.250  1.00  0.00     0.008 A 
HETATM   25  C   UNL     1      38.430 -14.036  -2.531  1.00  0.00    -0.061 A 
HETATM   26  C   UNL     1      38.034 -14.758  -3.784  1.00  0.00     0.048 C 
HETATM   27  C   UNL     1      39.299 -14.636  -1.617  1.00  0.00     0.025 A 
BRANCH  22  28
HETATM   28  N   UNL     1      39.532 -12.027   1.072  1.00  0.00    -0.283 NA
HETATM   29  C   UNL     1      38.556 -11.987   2.181  1.00  0.00     0.096 C 
HETATM   30  C   UNL     1      38.186 -10.518   2.332  1.00  0.00     0.016 C 
HETATM   31  C   UNL     1      39.490  -9.826   1.991  1.00  0.00     0.016 C 
HETATM   32  C   UNL     1      40.001 -10.643   0.808  1.00  0.00     0.096 C 
ENDBRANCH  22  28
ENDBRANCH  18  21
ENDBRANCH   1  17
TORSDOF 9
ENDMDL
MODEL 5
REMARK VINA RESULT:      -7.2      2.246      5.042
REMARK  9 active torsions:
REMARK  status: ('A' for Active; 'I' for Inactive)
REMARK    1  A    between atoms: C_2  and  N_3 
REMARK    2  A    between atoms: N_3  and  C_30 
REMARK    3  A    between atoms: N_3  and  C_5 
REMARK    4  A    between atoms: C_5  and  C_6 
REMARK    5  A    between atoms: C_5  and  C_14 
REMARK    6  A    between atoms: C_8  and  O_9 
REMARK    7  A    between atoms: C_14  and  N_15 
REMARK       I    between atoms: N_15  and  C_16 
REMARK    8  A    between atoms: C_16  and  C_17 
REMARK    9  A    between atoms: C_18  and  N_19 
ROOT
HETATM    1  C   UNL     1      40.665 -15.230   1.267  1.00  0.00     0.161 C 
ENDROOT
BRANCH   1   2
HETATM    2  C   UNL     1      39.894 -14.034   1.923  1.00  0.00     0.238 C 
BRANCH   2   3
HETATM    3  N   UNL     1      39.217 -13.115   0.860  1.00  0.00    -0.062 N 
HETATM    4  H   UNL     1      38.288 -13.523   0.709  1.00  0.00     0.280 HD
BRANCH   3   5
HETATM    5  C   UNL     1      39.902 -13.194  -0.505  1.00  0.00     0.231 C 
HETATM    6  C   UNL     1      40.689 -11.943  -0.852  1.00  0.00     0.034 C 
ENDBRANCH   3   5
BRANCH   3   7
HETATM    7  C   UNL     1      38.992 -11.695   1.353  1.00  0.00     0.231 C 
HETATM    8  C   UNL     1      37.525 -11.298   1.311  1.00  0.00     0.034 C 
ENDBRANCH   3   7
ENDBRANCH   2   3
BRANCH   2   9
HETATM    9  C   UNL     1      40.840 -13.237   2.816  1.00  0.00    -0.023 A 
HETATM   10  C   UNL     1      40.461 -12.814   4.105  1.00  0.00     0.046 A 
HETATM   11  C   UNL     1      41.351 -12.091   4.902  1.00  0.00     0.068 A 
HETATM   12  C   UNL     1      42.644 -11.838   4.452  1.00  0.00     0.037 A 
HETATM   13  C   UNL     1      43.033 -12.250   3.180  1.00  0.00     0.003 A 
HETATM   14  C   UNL     1      42.133 -12.930   2.361  1.00  0.00     0.009 A 
BRANCH  11  15
HETATM   15  O   UNL     1      41.051 -11.651   6.160  1.00  0.00    -0.356 OA
HETATM   16  C   UNL     1      39.654 -11.504   6.409  1.00  0.00     0.210 C 
ENDBRANCH  11  15
ENDBRANCH   2   9
ENDBRANCH   1   2
BRANCH   1  17
HETATM   17  N   UNL     1      41.243 -16.145   2.230  1.00  0.00    -0.354 N 
HETATM   18  C   UNL     1      42.578 -16.483   2.131  1.00  0.00     0.253 C 
HETATM   19  O   UNL     1      43.328 -15.963   1.313  1.00  0.00    -0.268 OA
HETATM   20  H   UNL     1      40.651 -16.728   2.815  1.00  0.00     0.162 HD
BRANCH  18  21
HETATM   21  C   UNL     1      43.028 -17.499   3.106  1.00  0.00     0.053 A 
HETATM   22  C   UNL     1      43.146 -17.203   4.479  1.00  0.00     0.026 A 
HETATM   23  C   UNL     1      43.617 -18.242   5.301  1.00  0.00     0.025 A 
HETATM   24  C   UNL     1      43.987 -19.490   4.780  1.00  0.00     0.008 A 
HETATM   25  C   UNL     1      43.885 -19.753   3.413  1.00  0.00    -0.061 A 
HETATM   26  C   UNL     1      44.283 -21.083   2.846  1.00  0.00     0.048 C 
HETATM   27  C   UNL     1      43.395 -18.748   2.576  1.00  0.00     0.025 A 
BRANCH  22  28
HETATM   28  N   UNL     1      42.791 -15.940   4.994  1.00  0.00    -0.283 NA
HETATM   29  C   UNL     1      43.770 -15.217   5.833  1.00  0.00     0.096 C 
HETATM   30  C   UNL     1      43.141 -15.159   7.218  1.00  0.00     0.016 C 
HETATM   31  C   UNL     1      41.666 -15.031   6.891  1.00  0.00     0.016 C 
HETATM   32  C   UNL     1      41.499 -15.998   5.722  1.00  0.00     0.096 C 
ENDBRANCH  22  28
ENDBRANCH  18  21
ENDBRANCH   1  17
TORSDOF 9
ENDMDL
MODEL 6
REMARK VINA RESULT:      -7.1      2.648      6.518
REMARK  9 active torsions:
REMARK  status: ('A' for Active; 'I' for Inactive)
REMARK    1  A    between atoms: C_2  and  N_3 
REMARK    2  A    between atoms: N_3  and  C_30 
REMARK    3  A    between atoms: N_3  and  C_5 
REMARK    4  A    between atoms: C_5  and  C_6 
REMARK    5  A    between atoms: C_5  and  C_14 
REMARK    6  A    between atoms: C_8  and  O_9 
REMARK    7  A    between atoms: C_14  and  N_15 
REMARK       I    between atoms: N_15  and  C_16 
REMARK    8  A    between atoms: C_16  and  C_17 
REMARK    9  A    between atoms: C_18  and  N_19 
ROOT
HETATM    1  C   UNL     1      40.395 -15.885   3.219  1.00  0.00     0.161 C 
ENDROOT
BRANCH   1   2
HETATM    2  C   UNL     1      40.688 -14.987   4.469  1.00  0.00     0.238 C 
BRANCH   2   3
HETATM    3  N   UNL     1      41.223 -13.577   4.070  1.00  0.00    -0.062 N 
HETATM    4  H   UNL     1      40.753 -13.354   3.186  1.00  0.00     0.280 HD
BRANCH   3   5
HETATM    5  C   UNL     1      42.712 -13.591   3.726  1.00  0.00     0.231 C 
HETATM    6  C   UNL     1      43.463 -12.388   4.268  1.00  0.00     0.034 C 
ENDBRANCH   3   5
BRANCH   3   7
HETATM    7  C   UNL     1      40.830 -12.488   5.056  1.00  0.00     0.231 C 
HETATM    8  C   UNL     1      39.397 -12.639   5.537  1.00  0.00     0.034 C 
ENDBRANCH   3   7
ENDBRANCH   2   3
BRANCH   2   9
HETATM    9  C   UNL     1      41.662 -15.702   5.402  1.00  0.00    -0.023 A 
HETATM   10  C   UNL     1      42.470 -16.765   4.955  1.00  0.00     0.046 A 
HETATM   11  C   UNL     1      43.357 -17.396   5.830  1.00  0.00     0.068 A 
HETATM   12  C   UNL     1      43.494 -16.934   7.137  1.00  0.00     0.037 A 
HETATM   13  C   UNL     1      42.701 -15.884   7.593  1.00  0.00     0.003 A 
HETATM   14  C   UNL     1      41.780 -15.282   6.737  1.00  0.00     0.009 A 
BRANCH  11  15
HETATM   15  O   UNL     1      44.171 -18.430   5.465  1.00  0.00    -0.356 OA
HETATM   16  C   UNL     1      44.147 -18.726   4.070  1.00  0.00     0.210 C 
ENDBRANCH  11  15
ENDBRANCH   2   9
ENDBRANCH   1   2
BRANCH   1  17
HETATM   17  N   UNL     1      39.758 -15.173   2.130  1.00  0.00    -0.354 N 
HETATM   18  C   UNL     1      40.479 -14.897   0.984  1.00  0.00     0.253 C 
HETATM   19  O   UNL     1      41.616 -15.315   0.807  1.00  0.00    -0.268 OA
HETATM   20  H   UNL     1      38.892 -14.662   2.277  1.00  0.00     0.162 HD
BRANCH  18  21
HETATM   21  C   UNL     1      39.755 -14.081  -0.013  1.00  0.00     0.053 A 
HETATM   22  C   UNL     1      39.376 -12.750   0.256  1.00  0.00     0.026 A 
HETATM   23  C   UNL     1      38.662 -12.089  -0.758  1.00  0.00     0.025 A 
HETATM   24  C   UNL     1      38.311 -12.728  -1.956  1.00  0.00     0.008 A 
HETATM   25  C   UNL     1      38.676 -14.054  -2.192  1.00  0.00    -0.061 A 
HETATM   26  C   UNL     1      38.301 -14.749  -3.467  1.00  0.00     0.048 C 
HETATM   27  C   UNL     1      39.409 -14.728  -1.212  1.00  0.00     0.025 A 
BRANCH  22  28
HETATM   28  N   UNL     1      39.714 -12.119   1.470  1.00  0.00    -0.283 NA
HETATM   29  C   UNL     1      38.668 -11.364   2.191  1.00  0.00     0.096 C 
HETATM   30  C   UNL     1      39.120  -9.911   2.142  1.00  0.00     0.016 C 
HETATM   31  C   UNL     1      40.628 -10.046   2.217  1.00  0.00     0.016 C 
HETATM   32  C   UNL     1      40.901 -11.242   1.310  1.00  0.00     0.096 C 
ENDBRANCH  22  28
ENDBRANCH  18  21
ENDBRANCH   1  17
TORSDOF 9
ENDMDL
MODEL 7
REMARK VINA RESULT:      -7.0      2.134      7.381
REMARK  9 active torsions:
REMARK  status: ('A' for Active; 'I' for Inactive)
REMARK    1  A    between atoms: C_2  and  N_3 
REMARK    2  A    between atoms: N_3  and  C_30 
REMARK    3  A    between atoms: N_3  and  C_5 
REMARK    4  A    between atoms: C_5  and  C_6 
REMARK    5  A    between atoms: C_5  and  C_14 
REMARK    6  A    between atoms: C_8  and  O_9 
REMARK    7  A    between atoms: C_14  and  N_15 
REMARK       I    between atoms: N_15  and  C_16 
REMARK    8  A    between atoms: C_16  and  C_17 
REMARK    9  A    between atoms: C_18  and  N_19 
ROOT
HETATM    1  C   UNL     1      43.525 -14.443   6.096  1.00  0.00     0.161 C 
ENDROOT
BRANCH   1   2
HETATM    2  C   UNL     1      42.878 -14.699   4.693  1.00  0.00     0.238 C 
BRANCH   2   3
HETATM    3  N   UNL     1      41.333 -14.487   4.709  1.00  0.00    -0.062 N 
HETATM    4  H   UNL     1      41.156 -13.877   5.514  1.00  0.00     0.280 HD
BRANCH   3   5
HETATM    5  C   UNL     1      40.568 -15.773   5.020  1.00  0.00     0.231 C 
HETATM    6  C   UNL     1      40.152 -15.885   6.476  1.00  0.00     0.034 C 
ENDBRANCH   3   5
BRANCH   3   7
HETATM    7  C   UNL     1      40.818 -13.747   3.484  1.00  0.00     0.231 C 
HETATM    8  C   UNL     1      39.962 -14.634   2.595  1.00  0.00     0.034 C 
ENDBRANCH   3   7
ENDBRANCH   2   3
BRANCH   2   9
HETATM    9  C   UNL     1      43.236 -16.101   4.206  1.00  0.00    -0.023 A 
HETATM   10  C   UNL     1      43.584 -17.129   5.103  1.00  0.00     0.046 A 
HETATM   11  C   UNL     1      43.901 -18.404   4.629  1.00  0.00     0.068 A 
HETATM   12  C   UNL     1      43.813 -18.683   3.268  1.00  0.00     0.037 A 
HETATM   13  C   UNL     1      43.471 -17.676   2.369  1.00  0.00     0.003 A 
HETATM   14  C   UNL     1      43.200 -16.390   2.832  1.00  0.00     0.009 A 
BRANCH  11  15
HETATM   15  O   UNL     1      44.245 -19.447   5.440  1.00  0.00    -0.356 OA
HETATM   16  C   UNL     1      44.014 -20.733   4.867  1.00  0.00     0.210 C 
ENDBRANCH  11  15
ENDBRANCH   2   9
ENDBRANCH   1   2
BRANCH   1  17
HETATM   17  N   UNL     1      43.089 -13.210   6.720  1.00  0.00    -0.354 N 
HETATM   18  C   UNL     1      44.003 -12.197   6.938  1.00  0.00     0.253 C 
HETATM   19  O   UNL     1      45.158 -12.258   6.537  1.00  0.00    -0.268 OA
HETATM   20  H   UNL     1      42.204 -13.163   7.217  1.00  0.00     0.162 HD
BRANCH  18  21
HETATM   21  C   UNL     1      43.463 -11.032   7.670  1.00  0.00     0.053 A 
HETATM   22  C   UNL     1      42.375 -10.286   7.172  1.00  0.00     0.026 A 
HETATM   23  C   UNL     1      41.976  -9.180   7.941  1.00  0.00     0.025 A 
HETATM   24  C   UNL     1      42.645  -8.813   9.117  1.00  0.00     0.008 A 
HETATM   25  C   UNL     1      43.736  -9.551   9.578  1.00  0.00    -0.061 A 
HETATM   26  C   UNL     1      44.463  -9.163  10.832  1.00  0.00     0.048 C 
HETATM   27  C   UNL     1      44.139 -10.672   8.849  1.00  0.00     0.025 A 
BRANCH  22  28
HETATM   28  N   UNL     1      41.718 -10.649   5.979  1.00  0.00    -0.283 NA
HETATM   29  C   UNL     1      42.025  -9.896   4.745  1.00  0.00     0.096 C 
HETATM   30  C   UNL     1      40.734  -9.171   4.389  1.00  0.00     0.016 C 
HETATM   31  C   UNL     1      39.680 -10.164   4.838  1.00  0.00     0.016 C 
HETATM   32  C   UNL     1      40.245 -10.675   6.161  1.00  0.00     0.096 C 
ENDBRANCH  22  28
ENDBRANCH  18  21
ENDBRANCH   1  17
TORSDOF 9
ENDMDL
MODEL 8
REMARK VINA RESULT:      -7.0      1.820      2.856
REMARK  9 active torsions:
REMARK  status: ('A' for Active; 'I' for Inactive)
REMARK    1  A    between atoms: C_2  and  N_3 
REMARK    2  A    between atoms: N_3  and  C_30 
REMARK    3  A    between atoms: N_3  and  C_5 
REMARK    4  A    between atoms: C_5  and  C_6 
REMARK    5  A    between atoms: C_5  and  C_14 
REMARK    6  A    between atoms: C_8  and  O_9 
REMARK    7  A    between atoms: C_14  and  N_15 
REMARK       I    between atoms: N_15  and  C_16 
REMARK    8  A    between atoms: C_16  and  C_17 
REMARK    9  A    between atoms: C_18  and  N_19 
ROOT
HETATM    1  C   UNL     1      42.276 -13.606   6.237  1.00  0.00     0.161 C 
ENDROOT
BRANCH   1   2
HETATM    2  C   UNL     1      42.247 -12.186   5.576  1.00  0.00     0.238 C 
BRANCH   2   3
HETATM    3  N   UNL     1      43.664 -11.539   5.505  1.00  0.00    -0.062 N 
HETATM    4  H   UNL     1      43.518 -10.551   5.739  1.00  0.00     0.280 HD
BRANCH   3   5
HETATM    5  C   UNL     1      44.229 -11.522   4.084  1.00  0.00     0.231 C 
HETATM    6  C   UNL     1      43.189 -11.835   3.023  1.00  0.00     0.034 C 
ENDBRANCH   3   5
BRANCH   3   7
HETATM    7  C   UNL     1      44.628 -12.093   6.543  1.00  0.00     0.231 C 
HETATM    8  C   UNL     1      45.807 -11.164   6.783  1.00  0.00     0.034 C 
ENDBRANCH   3   7
ENDBRANCH   2   3
BRANCH   2   9
HETATM    9  C   UNL     1      41.268 -11.287   6.327  1.00  0.00    -0.023 A 
HETATM   10  C   UNL     1      41.693 -10.115   6.982  1.00  0.00     0.046 A 
HETATM   11  C   UNL     1      40.773  -9.308   7.656  1.00  0.00     0.068 A 
HETATM   12  C   UNL     1      39.418  -9.625   7.630  1.00  0.00     0.037 A 
HETATM   13  C   UNL     1      38.983 -10.781   6.988  1.00  0.00     0.003 A 
HETATM   14  C   UNL     1      39.903 -11.615   6.354  1.00  0.00     0.009 A 
BRANCH  11  15
HETATM   15  O   UNL     1      41.115  -8.158   8.309  1.00  0.00    -0.356 OA
HETATM   16  C   UNL     1      40.016  -7.288   8.572  1.00  0.00     0.210 C 
ENDBRANCH  11  15
ENDBRANCH   2   9
ENDBRANCH   1   2
BRANCH   1  17
HETATM   17  N   UNL     1      42.585 -14.673   5.307  1.00  0.00    -0.354 N 
HETATM   18  C   UNL     1      42.320 -15.981   5.660  1.00  0.00     0.253 C 
HETATM   19  O   UNL     1      41.740 -16.277   6.698  1.00  0.00    -0.268 OA
HETATM   20  H   UNL     1      43.207 -14.513   4.519  1.00  0.00     0.162 HD
BRANCH  18  21
HETATM   21  C   UNL     1      42.770 -16.986   4.673  1.00  0.00     0.053 A 
HETATM   22  C   UNL     1      42.448 -16.873   3.305  1.00  0.00     0.026 A 
HETATM   23  C   UNL     1      42.902 -17.909   2.472  1.00  0.00     0.025 A 
HETATM   24  C   UNL     1      43.603 -19.014   2.976  1.00  0.00     0.008 A 
HETATM   25  C   UNL     1      43.890 -19.117   4.338  1.00  0.00    -0.061 A 
HETATM   26  C   UNL     1      44.633 -20.298   4.888  1.00  0.00     0.048 C 
HETATM   27  C   UNL     1      43.473 -18.089   5.187  1.00  0.00     0.025 A 
BRANCH  22  28
HETATM   28  N   UNL     1      41.726 -15.769   2.807  1.00  0.00    -0.283 NA
HETATM   29  C   UNL     1      40.253 -15.860   2.736  1.00  0.00     0.096 C 
HETATM   30  C   UNL     1      39.923 -15.832   1.250  1.00  0.00     0.016 C 
HETATM   31  C   UNL     1      40.995 -14.909   0.706  1.00  0.00     0.016 C 
HETATM   32  C   UNL     1      42.237 -15.347   1.478  1.00  0.00     0.096 C 
ENDBRANCH  22  28
ENDBRANCH  18  21
ENDBRANCH   1  17
TORSDOF 9
ENDMDL
MODEL 9
REMARK VINA RESULT:      -7.0      2.984      6.198
REMARK  9 active torsions:
REMARK  status: ('A' for Active; 'I' for Inactive)
REMARK    1  A    between atoms: C_2  and  N_3 
REMARK    2  A    between atoms: N_3  and  C_30 
REMARK    3  A    between atoms: N_3  and  C_5 
REMARK    4  A    between atoms: C_5  and  C_6 
REMARK    5  A    between atoms: C_5  and  C_14 
REMARK    6  A    between atoms: C_8  and  O_9 
REMARK    7  A    between atoms: C_14  and  N_15 
REMARK       I    between atoms: N_15  and  C_16 
REMARK    8  A    between atoms: C_16  and  C_17 
REMARK    9  A    between atoms: C_18  and  N_19 
ROOT
HETATM    1  C   UNL     1      40.444 -14.122  -0.594  1.00  0.00     0.161 C 
ENDROOT
BRANCH   1   2
HETATM    2  C   UNL     1      39.317 -13.164  -0.080  1.00  0.00     0.238 C 
BRANCH   2   3
HETATM    3  N   UNL     1      38.230 -12.896  -1.166  1.00  0.00    -0.062 N 
HETATM    4  H   UNL     1      37.521 -13.623  -1.017  1.00  0.00     0.280 HD
BRANCH   3   5
HETATM    5  C   UNL     1      38.745 -13.140  -2.584  1.00  0.00     0.231 C 
HETATM    6  C   UNL     1      38.072 -14.315  -3.271  1.00  0.00     0.034 C 
ENDBRANCH   3   5
BRANCH   3   7
HETATM    7  C   UNL     1      37.525 -11.560  -0.990  1.00  0.00     0.231 C 
HETATM    8  C   UNL     1      37.577 -10.713  -2.250  1.00  0.00     0.034 C 
ENDBRANCH   3   7
ENDBRANCH   2   3
BRANCH   2   9
HETATM    9  C   UNL     1      39.934 -11.858   0.415  1.00  0.00    -0.023 A 
HETATM   10  C   UNL     1      40.949 -11.200  -0.305  1.00  0.00     0.046 A 
HETATM   11  C   UNL     1      41.491 -10.003   0.170  1.00  0.00     0.068 A 
HETATM   12  C   UNL     1      40.984  -9.419   1.327  1.00  0.00     0.037 A 
HETATM   13  C   UNL     1      39.981 -10.059   2.050  1.00  0.00     0.003 A 
HETATM   14  C   UNL     1      39.470 -11.278   1.607  1.00  0.00     0.009 A 
BRANCH  11  15
HETATM   15  O   UNL     1      42.474  -9.311  -0.477  1.00  0.00    -0.356 OA
HETATM   16  C   UNL     1      42.085  -8.007  -0.906  1.00  0.00     0.210 C 
ENDBRANCH  11  15
ENDBRANCH   2   9
ENDBRANCH   1   2
BRANCH   1  17
HETATM   17  N   UNL     1      41.309 -14.617   0.457  1.00  0.00    -0.354 N 
HETATM   18  C   UNL     1      40.840 -15.583   1.326  1.00  0.00     0.253 C 
HETATM   19  O   UNL     1      39.745 -16.115   1.188  1.00  0.00    -0.268 OA
HETATM   20  H   UNL     1      42.148 -14.109   0.725  1.00  0.00     0.162 HD
BRANCH  18  21
HETATM   21  C   UNL     1      41.775 -15.935   2.415  1.00  0.00     0.053 A 
HETATM   22  C   UNL     1      42.151 -14.997   3.398  1.00  0.00     0.026 A 
HETATM   23  C   UNL     1      43.074 -15.441   4.361  1.00  0.00     0.025 A 
HETATM   24  C   UNL     1      43.622 -16.732   4.324  1.00  0.00     0.008 A 
HETATM   25  C   UNL     1      43.254 -17.636   3.327  1.00  0.00    -0.061 A 
HETATM   26  C   UNL     1      43.838 -19.016   3.275  1.00  0.00     0.048 C 
HETATM   27  C   UNL     1      42.319 -17.231   2.372  1.00  0.00     0.025 A 
BRANCH  22  28
HETATM   28  N   UNL     1      41.612 -13.695   3.419  1.00  0.00    -0.283 NA
HETATM   29  C   UNL     1      42.518 -12.550   3.190  1.00  0.00     0.096 C 
HETATM   30  C   UNL     1      42.537 -11.788   4.508  1.00  0.00     0.016 C 
HETATM   31  C   UNL     1      41.120 -11.986   5.008  1.00  0.00     0.016 C 
HETATM   32  C   UNL     1      40.847 -13.448   4.667  1.00  0.00     0.096 C 
ENDBRANCH  22  28
ENDBRANCH  18  21
ENDBRANCH   1  17
TORSDOF 9
ENDMDL
MODEL 10
REMARK VINA RESULT:      -6.7      1.901      3.830
REMARK  9 active torsions:
REMARK  status: ('A' for Active; 'I' for Inactive)
REMARK    1  A    between atoms: C_2  and  N_3 
REMARK    2  A    between atoms: N_3  and  C_30 
REMARK    3  A    between atoms: N_3  and  C_5 
REMARK    4  A    between atoms: C_5  and  C_6 
REMARK    5  A    between atoms: C_5  and  C_14 
REMARK    6  A    between atoms: C_8  and  O_9 
REMARK    7  A    between atoms: C_14  and  N_15 
REMARK       I    between atoms: N_15  and  C_16 
REMARK    8  A    between atoms: C_16  and  C_17 
REMARK    9  A    between atoms: C_18  and  N_19 
ROOT
HETATM    1  C   UNL     1      41.339 -13.075   6.123  1.00  0.00     0.161 C 
ENDROOT
BRANCH   1   2
HETATM    2  C   UNL     1      40.989 -11.685   5.491  1.00  0.00     0.238 C 
BRANCH   2   3
HETATM    3  N   UNL     1      41.402 -11.598   3.990  1.00  0.00    -0.062 N 
HETATM    4  H   UNL     1      41.624 -12.562   3.719  1.00  0.00     0.280 HD
BRANCH   3   5
HETATM    5  C   UNL     1      42.706 -10.827   3.784  1.00  0.00     0.231 C 
HETATM    6  C   UNL     1      43.900 -11.729   3.530  1.00  0.00     0.034 C 
ENDBRANCH   3   5
BRANCH   3   7
HETATM    7  C   UNL     1      40.269 -11.143   3.083  1.00  0.00     0.231 C 
HETATM    8  C   UNL     1      39.062 -12.062   3.167  1.00  0.00     0.034 C 
ENDBRANCH   3   7
ENDBRANCH   2   3
BRANCH   2   9
HETATM    9  C   UNL     1      41.638 -10.569   6.306  1.00  0.00    -0.023 A 
HETATM   10  C   UNL     1      42.855 -10.761   6.987  1.00  0.00     0.046 A 
HETATM   11  C   UNL     1      43.428  -9.719   7.720  1.00  0.00     0.068 A 
HETATM   12  C   UNL     1      42.830  -8.462   7.729  1.00  0.00     0.037 A 
HETATM   13  C   UNL     1      41.626  -8.257   7.061  1.00  0.00     0.003 A 
HETATM   14  C   UNL     1      41.025  -9.307   6.367  1.00  0.00     0.009 A 
BRANCH  11  15
HETATM   15  O   UNL     1      44.606  -9.835   8.402  1.00  0.00    -0.356 OA
HETATM   16  C   UNL     1      45.475 -10.847   7.898  1.00  0.00     0.210 C 
ENDBRANCH  11  15
ENDBRANCH   2   9
ENDBRANCH   1   2
BRANCH   1  17
HETATM   17  N   UNL     1      41.836 -14.039   5.163  1.00  0.00    -0.354 N 
HETATM   18  C   UNL     1      41.632 -15.387   5.386  1.00  0.00     0.253 C 
HETATM   19  O   UNL     1      40.959 -15.804   6.320  1.00  0.00    -0.268 OA
HETATM   20  H   UNL     1      42.532 -13.775   4.472  1.00  0.00     0.162 HD
BRANCH  18  21
HETATM   21  C   UNL     1      42.270 -16.276   4.392  1.00  0.00     0.053 A 
HETATM   22  C   UNL     1      42.026 -16.135   3.010  1.00  0.00     0.026 A 
HETATM   23  C   UNL     1      42.663 -17.062   2.168  1.00  0.00     0.025 A 
HETATM   24  C   UNL     1      43.467 -18.095   2.674  1.00  0.00     0.008 A 
HETATM   25  C   UNL     1      43.675 -18.230   4.047  1.00  0.00    -0.061 A 
HETATM   26  C   UNL     1      44.527 -19.334   4.599  1.00  0.00     0.048 C 
HETATM   27  C   UNL     1      43.075 -17.307   4.907  1.00  0.00     0.025 A 
BRANCH  22  28
HETATM   28  N   UNL     1      41.202 -15.108   2.509  1.00  0.00    -0.283 NA
HETATM   29  C   UNL     1      39.893 -15.470   1.927  1.00  0.00     0.096 C 
HETATM   30  C   UNL     1      40.003 -15.120   0.450  1.00  0.00     0.016 C 
HETATM   31  C   UNL     1      40.890 -13.891   0.481  1.00  0.00     0.016 C 
HETATM   32  C   UNL     1      41.932 -14.258   1.534  1.00  0.00     0.096 C 
ENDBRANCH  22  28
ENDBRANCH  18  21
ENDBRANCH   1  17
TORSDOF 9
ENDMDL
