MODEL 1
REMARK VINA RESULT:      -8.7      0.000      0.000
REMARK  10 active torsions:
REMARK  status: ('A' for Active; 'I' for Inactive)
REMARK    1  A    between atoms: C_4  and  N_5 
REMARK    2  A    between atoms: N_5  and  C_6 
REMARK    3  A    between atoms: C_6  and  N_7 
REMARK    4  A    between atoms: N_7  and  N_8 
REMARK       I    between atoms: N_8  and  C_9 
REMARK    5  A    between atoms: C_9  and  C_10 
REMARK    6  A    between atoms: C_10  and  O_11 
REMARK    7  A    between atoms: O_11  and  C_12 
REMARK    8  A    between atoms: C_23  and  C_24 
REMARK    9  A    between atoms: C_24  and  O_25 
REMARK   10  A    between atoms: C_28  and  C_29 
ROOT
HETATM    1  C   UNL     1      41.381 -12.440   5.879  1.00  0.00     0.191 C 
HETATM    2  S   UNL     1      40.363 -11.110   6.031  1.00  0.00    -0.039 SA
ENDROOT
BRANCH   1   3
HETATM    3  N   UNL     1      40.973 -13.448   5.040  1.00  0.00    -0.325 N 
HETATM    4  H   UNL     1      40.074 -13.821   5.335  1.00  0.00     0.169 HD
BRANCH   3   5
HETATM    5  C   UNL     1      41.803 -14.402   4.473  1.00  0.00     0.094 C 
HETATM    6  S   UNL     1      42.432 -13.838   2.992  1.00  0.00    -0.075 SA
HETATM    7  C   UNL     1      43.028 -15.382   2.580  1.00  0.00    -0.007 C 
HETATM    8  C   UNL     1      43.622 -15.597   1.223  1.00  0.00     0.057 C 
HETATM    9  C   UNL     1      42.870 -16.278   3.626  1.00  0.00     0.006 C 
HETATM   10  C   UNL     1      42.292 -15.654   4.809  1.00  0.00     0.085 C 
BRANCH   9  11
HETATM   11  C   UNL     1      43.216 -17.687   3.459  1.00  0.00    -0.024 A 
HETATM   12  C   UNL     1      42.707 -18.384   2.354  1.00  0.00     0.012 A 
HETATM   13  C   UNL     1      43.029 -19.726   2.160  1.00  0.00     0.001 A 
HETATM   14  C   UNL     1      43.863 -20.379   3.066  1.00  0.00     0.000 A 
HETATM   15  C   UNL     1      44.371 -19.691   4.169  1.00  0.00     0.001 A 
HETATM   16  C   UNL     1      44.047 -18.348   4.369  1.00  0.00     0.012 A 
ENDBRANCH   9  11
BRANCH  10  17
HETATM   17  C   UNL     1      42.239 -16.230   6.156  1.00  0.00     0.296 C 
HETATM   18  O   UNL     1      41.478 -17.139   6.468  1.00  0.00    -0.259 OA
BRANCH  17  19
HETATM   19  O   UNL     1      43.076 -15.622   7.044  1.00  0.00    -0.322 OA
HETATM   20  C   UNL     1      44.430 -16.071   6.986  1.00  0.00     0.213 C 
ENDBRANCH  17  19
ENDBRANCH  10  17
ENDBRANCH   3   5
ENDBRANCH   1   3
BRANCH   1  21
HETATM   21  N   UNL     1      42.525 -12.619   6.608  1.00  0.00    -0.273 N 
HETATM   22  H   UNL     1      43.259 -13.155   6.139  1.00  0.00     0.189 HD
BRANCH  21  23
HETATM   23  N   UNL     1      43.043 -11.593   7.420  1.00  0.00    -0.266 N 
HETATM   24  C   UNL     1      44.417 -11.482   7.517  1.00  0.00     0.265 C 
HETATM   25  O   UNL     1      45.201 -12.134   6.826  1.00  0.00    -0.269 OA
HETATM   26  H   UNL     1      42.436 -11.239   8.159  1.00  0.00     0.190 HD
BRANCH  24  27
HETATM   27  C   UNL     1      44.898 -10.462   8.553  1.00  0.00     0.218 C 
HETATM   28  C   UNL     1      46.135  -9.736   8.032  1.00  0.00     0.050 C 
BRANCH  27  29
HETATM   29  O   UNL     1      43.894  -9.476   8.800  1.00  0.00    -0.335 OA
BRANCH  29  30
HETATM   30  C   UNL     1      43.500  -9.308  10.102  1.00  0.00     0.091 A 
HETATM   31  C   UNL     1      43.227  -8.000  10.533  1.00  0.00     0.068 A 
HETATM   32 CL   UNL     1      43.431  -6.649   9.472  1.00  0.00    -0.081 Cl
HETATM   33  C   UNL     1      42.800  -7.751  11.839  1.00  0.00     0.046 A 
HETATM   34  C   UNL     1      42.630  -8.816  12.717  1.00  0.00     0.012 A 
HETATM   35 BR   UNL     1      42.053  -8.491  14.487  1.00  0.00    -0.051 Br
HETATM   36  C   UNL     1      42.875 -10.123  12.300  1.00  0.00     0.022 A 
HETATM   37  C   UNL     1      43.304 -10.370  10.993  1.00  0.00     0.040 A 
ENDBRANCH  29  30
ENDBRANCH  27  29
ENDBRANCH  24  27
ENDBRANCH  21  23
ENDBRANCH   1  21
TORSDOF 10
ENDMDL
MODEL 2
REMARK VINA RESULT:      -8.7      2.813      4.211
REMARK  10 active torsions:
REMARK  status: ('A' for Active; 'I' for Inactive)
REMARK    1  A    between atoms: C_4  and  N_5 
REMARK    2  A    between atoms: N_5  and  C_6 
REMARK    3  A    between atoms: C_6  and  N_7 
REMARK    4  A    between atoms: N_7  and  N_8 
REMARK       I    between atoms: N_8  and  C_9 
REMARK    5  A    between atoms: C_9  and  C_10 
REMARK    6  A    between atoms: C_10  and  O_11 
REMARK    7  A    between atoms: O_11  and  C_12 
REMARK    8  A    between atoms: C_23  and  C_24 
REMARK    9  A    between atoms: C_24  and  O_25 
REMARK   10  A    between atoms: C_28  and  C_29 
ROOT
HETATM    1  C   UNL     1      43.914 -11.361   7.187  1.00  0.00     0.191 C 
HETATM    2  S   UNL     1      45.574 -11.319   6.929  1.00  0.00    -0.039 SA
ENDROOT
BRANCH   1   3
HETATM    3  N   UNL     1      43.352 -12.586   7.453  1.00  0.00    -0.325 N 
HETATM    4  H   UNL     1      43.824 -13.038   8.232  1.00  0.00     0.169 HD
BRANCH   3   5
HETATM    5  C   UNL     1      42.891 -13.479   6.499  1.00  0.00     0.094 C 
HETATM    6  S   UNL     1      43.831 -14.902   6.512  1.00  0.00    -0.075 SA
HETATM    7  C   UNL     1      43.145 -15.450   5.050  1.00  0.00    -0.007 C 
HETATM    8  C   UNL     1      43.689 -16.685   4.406  1.00  0.00     0.057 C 
HETATM    9  C   UNL     1      42.112 -14.621   4.637  1.00  0.00     0.006 C 
HETATM   10  C   UNL     1      41.853 -13.543   5.583  1.00  0.00     0.085 C 
BRANCH   9  11
HETATM   11  C   UNL     1      41.448 -14.840   3.355  1.00  0.00    -0.024 A 
HETATM   12  C   UNL     1      40.347 -15.707   3.302  1.00  0.00     0.012 A 
HETATM   13  C   UNL     1      39.683 -15.927   2.095  1.00  0.00     0.001 A 
HETATM   14  C   UNL     1      40.115 -15.282   0.937  1.00  0.00     0.000 A 
HETATM   15  C   UNL     1      41.212 -14.421   0.984  1.00  0.00     0.001 A 
HETATM   16  C   UNL     1      41.881 -14.201   2.189  1.00  0.00     0.012 A 
ENDBRANCH   9  11
BRANCH  10  17
HETATM   17  C   UNL     1      40.681 -12.663   5.596  1.00  0.00     0.296 C 
HETATM   18  O   UNL     1      39.539 -13.069   5.781  1.00  0.00    -0.259 OA
BRANCH  17  19
HETATM   19  O   UNL     1      40.973 -11.358   5.330  1.00  0.00    -0.322 OA
HETATM   20  C   UNL     1      39.833 -10.511   5.192  1.00  0.00     0.213 C 
ENDBRANCH  17  19
ENDBRANCH  10  17
ENDBRANCH   3   5
ENDBRANCH   1   3
BRANCH   1  21
HETATM   21  N   UNL     1      43.087 -10.279   7.051  1.00  0.00    -0.273 N 
HETATM   22  H   UNL     1      42.719 -10.129   6.109  1.00  0.00     0.189 HD
BRANCH  21  23
HETATM   23  N   UNL     1      42.158  -9.938   8.052  1.00  0.00    -0.266 N 
HETATM   24  C   UNL     1      42.589  -9.115   9.075  1.00  0.00     0.265 C 
HETATM   25  O   UNL     1      43.687  -8.556   9.081  1.00  0.00    -0.269 OA
HETATM   26  H   UNL     1      41.371 -10.572   8.186  1.00  0.00     0.190 HD
BRANCH  24  27
HETATM   27  C   UNL     1      41.578  -8.936  10.212  1.00  0.00     0.218 C 
HETATM   28  C   UNL     1      40.220  -9.489   9.791  1.00  0.00     0.050 C 
BRANCH  27  29
HETATM   29  O   UNL     1      41.991  -9.654  11.376  1.00  0.00    -0.335 OA
BRANCH  29  30
HETATM   30  C   UNL     1      42.047  -8.947  12.550  1.00  0.00     0.091 A 
HETATM   31  C   UNL     1      41.107  -9.266  13.544  1.00  0.00     0.068 A 
HETATM   32 CL   UNL     1      39.895 -10.469  13.274  1.00  0.00    -0.081 Cl
HETATM   33  C   UNL     1      41.115  -8.605  14.774  1.00  0.00     0.046 A 
HETATM   34  C   UNL     1      42.076  -7.630  15.020  1.00  0.00     0.012 A 
HETATM   35 BR   UNL     1      42.095  -6.729  16.681  1.00  0.00    -0.051 Br
HETATM   36  C   UNL     1      43.030  -7.317  14.054  1.00  0.00     0.022 A 
HETATM   37  C   UNL     1      43.019  -7.978  12.823  1.00  0.00     0.040 A 
ENDBRANCH  29  30
ENDBRANCH  27  29
ENDBRANCH  24  27
ENDBRANCH  21  23
ENDBRANCH   1  21
TORSDOF 10
ENDMDL
MODEL 3
REMARK VINA RESULT:      -8.6      4.074     10.383
REMARK  10 active torsions:
REMARK  status: ('A' for Active; 'I' for Inactive)
REMARK    1  A    between atoms: C_4  and  N_5 
REMARK    2  A    between atoms: N_5  and  C_6 
REMARK    3  A    between atoms: C_6  and  N_7 
REMARK    4  A    between atoms: N_7  and  N_8 
REMARK       I    between atoms: N_8  and  C_9 
REMARK    5  A    between atoms: C_9  and  C_10 
REMARK    6  A    between atoms: C_10  and  O_11 
REMARK    7  A    between atoms: O_11  and  C_12 
REMARK    8  A    between atoms: C_23  and  C_24 
REMARK    9  A    between atoms: C_24  and  O_25 
REMARK   10  A    between atoms: C_28  and  C_29 
ROOT
HETATM    1  C   UNL     1      42.425 -10.538   6.420  1.00  0.00     0.191 C 
HETATM    2  S   UNL     1      42.274 -10.431   4.750  1.00  0.00    -0.039 SA
ENDROOT
BRANCH   1   3
HETATM    3  N   UNL     1      42.399  -9.361   7.128  1.00  0.00    -0.325 N 
HETATM    4  H   UNL     1      43.208  -8.787   6.904  1.00  0.00     0.169 HD
BRANCH   3   5
HETATM    5  C   UNL     1      41.979  -9.226   8.441  1.00  0.00     0.094 C 
HETATM    6  S   UNL     1      40.313  -8.865   8.499  1.00  0.00    -0.075 SA
HETATM    7  C   UNL     1      40.386  -8.476  10.158  1.00  0.00    -0.007 C 
HETATM    8  C   UNL     1      39.174  -7.911  10.829  1.00  0.00     0.057 C 
HETATM    9  C   UNL     1      41.637  -8.756  10.686  1.00  0.00     0.006 C 
HETATM   10  C   UNL     1      42.533  -9.355   9.705  1.00  0.00     0.085 C 
BRANCH   9  11
HETATM   11  C   UNL     1      41.959  -8.406  12.067  1.00  0.00    -0.024 A 
HETATM   12  C   UNL     1      42.559  -7.166  12.329  1.00  0.00     0.012 A 
HETATM   13  C   UNL     1      42.866  -6.796  13.638  1.00  0.00     0.001 A 
HETATM   14  C   UNL     1      42.574  -7.661  14.691  1.00  0.00     0.000 A 
HETATM   15  C   UNL     1      41.978  -8.897  14.436  1.00  0.00     0.001 A 
HETATM   16  C   UNL     1      41.673  -9.272  13.126  1.00  0.00     0.012 A 
ENDBRANCH   9  11
BRANCH  10  17
HETATM   17  C   UNL     1      43.813 -10.012   9.985  1.00  0.00     0.296 C 
HETATM   18  O   UNL     1      43.925 -10.966  10.747  1.00  0.00    -0.259 OA
BRANCH  17  19
HETATM   19  O   UNL     1      44.875  -9.428   9.362  1.00  0.00    -0.322 OA
HETATM   20  C   UNL     1      45.655 -10.315   8.561  1.00  0.00     0.213 C 
ENDBRANCH  17  19
ENDBRANCH  10  17
ENDBRANCH   3   5
ENDBRANCH   1   3
BRANCH   1  21
HETATM   21  N   UNL     1      42.670 -11.701   7.097  1.00  0.00    -0.273 N 
HETATM   22  H   UNL     1      42.731 -11.608   8.114  1.00  0.00     0.189 HD
BRANCH  21  23
HETATM   23  N   UNL     1      42.077 -12.915   6.703  1.00  0.00    -0.266 N 
HETATM   24  C   UNL     1      42.909 -14.000   6.496  1.00  0.00     0.265 C 
HETATM   25  O   UNL     1      44.109 -13.998   6.774  1.00  0.00    -0.269 OA
HETATM   26  H   UNL     1      41.169 -12.857   6.243  1.00  0.00     0.190 HD
BRANCH  24  27
HETATM   27  C   UNL     1      42.213 -15.227   5.900  1.00  0.00     0.218 C 
HETATM   28  C   UNL     1      40.714 -15.158   6.173  1.00  0.00     0.050 C 
BRANCH  27  29
HETATM   29  O   UNL     1      42.389 -15.272   4.483  1.00  0.00    -0.335 OA
BRANCH  29  30
HETATM   30  C   UNL     1      42.744 -16.481   3.942  1.00  0.00     0.091 A 
HETATM   31  C   UNL     1      42.094 -16.879   2.762  1.00  0.00     0.068 A 
HETATM   32 CL   UNL     1      40.858 -15.902   2.050  1.00  0.00    -0.081 Cl
HETATM   33  C   UNL     1      42.417 -18.087   2.140  1.00  0.00     0.046 A 
HETATM   34  C   UNL     1      43.405 -18.896   2.691  1.00  0.00     0.012 A 
HETATM   35 BR   UNL     1      43.849 -20.534   1.859  1.00  0.00    -0.051 Br
HETATM   36  C   UNL     1      44.075 -18.507   3.849  1.00  0.00     0.022 A 
HETATM   37  C   UNL     1      43.749 -17.298   4.471  1.00  0.00     0.040 A 
ENDBRANCH  29  30
ENDBRANCH  27  29
ENDBRANCH  24  27
ENDBRANCH  21  23
ENDBRANCH   1  21
TORSDOF 10
ENDMDL
MODEL 4
REMARK VINA RESULT:      -8.5      4.207     10.232
REMARK  10 active torsions:
REMARK  status: ('A' for Active; 'I' for Inactive)
REMARK    1  A    between atoms: C_4  and  N_5 
REMARK    2  A    between atoms: N_5  and  C_6 
REMARK    3  A    between atoms: C_6  and  N_7 
REMARK    4  A    between atoms: N_7  and  N_8 
REMARK       I    between atoms: N_8  and  C_9 
REMARK    5  A    between atoms: C_9  and  C_10 
REMARK    6  A    between atoms: C_10  and  O_11 
REMARK    7  A    between atoms: O_11  and  C_12 
REMARK    8  A    between atoms: C_23  and  C_24 
REMARK    9  A    between atoms: C_24  and  O_25 
REMARK   10  A    between atoms: C_28  and  C_29 
ROOT
HETATM    1  C   UNL     1      41.242 -10.269   6.123  1.00  0.00     0.191 C 
HETATM    2  S   UNL     1      40.374  -9.904   4.732  1.00  0.00    -0.039 SA
ENDROOT
BRANCH   1   3
HETATM    3  N   UNL     1      42.220  -9.382   6.502  1.00  0.00    -0.325 N 
HETATM    4  H   UNL     1      42.963  -9.348   5.809  1.00  0.00     0.169 HD
BRANCH   3   5
HETATM    5  C   UNL     1      42.670  -9.193   7.799  1.00  0.00     0.094 C 
HETATM    6  S   UNL     1      44.266  -9.770   7.965  1.00  0.00    -0.075 SA
HETATM    7  C   UNL     1      44.205  -9.648   9.666  1.00  0.00    -0.007 C 
HETATM    8  C   UNL     1      45.348 -10.171  10.477  1.00  0.00     0.057 C 
HETATM    9  C   UNL     1      43.031  -9.041  10.084  1.00  0.00     0.006 C 
HETATM   10  C   UNL     1      42.193  -8.623   8.968  1.00  0.00     0.085 C 
BRANCH   9  11
HETATM   11  C   UNL     1      42.718  -8.925  11.506  1.00  0.00    -0.024 A 
HETATM   12  C   UNL     1      43.317  -7.899  12.250  1.00  0.00     0.012 A 
HETATM   13  C   UNL     1      43.029  -7.754  13.607  1.00  0.00     0.001 A 
HETATM   14  C   UNL     1      42.140  -8.631  14.227  1.00  0.00     0.000 A 
HETATM   15  C   UNL     1      41.543  -9.655  13.491  1.00  0.00     0.001 A 
HETATM   16  C   UNL     1      41.832  -9.807  12.133  1.00  0.00     0.012 A 
ENDBRANCH   9  11
BRANCH  10  17
HETATM   17  C   UNL     1      41.034  -7.727   9.040  1.00  0.00     0.296 C 
HETATM   18  O   UNL     1      41.105  -6.568   9.432  1.00  0.00    -0.259 OA
BRANCH  17  19
HETATM   19  O   UNL     1      39.861  -8.321   8.682  1.00  0.00    -0.322 OA
HETATM   20  C   UNL     1      39.016  -8.673   9.777  1.00  0.00     0.213 C 
ENDBRANCH  17  19
ENDBRANCH  10  17
ENDBRANCH   3   5
ENDBRANCH   1   3
BRANCH   1  21
HETATM   21  N   UNL     1      41.103 -11.430   6.834  1.00  0.00    -0.273 N 
HETATM   22  H   UNL     1      40.193 -11.557   7.285  1.00  0.00     0.189 HD
BRANCH  21  23
HETATM   23  N   UNL     1      41.647 -12.642   6.370  1.00  0.00    -0.266 N 
HETATM   24  C   UNL     1      40.787 -13.712   6.206  1.00  0.00     0.265 C 
HETATM   25  O   UNL     1      39.563 -13.621   6.307  1.00  0.00    -0.269 OA
HETATM   26  H   UNL     1      42.643 -12.790   6.527  1.00  0.00     0.190 HD
BRANCH  24  27
HETATM   27  C   UNL     1      41.481 -15.036   5.872  1.00  0.00     0.218 C 
HETATM   28  C   UNL     1      40.472 -16.179   5.928  1.00  0.00     0.050 C 
BRANCH  27  29
HETATM   29  O   UNL     1      42.021 -15.006   4.550  1.00  0.00    -0.335 OA
BRANCH  29  30
HETATM   30  C   UNL     1      42.460 -16.198   4.034  1.00  0.00     0.091 A 
HETATM   31  C   UNL     1      41.865 -16.648   2.845  1.00  0.00     0.068 A 
HETATM   32 CL   UNL     1      40.590 -15.757   2.090  1.00  0.00    -0.081 Cl
HETATM   33  C   UNL     1      42.274 -17.843   2.248  1.00  0.00     0.046 A 
HETATM   34  C   UNL     1      43.294 -18.585   2.833  1.00  0.00     0.012 A 
HETATM   35 BR   UNL     1      43.856 -20.203   2.034  1.00  0.00    -0.051 Br
HETATM   36  C   UNL     1      43.912 -18.142   4.001  1.00  0.00     0.022 A 
HETATM   37  C   UNL     1      43.500 -16.947   4.598  1.00  0.00     0.040 A 
ENDBRANCH  29  30
ENDBRANCH  27  29
ENDBRANCH  24  27
ENDBRANCH  21  23
ENDBRANCH   1  21
TORSDOF 10
ENDMDL
MODEL 5
REMARK VINA RESULT:      -8.3      4.118     10.207
REMARK  10 active torsions:
REMARK  status: ('A' for Active; 'I' for Inactive)
REMARK    1  A    between atoms: C_4  and  N_5 
REMARK    2  A    between atoms: N_5  and  C_6 
REMARK    3  A    between atoms: C_6  and  N_7 
REMARK    4  A    between atoms: N_7  and  N_8 
REMARK       I    between atoms: N_8  and  C_9 
REMARK    5  A    between atoms: C_9  and  C_10 
REMARK    6  A    between atoms: C_10  and  O_11 
REMARK    7  A    between atoms: O_11  and  C_12 
REMARK    8  A    between atoms: C_23  and  C_24 
REMARK    9  A    between atoms: C_24  and  O_25 
REMARK   10  A    between atoms: C_28  and  C_29 
ROOT
HETATM    1  C   UNL     1      40.829 -10.302   6.354  1.00  0.00     0.191 C 
HETATM    2  S   UNL     1      39.426  -9.568   5.794  1.00  0.00    -0.039 SA
ENDROOT
BRANCH   1   3
HETATM    3  N   UNL     1      41.896  -9.483   6.635  1.00  0.00    -0.325 N 
HETATM    4  H   UNL     1      42.610  -9.562   5.916  1.00  0.00     0.169 HD
BRANCH   3   5
HETATM    5  C   UNL     1      42.414  -9.248   7.899  1.00  0.00     0.094 C 
HETATM    6  S   UNL     1      44.030  -9.784   7.988  1.00  0.00    -0.075 SA
HETATM    7  C   UNL     1      44.063  -9.617   9.685  1.00  0.00    -0.007 C 
HETATM    8  C   UNL     1      45.262 -10.092  10.443  1.00  0.00     0.057 C 
HETATM    9  C   UNL     1      42.899  -9.026  10.155  1.00  0.00     0.006 C 
HETATM   10  C   UNL     1      41.990  -8.657   9.078  1.00  0.00     0.085 C 
BRANCH   9  11
HETATM   11  C   UNL     1      42.665  -8.879  11.589  1.00  0.00    -0.024 A 
HETATM   12  C   UNL     1      43.274  -7.815  12.269  1.00  0.00     0.012 A 
HETATM   13  C   UNL     1      43.060  -7.639  13.636  1.00  0.00     0.001 A 
HETATM   14  C   UNL     1      42.235  -8.524  14.329  1.00  0.00     0.000 A 
HETATM   15  C   UNL     1      41.628  -9.586  13.657  1.00  0.00     0.001 A 
HETATM   16  C   UNL     1      41.843  -9.767  12.290  1.00  0.00     0.012 A 
ENDBRANCH   9  11
BRANCH  10  17
HETATM   17  C   UNL     1      40.816  -7.787   9.193  1.00  0.00     0.296 C 
HETATM   18  O   UNL     1      39.664  -8.205   9.152  1.00  0.00    -0.259 OA
BRANCH  17  19
HETATM   19  O   UNL     1      41.124  -6.463   9.294  1.00  0.00    -0.322 OA
HETATM   20  C   UNL     1      41.296  -5.797   8.043  1.00  0.00     0.213 C 
ENDBRANCH  17  19
ENDBRANCH  10  17
ENDBRANCH   3   5
ENDBRANCH   1   3
BRANCH   1  21
HETATM   21  N   UNL     1      41.003 -11.656   6.451  1.00  0.00    -0.273 N 
HETATM   22  H   UNL     1      40.161 -12.186   6.688  1.00  0.00     0.189 HD
BRANCH  21  23
HETATM   23  N   UNL     1      41.843 -12.351   5.562  1.00  0.00    -0.266 N 
HETATM   24  C   UNL     1      41.257 -12.974   4.476  1.00  0.00     0.265 C 
HETATM   25  O   UNL     1      40.071 -12.835   4.172  1.00  0.00    -0.269 OA
HETATM   26  H   UNL     1      42.739 -12.672   5.929  1.00  0.00     0.190 HD
BRANCH  24  27
HETATM   27  C   UNL     1      42.209 -13.852   3.660  1.00  0.00     0.218 C 
HETATM   28  C   UNL     1      43.345 -13.004   3.097  1.00  0.00     0.050 C 
BRANCH  27  29
HETATM   29  O   UNL     1      42.795 -14.864   4.480  1.00  0.00    -0.335 OA
BRANCH  29  30
HETATM   30  C   UNL     1      42.985 -16.094   3.904  1.00  0.00     0.091 A 
HETATM   31  C   UNL     1      43.852 -16.987   4.554  1.00  0.00     0.068 A 
HETATM   32 CL   UNL     1      44.687 -16.531   5.998  1.00  0.00    -0.081 Cl
HETATM   33  C   UNL     1      44.079 -18.266   4.040  1.00  0.00     0.046 A 
HETATM   34  C   UNL     1      43.425 -18.661   2.878  1.00  0.00     0.012 A 
HETATM   35 BR   UNL     1      43.725 -20.389   2.173  1.00  0.00    -0.051 Br
HETATM   36  C   UNL     1      42.544 -17.796   2.233  1.00  0.00     0.022 A 
HETATM   37  C   UNL     1      42.319 -16.516   2.748  1.00  0.00     0.040 A 
ENDBRANCH  29  30
ENDBRANCH  27  29
ENDBRANCH  24  27
ENDBRANCH  21  23
ENDBRANCH   1  21
TORSDOF 10
ENDMDL
MODEL 6
REMARK VINA RESULT:      -8.3      2.019      2.976
REMARK  10 active torsions:
REMARK  status: ('A' for Active; 'I' for Inactive)
REMARK    1  A    between atoms: C_4  and  N_5 
REMARK    2  A    between atoms: N_5  and  C_6 
REMARK    3  A    between atoms: C_6  and  N_7 
REMARK    4  A    between atoms: N_7  and  N_8 
REMARK       I    between atoms: N_8  and  C_9 
REMARK    5  A    between atoms: C_9  and  C_10 
REMARK    6  A    between atoms: C_10  and  O_11 
REMARK    7  A    between atoms: O_11  and  C_12 
REMARK    8  A    between atoms: C_23  and  C_24 
REMARK    9  A    between atoms: C_24  and  O_25 
REMARK   10  A    between atoms: C_28  and  C_29 
ROOT
HETATM    1  C   UNL     1      41.323 -10.827   6.066  1.00  0.00     0.191 C 
HETATM    2  S   UNL     1      39.983 -10.077   6.748  1.00  0.00    -0.039 SA
ENDROOT
BRANCH   1   3
HETATM    3  N   UNL     1      41.132 -11.488   4.877  1.00  0.00    -0.325 N 
HETATM    4  H   UNL     1      40.402 -11.042   4.329  1.00  0.00     0.169 HD
BRANCH   3   5
HETATM    5  C   UNL     1      41.181 -12.863   4.710  1.00  0.00     0.094 C 
HETATM    6  S   UNL     1      40.100 -13.631   5.781  1.00  0.00    -0.075 SA
HETATM    7  C   UNL     1      40.762 -15.169   5.454  1.00  0.00    -0.007 C 
HETATM    8  C   UNL     1      40.294 -16.349   6.245  1.00  0.00     0.057 C 
HETATM    9  C   UNL     1      41.700 -15.106   4.434  1.00  0.00     0.006 C 
HETATM   10  C   UNL     1      41.829 -13.765   3.880  1.00  0.00     0.085 C 
BRANCH   9  11
HETATM   11  C   UNL     1      42.470 -16.288   4.057  1.00  0.00    -0.024 A 
HETATM   12  C   UNL     1      42.155 -16.949   2.861  1.00  0.00     0.012 A 
HETATM   13  C   UNL     1      42.880 -18.073   2.467  1.00  0.00     0.001 A 
HETATM   14  C   UNL     1      43.925 -18.541   3.263  1.00  0.00     0.000 A 
HETATM   15  C   UNL     1      44.241 -17.887   4.454  1.00  0.00     0.001 A 
HETATM   16  C   UNL     1      43.515 -16.764   4.855  1.00  0.00     0.012 A 
ENDBRANCH   9  11
BRANCH  10  17
HETATM   17  C   UNL     1      42.515 -13.401   2.637  1.00  0.00     0.296 C 
HETATM   18  O   UNL     1      43.628 -12.886   2.610  1.00  0.00    -0.259 OA
BRANCH  17  19
HETATM   19  O   UNL     1      41.778 -13.638   1.516  1.00  0.00    -0.322 OA
HETATM   20  C   UNL     1      41.264 -12.466   0.885  1.00  0.00     0.213 C 
ENDBRANCH  17  19
ENDBRANCH  10  17
ENDBRANCH   3   5
ENDBRANCH   1   3
BRANCH   1  21
HETATM   21  N   UNL     1      42.550 -10.901   6.665  1.00  0.00    -0.273 N 
HETATM   22  H   UNL     1      43.349 -10.818   6.032  1.00  0.00     0.189 HD
BRANCH  21  23
HETATM   23  N   UNL     1      42.791 -10.303   7.916  1.00  0.00    -0.266 N 
HETATM   24  C   UNL     1      43.854 -10.777   8.661  1.00  0.00     0.265 C 
HETATM   25  O   UNL     1      44.677 -11.587   8.232  1.00  0.00    -0.269 OA
HETATM   26  H   UNL     1      42.002  -9.841   8.366  1.00  0.00     0.190 HD
BRANCH  24  27
HETATM   27  C   UNL     1      43.941 -10.202  10.078  1.00  0.00     0.218 C 
HETATM   28  C   UNL     1      45.341  -9.650  10.329  1.00  0.00     0.050 C 
BRANCH  27  29
HETATM   29  O   UNL     1      43.019  -9.123  10.245  1.00  0.00    -0.335 OA
BRANCH  29  30
HETATM   30  C   UNL     1      42.804  -8.687  11.527  1.00  0.00     0.091 A 
HETATM   31  C   UNL     1      42.682  -7.302  11.728  1.00  0.00     0.068 A 
HETATM   32 CL   UNL     1      42.848  -6.190  10.415  1.00  0.00    -0.081 Cl
HETATM   33  C   UNL     1      42.441  -6.783  13.002  1.00  0.00     0.046 A 
HETATM   34  C   UNL     1      42.306  -7.652  14.080  1.00  0.00     0.012 A 
HETATM   35 BR   UNL     1      41.981  -6.961  15.809  1.00  0.00    -0.051 Br
HETATM   36  C   UNL     1      42.402  -9.030  13.895  1.00  0.00     0.022 A 
HETATM   37  C   UNL     1      42.645  -9.547  12.619  1.00  0.00     0.040 A 
ENDBRANCH  29  30
ENDBRANCH  27  29
ENDBRANCH  24  27
ENDBRANCH  21  23
ENDBRANCH   1  21
TORSDOF 10
ENDMDL
MODEL 7
REMARK VINA RESULT:      -8.3      4.346     10.583
REMARK  10 active torsions:
REMARK  status: ('A' for Active; 'I' for Inactive)
REMARK    1  A    between atoms: C_4  and  N_5 
REMARK    2  A    between atoms: N_5  and  C_6 
REMARK    3  A    between atoms: C_6  and  N_7 
REMARK    4  A    between atoms: N_7  and  N_8 
REMARK       I    between atoms: N_8  and  C_9 
REMARK    5  A    between atoms: C_9  and  C_10 
REMARK    6  A    between atoms: C_10  and  O_11 
REMARK    7  A    between atoms: O_11  and  C_12 
REMARK    8  A    between atoms: C_23  and  C_24 
REMARK    9  A    between atoms: C_24  and  O_25 
REMARK   10  A    between atoms: C_28  and  C_29 
ROOT
HETATM    1  C   UNL     1      44.642 -11.104   7.882  1.00  0.00     0.191 C 
HETATM    2  S   UNL     1      45.800 -11.206   6.669  1.00  0.00    -0.039 SA
ENDROOT
BRANCH   1   3
HETATM    3  N   UNL     1      44.951 -10.337   8.980  1.00  0.00    -0.325 N 
HETATM    4  H   UNL     1      45.733 -10.738   9.491  1.00  0.00     0.169 HD
BRANCH   3   5
HETATM    5  C   UNL     1      44.029  -9.702   9.797  1.00  0.00     0.094 C 
HETATM    6  S   UNL     1      43.876 -10.531  11.279  1.00  0.00    -0.075 SA
HETATM    7  C   UNL     1      42.490  -9.637  11.714  1.00  0.00    -0.007 C 
HETATM    8  C   UNL     1      41.741 -10.010  12.954  1.00  0.00     0.057 C 
HETATM    9  C   UNL     1      42.237  -8.625  10.800  1.00  0.00     0.006 C 
HETATM   10  C   UNL     1      43.245  -8.560   9.750  1.00  0.00     0.085 C 
BRANCH   9  11
HETATM   11  C   UNL     1      41.039  -7.798  10.917  1.00  0.00    -0.024 A 
HETATM   12  C   UNL     1      41.103  -6.616  11.669  1.00  0.00     0.012 A 
HETATM   13  C   UNL     1      39.980  -5.798  11.790  1.00  0.00     0.001 A 
HETATM   14  C   UNL     1      38.789  -6.156  11.159  1.00  0.00     0.000 A 
HETATM   15  C   UNL     1      38.720  -7.332  10.411  1.00  0.00     0.001 A 
HETATM   16  C   UNL     1      39.841  -8.155  10.291  1.00  0.00     0.012 A 
ENDBRANCH   9  11
BRANCH  10  17
HETATM   17  C   UNL     1      43.434  -7.465   8.794  1.00  0.00     0.296 C 
HETATM   18  O   UNL     1      43.657  -6.308   9.135  1.00  0.00    -0.259 OA
BRANCH  17  19
HETATM   19  O   UNL     1      43.283  -7.842   7.493  1.00  0.00    -0.322 OA
HETATM   20  C   UNL     1      41.966  -8.269   7.148  1.00  0.00     0.213 C 
ENDBRANCH  17  19
ENDBRANCH  10  17
ENDBRANCH   3   5
ENDBRANCH   1   3
BRANCH   1  21
HETATM   21  N   UNL     1      43.470 -11.809   7.887  1.00  0.00    -0.273 N 
HETATM   22  H   UNL     1      42.621 -11.242   7.815  1.00  0.00     0.189 HD
BRANCH  21  23
HETATM   23  N   UNL     1      43.353 -13.039   7.215  1.00  0.00    -0.266 N 
HETATM   24  C   UNL     1      42.517 -13.095   6.116  1.00  0.00     0.265 C 
HETATM   25  O   UNL     1      41.986 -12.102   5.615  1.00  0.00    -0.269 OA
HETATM   26  H   UNL     1      43.572 -13.880   7.749  1.00  0.00     0.190 HD
BRANCH  24  27
HETATM   27  C   UNL     1      42.307 -14.502   5.550  1.00  0.00     0.218 C 
HETATM   28  C   UNL     1      40.845 -14.692   5.158  1.00  0.00     0.050 C 
BRANCH  27  29
HETATM   29  O   UNL     1      43.095 -14.700   4.375  1.00  0.00    -0.335 OA
BRANCH  29  30
HETATM   30  C   UNL     1      43.228 -15.989   3.928  1.00  0.00     0.091 A 
HETATM   31  C   UNL     1      42.911 -16.245   2.584  1.00  0.00     0.068 A 
HETATM   32 CL   UNL     1      42.328 -14.990   1.548  1.00  0.00    -0.081 Cl
HETATM   33  C   UNL     1      43.041 -17.530   2.051  1.00  0.00     0.046 A 
HETATM   34  C   UNL     1      43.504 -18.562   2.860  1.00  0.00     0.012 A 
HETATM   35 BR   UNL     1      43.684 -20.304   2.150  1.00  0.00    -0.051 Br
HETATM   36  C   UNL     1      43.844 -18.321   4.190  1.00  0.00     0.022 A 
HETATM   37  C   UNL     1      43.711 -17.035   4.722  1.00  0.00     0.040 A 
ENDBRANCH  29  30
ENDBRANCH  27  29
ENDBRANCH  24  27
ENDBRANCH  21  23
ENDBRANCH   1  21
TORSDOF 10
ENDMDL
MODEL 8
REMARK VINA RESULT:      -8.1      2.483      3.831
REMARK  10 active torsions:
REMARK  status: ('A' for Active; 'I' for Inactive)
REMARK    1  A    between atoms: C_4  and  N_5 
REMARK    2  A    between atoms: N_5  and  C_6 
REMARK    3  A    between atoms: C_6  and  N_7 
REMARK    4  A    between atoms: N_7  and  N_8 
REMARK       I    between atoms: N_8  and  C_9 
REMARK    5  A    between atoms: C_9  and  C_10 
REMARK    6  A    between atoms: C_10  and  O_11 
REMARK    7  A    between atoms: O_11  and  C_12 
REMARK    8  A    between atoms: C_23  and  C_24 
REMARK    9  A    between atoms: C_24  and  O_25 
REMARK   10  A    between atoms: C_28  and  C_29 
ROOT
HETATM    1  C   UNL     1      42.944 -11.110   6.505  1.00  0.00     0.191 C 
HETATM    2  S   UNL     1      44.388 -11.958   6.655  1.00  0.00    -0.039 SA
ENDROOT
BRANCH   1   3
HETATM    3  N   UNL     1      42.076 -11.521   5.523  1.00  0.00    -0.325 N 
HETATM    4  H   UNL     1      41.219 -10.976   5.549  1.00  0.00     0.169 HD
BRANCH   3   5
HETATM    5  C   UNL     1      41.879 -12.835   5.129  1.00  0.00     0.094 C 
HETATM    6  S   UNL     1      40.656 -13.562   6.069  1.00  0.00    -0.075 SA
HETATM    7  C   UNL     1      41.035 -15.118   5.483  1.00  0.00    -0.007 C 
HETATM    8  C   UNL     1      40.346 -16.308   6.072  1.00  0.00     0.057 C 
HETATM    9  C   UNL     1      41.988 -15.058   4.477  1.00  0.00     0.006 C 
HETATM   10  C   UNL     1      42.369 -13.689   4.154  1.00  0.00     0.085 C 
BRANCH   9  11
HETATM   11  C   UNL     1      42.539 -16.281   3.900  1.00  0.00    -0.024 A 
HETATM   12  C   UNL     1      43.616 -16.908   4.543  1.00  0.00     0.012 A 
HETATM   13  C   UNL     1      44.157 -18.084   4.023  1.00  0.00     0.001 A 
HETATM   14  C   UNL     1      43.624 -18.640   2.861  1.00  0.00     0.000 A 
HETATM   15  C   UNL     1      42.553 -18.018   2.217  1.00  0.00     0.001 A 
HETATM   16  C   UNL     1      42.012 -16.839   2.731  1.00  0.00     0.012 A 
ENDBRANCH   9  11
BRANCH  10  17
HETATM   17  C   UNL     1      43.133 -13.255   2.981  1.00  0.00     0.296 C 
HETATM   18  O   UNL     1      44.149 -12.572   3.057  1.00  0.00    -0.259 OA
BRANCH  17  19
HETATM   19  O   UNL     1      42.579 -13.635   1.795  1.00  0.00    -0.322 OA
HETATM   20  C   UNL     1      41.212 -13.259   1.632  1.00  0.00     0.213 C 
ENDBRANCH  17  19
ENDBRANCH  10  17
ENDBRANCH   3   5
ENDBRANCH   1   3
BRANCH   1  21
HETATM   21  N   UNL     1      42.632  -9.990   7.226  1.00  0.00    -0.273 N 
HETATM   22  H   UNL     1      42.547  -9.130   6.678  1.00  0.00     0.189 HD
BRANCH  21  23
HETATM   23  N   UNL     1      41.719 -10.039   8.295  1.00  0.00    -0.266 N 
HETATM   24  C   UNL     1      41.261  -8.839   8.805  1.00  0.00     0.265 C 
HETATM   25  O   UNL     1      41.496  -7.746   8.286  1.00  0.00    -0.269 OA
HETATM   26  H   UNL     1      41.723 -10.883   8.867  1.00  0.00     0.190 HD
BRANCH  24  27
HETATM   27  C   UNL     1      40.415  -8.972  10.074  1.00  0.00     0.218 C 
HETATM   28  C   UNL     1      39.138  -9.750   9.769  1.00  0.00     0.050 C 
BRANCH  27  29
HETATM   29  O   UNL     1      41.124  -9.691  11.084  1.00  0.00    -0.335 OA
BRANCH  29  30
HETATM   30  C   UNL     1      41.320  -9.048  12.279  1.00  0.00     0.091 A 
HETATM   31  C   UNL     1      42.605  -8.550  12.544  1.00  0.00     0.068 A 
HETATM   32 CL   UNL     1      43.903  -8.785  11.425  1.00  0.00    -0.081 Cl
HETATM   33  C   UNL     1      42.877  -7.865  13.730  1.00  0.00     0.046 A 
HETATM   34  C   UNL     1      41.855  -7.663  14.652  1.00  0.00     0.012 A 
HETATM   35 BR   UNL     1      42.211  -6.738  16.262  1.00  0.00    -0.051 Br
HETATM   36  C   UNL     1      40.568  -8.131  14.396  1.00  0.00     0.022 A 
HETATM   37  C   UNL     1      40.299  -8.818  13.209  1.00  0.00     0.040 A 
ENDBRANCH  29  30
ENDBRANCH  27  29
ENDBRANCH  24  27
ENDBRANCH  21  23
ENDBRANCH   1  21
TORSDOF 10
ENDMDL
MODEL 9
REMARK VINA RESULT:      -7.9      4.486     11.132
REMARK  10 active torsions:
REMARK  status: ('A' for Active; 'I' for Inactive)
REMARK    1  A    between atoms: C_4  and  N_5 
REMARK    2  A    between atoms: N_5  and  C_6 
REMARK    3  A    between atoms: C_6  and  N_7 
REMARK    4  A    between atoms: N_7  and  N_8 
REMARK       I    between atoms: N_8  and  C_9 
REMARK    5  A    between atoms: C_9  and  C_10 
REMARK    6  A    between atoms: C_10  and  O_11 
REMARK    7  A    between atoms: O_11  and  C_12 
REMARK    8  A    between atoms: C_23  and  C_24 
REMARK    9  A    between atoms: C_24  and  O_25 
REMARK   10  A    between atoms: C_28  and  C_29 
ROOT
HETATM    1  C   UNL     1      43.828 -10.872   8.179  1.00  0.00     0.191 C 
HETATM    2  S   UNL     1      45.496 -10.692   8.095  1.00  0.00    -0.039 SA
ENDROOT
BRANCH   1   3
HETATM    3  N   UNL     1      43.236 -10.663   9.402  1.00  0.00    -0.325 N 
HETATM    4  H   UNL     1      42.432 -11.272   9.521  1.00  0.00     0.169 HD
BRANCH   3   5
HETATM    5  C   UNL     1      43.089  -9.431  10.018  1.00  0.00     0.094 C 
HETATM    6  S   UNL     1      43.677  -9.491  11.617  1.00  0.00    -0.075 SA
HETATM    7  C   UNL     1      42.986  -7.980  12.001  1.00  0.00    -0.007 C 
HETATM    8  C   UNL     1      43.040  -7.489  13.413  1.00  0.00     0.057 C 
HETATM    9  C   UNL     1      42.436  -7.379  10.879  1.00  0.00     0.006 C 
HETATM   10  C   UNL     1      42.642  -8.166   9.670  1.00  0.00     0.085 C 
BRANCH   9  11
HETATM   11  C   UNL     1      41.698  -6.124  10.992  1.00  0.00    -0.024 A 
HETATM   12  C   UNL     1      42.392  -4.914  10.843  1.00  0.00     0.012 A 
HETATM   13  C   UNL     1      41.714  -3.699  10.932  1.00  0.00     0.001 A 
HETATM   14  C   UNL     1      40.340  -3.685  11.169  1.00  0.00     0.000 A 
HETATM   15  C   UNL     1      39.645  -4.886  11.320  1.00  0.00     0.001 A 
HETATM   16  C   UNL     1      40.321  -6.105  11.235  1.00  0.00     0.012 A 
ENDBRANCH   9  11
BRANCH  10  17
HETATM   17  C   UNL     1      42.435  -7.711   8.292  1.00  0.00     0.296 C 
HETATM   18  O   UNL     1      42.948  -6.695   7.836  1.00  0.00    -0.259 OA
BRANCH  17  19
HETATM   19  O   UNL     1      41.574  -8.494   7.581  1.00  0.00    -0.322 OA
HETATM   20  C   UNL     1      40.568  -7.774   6.869  1.00  0.00     0.213 C 
ENDBRANCH  17  19
ENDBRANCH  10  17
ENDBRANCH   3   5
ENDBRANCH   1   3
BRANCH   1  21
HETATM   21  N   UNL     1      43.048 -11.305   7.142  1.00  0.00    -0.273 N 
HETATM   22  H   UNL     1      42.882 -10.615   6.405  1.00  0.00     0.189 HD
BRANCH  21  23
HETATM   23  N   UNL     1      43.163 -12.614   6.637  1.00  0.00    -0.266 N 
HETATM   24  C   UNL     1      42.052 -13.169   6.031  1.00  0.00     0.265 C 
HETATM   25  O   UNL     1      41.024 -12.535   5.785  1.00  0.00    -0.269 OA
HETATM   26  H   UNL     1      43.885 -13.205   7.048  1.00  0.00     0.190 HD
BRANCH  24  27
HETATM   27  C   UNL     1      42.201 -14.650   5.670  1.00  0.00     0.218 C 
HETATM   28  C   UNL     1      40.860 -15.360   5.826  1.00  0.00     0.050 C 
BRANCH  27  29
HETATM   29  O   UNL     1      42.611 -14.802   4.310  1.00  0.00    -0.335 OA
BRANCH  29  30
HETATM   30  C   UNL     1      42.880 -16.077   3.885  1.00  0.00     0.091 A 
HETATM   31  C   UNL     1      42.268 -16.507   2.696  1.00  0.00     0.068 A 
HETATM   32 CL   UNL     1      41.177 -15.481   1.832  1.00  0.00    -0.081 Cl
HETATM   33  C   UNL     1      42.511 -17.785   2.188  1.00  0.00     0.046 A 
HETATM   34  C   UNL     1      43.381 -18.634   2.862  1.00  0.00     0.012 A 
HETATM   35 BR   UNL     1      43.716 -20.367   2.184  1.00  0.00    -0.051 Br
HETATM   36  C   UNL     1      44.014 -18.217   4.031  1.00  0.00     0.022 A 
HETATM   37  C   UNL     1      43.769 -16.938   4.539  1.00  0.00     0.040 A 
ENDBRANCH  29  30
ENDBRANCH  27  29
ENDBRANCH  24  27
ENDBRANCH  21  23
ENDBRANCH   1  21
TORSDOF 10
ENDMDL
MODEL 10
REMARK VINA RESULT:      -7.9      3.069      4.503
REMARK  10 active torsions:
REMARK  status: ('A' for Active; 'I' for Inactive)
REMARK    1  A    between atoms: C_4  and  N_5 
REMARK    2  A    between atoms: N_5  and  C_6 
REMARK    3  A    between atoms: C_6  and  N_7 
REMARK    4  A    between atoms: N_7  and  N_8 
REMARK       I    between atoms: N_8  and  C_9 
REMARK    5  A    between atoms: C_9  and  C_10 
REMARK    6  A    between atoms: C_10  and  O_11 
REMARK    7  A    between atoms: O_11  and  C_12 
REMARK    8  A    between atoms: C_23  and  C_24 
REMARK    9  A    between atoms: C_24  and  O_25 
REMARK   10  A    between atoms: C_28  and  C_29 
ROOT
HETATM    1  C   UNL     1      41.327 -14.324   6.039  1.00  0.00     0.191 C 
HETATM    2  S   UNL     1      42.071 -15.599   6.841  1.00  0.00    -0.039 SA
ENDROOT
BRANCH   1   3
HETATM    3  N   UNL     1      40.463 -14.644   5.019  1.00  0.00    -0.325 N 
HETATM    4  H   UNL     1      40.370 -15.652   4.929  1.00  0.00     0.169 HD
BRANCH   3   5
HETATM    5  C   UNL     1      40.371 -13.974   3.810  1.00  0.00     0.094 C 
HETATM    6  S   UNL     1      39.302 -12.652   3.942  1.00  0.00    -0.075 SA
HETATM    7  C   UNL     1      39.270 -12.421   2.252  1.00  0.00    -0.007 C 
HETATM    8  C   UNL     1      38.333 -11.410   1.671  1.00  0.00     0.057 C 
HETATM    9  C   UNL     1      40.176 -13.255   1.614  1.00  0.00     0.006 C 
HETATM   10  C   UNL     1      40.947 -14.060   2.552  1.00  0.00     0.085 C 
BRANCH   9  11
HETATM   11  C   UNL     1      40.245 -13.302   0.156  1.00  0.00    -0.024 A 
HETATM   12  C   UNL     1      40.954 -12.299  -0.521  1.00  0.00     0.012 A 
HETATM   13  C   UNL     1      41.050 -12.323  -1.913  1.00  0.00     0.001 A 
HETATM   14  C   UNL     1      40.440 -13.349  -2.634  1.00  0.00     0.000 A 
HETATM   15  C   UNL     1      39.732 -14.347  -1.965  1.00  0.00     0.001 A 
HETATM   16  C   UNL     1      39.630 -14.325  -0.573  1.00  0.00     0.012 A 
ENDBRANCH   9  11
BRANCH  10  17
HETATM   17  C   UNL     1      42.153 -14.835   2.245  1.00  0.00     0.296 C 
HETATM   18  O   UNL     1      43.134 -14.355   1.688  1.00  0.00    -0.259 OA
BRANCH  17  19
HETATM   19  O   UNL     1      42.060 -16.151   2.586  1.00  0.00    -0.322 OA
HETATM   20  C   UNL     1      43.155 -16.955   2.150  1.00  0.00     0.213 C 
ENDBRANCH  17  19
ENDBRANCH  10  17
ENDBRANCH   3   5
ENDBRANCH   1   3
BRANCH   1  21
HETATM   21  N   UNL     1      41.603 -13.004   6.271  1.00  0.00    -0.273 N 
HETATM   22  H   UNL     1      40.794 -12.427   6.513  1.00  0.00     0.189 HD
BRANCH  21  23
HETATM   23  N   UNL     1      42.769 -12.610   6.953  1.00  0.00    -0.266 N 
HETATM   24  C   UNL     1      43.191 -11.302   6.802  1.00  0.00     0.265 C 
HETATM   25  O   UNL     1      42.530 -10.438   6.225  1.00  0.00    -0.269 OA
HETATM   26  H   UNL     1      43.427 -13.346   7.206  1.00  0.00     0.190 HD
BRANCH  24  27
HETATM   27  C   UNL     1      44.555 -11.001   7.428  1.00  0.00     0.218 C 
HETATM   28  C   UNL     1      45.667 -11.344   6.441  1.00  0.00     0.050 C 
BRANCH  27  29
HETATM   29  O   UNL     1      44.674  -9.613   7.742  1.00  0.00    -0.335 OA
BRANCH  29  30
HETATM   30  C   UNL     1      44.329  -9.235   9.014  1.00  0.00     0.091 A 
HETATM   31  C   UNL     1      43.388  -8.202   9.151  1.00  0.00     0.068 A 
HETATM   32 CL   UNL     1      42.730  -7.403   7.765  1.00  0.00    -0.081 Cl
HETATM   33  C   UNL     1      42.971  -7.776  10.414  1.00  0.00     0.046 A 
HETATM   34  C   UNL     1      43.485  -8.396  11.548  1.00  0.00     0.012 A 
HETATM   35 BR   UNL     1      42.928  -7.828  13.263  1.00  0.00    -0.051 Br
HETATM   36  C   UNL     1      44.403  -9.437  11.431  1.00  0.00     0.022 A 
HETATM   37  C   UNL     1      44.821  -9.861  10.166  1.00  0.00     0.040 A 
ENDBRANCH  29  30
ENDBRANCH  27  29
ENDBRANCH  24  27
ENDBRANCH  21  23
ENDBRANCH   1  21
TORSDOF 10
ENDMDL
