MODEL 1
REMARK VINA RESULT:     -10.0      0.000      0.000
REMARK  8 active torsions:
REMARK  status: ('A' for Active; 'I' for Inactive)
REMARK    1  A    between atoms: C_2  and  N_3 
REMARK    2  A    between atoms: C_2  and  C_34 
REMARK       I    between atoms: N_3  and  C_4 
REMARK    3  A    between atoms: C_4  and  C_5 
REMARK    4  A    between atoms: C_5  and  N_6 
REMARK       I    between atoms: N_12  and  C_13 
REMARK    5  A    between atoms: C_13  and  C_14 
REMARK    6  A    between atoms: C_14  and  O_15 
REMARK    7  A    between atoms: O_15  and  C_16 
REMARK    8  A    between atoms: N_25  and  C_26 
ROOT
HETATM    1  N   UNL     1      40.553 -10.308   6.958  1.00  0.00    -0.325 N 
HETATM    2  C   UNL     1      40.790 -11.054   5.830  1.00  0.00     0.250 C 
HETATM    3  O   UNL     1      39.930 -11.420   5.044  1.00  0.00    -0.270 OA
HETATM    4  C   UNL     1      42.300 -11.374   5.794  1.00  0.00     0.118 C 
HETATM    5  C   UNL     1      42.822 -11.141   4.374  1.00  0.00     0.061 C 
HETATM    6  C   UNL     1      42.447 -12.265   3.410  1.00  0.00     0.129 C 
HETATM    7  N   UNL     1      42.677 -13.593   3.973  1.00  0.00    -0.350 N 
HETATM    8  C   UNL     1      43.057 -14.614   3.094  1.00  0.00     0.244 C 
HETATM    9  O   UNL     1      43.303 -14.394   1.904  1.00  0.00    -0.271 OA
HETATM   10  C   UNL     1      42.049 -13.846   5.266  1.00  0.00     0.129 C 
HETATM   11  C   UNL     1      42.463 -12.814   6.306  1.00  0.00     0.061 C 
HETATM   12  N   UNL     1      42.833 -10.388   6.783  1.00  0.00    -0.346 N 
HETATM   13  C   UNL     1      41.744  -9.778   7.541  1.00  0.00     0.254 C 
ENDROOT
BRANCH  12  14
HETATM   14  C   UNL     1      44.141 -10.205   7.198  1.00  0.00     0.032 A 
HETATM   15  C   UNL     1      45.212 -10.996   6.755  1.00  0.00     0.029 A 
HETATM   16  C   UNL     1      46.530 -10.805   7.197  1.00  0.00     0.002 A 
HETATM   17  C   UNL     1      46.827  -9.794   8.100  1.00  0.00     0.000 A 
HETATM   18  C   UNL     1      45.804  -8.976   8.551  1.00  0.00     0.002 A 
HETATM   19  C   UNL     1      44.490  -9.179   8.103  1.00  0.00     0.029 A 
ENDBRANCH  12  14
BRANCH   1  20
HETATM   20  C   UNL     1      39.241  -9.903   7.430  1.00  0.00     0.230 C 
BRANCH  20  21
HETATM   21  C   UNL     1      39.099  -9.929   8.952  1.00  0.00     0.236 C 
HETATM   22  N   UNL     1      39.687  -8.863   9.593  1.00  0.00    -0.351 N 
HETATM   23  H   UNL     1      39.972  -8.095   8.994  1.00  0.00     0.163 HD
HETATM   24  O   UNL     1      38.431 -10.797   9.508  1.00  0.00    -0.272 OA
BRANCH  22  25
HETATM   25  C   UNL     1      39.475  -8.521  10.995  1.00  0.00     0.113 C 
HETATM   26  C   UNL     1      38.473  -7.388  11.234  1.00  0.00     0.037 C 
BRANCH  25  27
HETATM   27  C   UNL     1      40.802  -8.339  11.713  1.00  0.00    -0.036 A 
HETATM   28  C   UNL     1      40.824  -7.823  13.019  1.00  0.00     0.009 A 
HETATM   29  C   UNL     1      42.028  -7.668  13.708  1.00  0.00     0.001 A 
HETATM   30  C   UNL     1      43.230  -8.034  13.106  1.00  0.00     0.000 A 
HETATM   31  C   UNL     1      43.225  -8.558  11.815  1.00  0.00     0.001 A 
HETATM   32  C   UNL     1      42.021  -8.712  11.126  1.00  0.00     0.009 A 
ENDBRANCH  25  27
ENDBRANCH  22  25
ENDBRANCH  20  21
ENDBRANCH   1  20
BRANCH   8  33
HETATM   33  C   UNL     1      43.143 -16.045   3.634  1.00  0.00     0.278 C 
BRANCH  33  34
HETATM   34  O   UNL     1      43.634 -16.919   2.624  1.00  0.00    -0.342 OA
BRANCH  34  35
HETATM   35  C   UNL     1      43.706 -18.244   2.957  1.00  0.00     0.069 A 
HETATM   36  C   UNL     1      43.325 -19.311   2.142  1.00  0.00     0.037 A 
HETATM   37  C   UNL     1      43.434 -20.625   2.607  1.00  0.00     0.003 A 
HETATM   38  C   UNL     1      43.924 -20.877   3.888  1.00  0.00     0.000 A 
HETATM   39  C   UNL     1      44.297 -19.815   4.709  1.00  0.00     0.003 A 
HETATM   40  C   UNL     1      44.181 -18.503   4.246  1.00  0.00     0.037 A 
ENDBRANCH  34  35
ENDBRANCH  33  34
ENDBRANCH   8  33
TORSDOF 8
ENDMDL
MODEL 2
REMARK VINA RESULT:      -9.7      3.024      8.634
REMARK  8 active torsions:
REMARK  status: ('A' for Active; 'I' for Inactive)
REMARK    1  A    between atoms: C_2  and  N_3 
REMARK    2  A    between atoms: C_2  and  C_34 
REMARK       I    between atoms: N_3  and  C_4 
REMARK    3  A    between atoms: C_4  and  C_5 
REMARK    4  A    between atoms: C_5  and  N_6 
REMARK       I    between atoms: N_12  and  C_13 
REMARK    5  A    between atoms: C_13  and  C_14 
REMARK    6  A    between atoms: C_14  and  O_15 
REMARK    7  A    between atoms: O_15  and  C_16 
REMARK    8  A    between atoms: N_25  and  C_26 
ROOT
HETATM    1  N   UNL     1      42.189 -13.907   6.183  1.00  0.00    -0.325 N 
HETATM    2  C   UNL     1      41.317 -12.968   5.691  1.00  0.00     0.250 C 
HETATM    3  O   UNL     1      40.221 -13.218   5.214  1.00  0.00    -0.270 OA
HETATM    4  C   UNL     1      42.005 -11.591   5.805  1.00  0.00     0.118 C 
HETATM    5  C   UNL     1      41.001 -10.579   6.362  1.00  0.00     0.061 C 
HETATM    6  C   UNL     1      39.987 -10.111   5.320  1.00  0.00     0.129 C 
HETATM    7  N   UNL     1      40.606  -9.770   4.042  1.00  0.00    -0.350 N 
HETATM    8  C   UNL     1      40.024  -8.740   3.293  1.00  0.00     0.244 C 
HETATM    9  O   UNL     1      39.091  -8.061   3.732  1.00  0.00    -0.271 OA
HETATM   10  C   UNL     1      41.449 -10.806   3.453  1.00  0.00     0.129 C 
HETATM   11  C   UNL     1      42.549 -11.247   4.408  1.00  0.00     0.061 C 
HETATM   12  N   UNL     1      43.118 -11.895   6.755  1.00  0.00    -0.346 N 
HETATM   13  C   UNL     1      43.262 -13.338   6.935  1.00  0.00     0.254 C 
ENDROOT
BRANCH  12  14
HETATM   14  C   UNL     1      44.102 -11.047   7.231  1.00  0.00     0.032 A 
HETATM   15  C   UNL     1      43.833  -9.898   7.991  1.00  0.00     0.029 A 
HETATM   16  C   UNL     1      44.843  -9.041   8.454  1.00  0.00     0.002 A 
HETATM   17  C   UNL     1      46.174  -9.314   8.180  1.00  0.00     0.000 A 
HETATM   18  C   UNL     1      46.489 -10.448   7.448  1.00  0.00     0.002 A 
HETATM   19  C   UNL     1      45.470 -11.295   6.989  1.00  0.00     0.029 A 
ENDBRANCH  12  14
BRANCH   1  20
HETATM   20  C   UNL     1      41.977 -15.343   6.145  1.00  0.00     0.230 C 
BRANCH  20  21
HETATM   21  C   UNL     1      42.008 -15.933   4.735  1.00  0.00     0.236 C 
HETATM   22  N   UNL     1      43.252 -15.926   4.146  1.00  0.00    -0.351 N 
HETATM   23  H   UNL     1      44.028 -15.719   4.765  1.00  0.00     0.163 HD
HETATM   24  O   UNL     1      41.004 -16.442   4.243  1.00  0.00    -0.272 OA
BRANCH  22  25
HETATM   25  C   UNL     1      43.595 -16.654   2.929  1.00  0.00     0.113 C 
HETATM   26  C   UNL     1      42.767 -16.274   1.699  1.00  0.00     0.037 C 
BRANCH  25  27
HETATM   27  C   UNL     1      43.664 -18.148   3.195  1.00  0.00    -0.036 A 
HETATM   28  C   UNL     1      43.293 -19.054   2.188  1.00  0.00     0.009 A 
HETATM   29  C   UNL     1      43.368 -20.432   2.401  1.00  0.00     0.001 A 
HETATM   30  C   UNL     1      43.823 -20.927   3.620  1.00  0.00     0.000 A 
HETATM   31  C   UNL     1      44.205 -20.043   4.626  1.00  0.00     0.001 A 
HETATM   32  C   UNL     1      44.129 -18.664   4.414  1.00  0.00     0.009 A 
ENDBRANCH  25  27
ENDBRANCH  22  25
ENDBRANCH  20  21
ENDBRANCH   1  20
BRANCH   8  33
HETATM   33  C   UNL     1      40.556  -8.477   1.881  1.00  0.00     0.278 C 
BRANCH  33  34
HETATM   34  O   UNL     1      39.556  -8.786   0.917  1.00  0.00    -0.342 OA
BRANCH  34  35
HETATM   35  C   UNL     1      39.664 -10.007   0.307  1.00  0.00     0.069 A 
HETATM   36  C   UNL     1      40.841 -10.565  -0.193  1.00  0.00     0.037 A 
HETATM   37  C   UNL     1      40.816 -11.819  -0.812  1.00  0.00     0.003 A 
HETATM   38  C   UNL     1      39.616 -12.518  -0.933  1.00  0.00     0.000 A 
HETATM   39  C   UNL     1      38.436 -11.960  -0.444  1.00  0.00     0.003 A 
HETATM   40  C   UNL     1      38.461 -10.705   0.168  1.00  0.00     0.037 A 
ENDBRANCH  34  35
ENDBRANCH  33  34
ENDBRANCH   8  33
TORSDOF 8
ENDMDL
MODEL 3
REMARK VINA RESULT:      -9.6      4.622      9.760
REMARK  8 active torsions:
REMARK  status: ('A' for Active; 'I' for Inactive)
REMARK    1  A    between atoms: C_2  and  N_3 
REMARK    2  A    between atoms: C_2  and  C_34 
REMARK       I    between atoms: N_3  and  C_4 
REMARK    3  A    between atoms: C_4  and  C_5 
REMARK    4  A    between atoms: C_5  and  N_6 
REMARK       I    between atoms: N_12  and  C_13 
REMARK    5  A    between atoms: C_13  and  C_14 
REMARK    6  A    between atoms: C_14  and  O_15 
REMARK    7  A    between atoms: O_15  and  C_16 
REMARK    8  A    between atoms: N_25  and  C_26 
ROOT
HETATM    1  N   UNL     1      40.337 -13.440   4.484  1.00  0.00    -0.325 N 
HETATM    2  C   UNL     1      39.937 -13.326   3.176  1.00  0.00     0.250 C 
HETATM    3  O   UNL     1      39.774 -14.267   2.413  1.00  0.00    -0.270 OA
HETATM    4  C   UNL     1      39.798 -11.821   2.862  1.00  0.00     0.118 C 
HETATM    5  C   UNL     1      38.492 -11.592   2.095  1.00  0.00     0.061 C 
HETATM    6  C   UNL     1      38.585 -12.004   0.627  1.00  0.00     0.129 C 
HETATM    7  N   UNL     1      39.806 -11.528  -0.019  1.00  0.00    -0.350 N 
HETATM    8  C   UNL     1      39.736 -11.198  -1.377  1.00  0.00     0.244 C 
HETATM    9  O   UNL     1      38.666 -11.197  -1.994  1.00  0.00    -0.271 OA
HETATM   10  C   UNL     1      41.053 -11.880   0.654  1.00  0.00     0.129 C 
HETATM   11  C   UNL     1      41.067 -11.406   2.100  1.00  0.00     0.061 C 
HETATM   12  N   UNL     1      39.780 -11.234   4.237  1.00  0.00    -0.346 N 
HETATM   13  C   UNL     1      40.174 -12.232   5.228  1.00  0.00     0.254 C 
ENDROOT
BRANCH  12  14
HETATM   14  C   UNL     1      39.692  -9.903   4.605  1.00  0.00     0.032 A 
HETATM   15  C   UNL     1      38.478  -9.249   4.865  1.00  0.00     0.029 A 
HETATM   16  C   UNL     1      38.407  -7.895   5.225  1.00  0.00     0.002 A 
HETATM   17  C   UNL     1      39.565  -7.142   5.349  1.00  0.00     0.000 A 
HETATM   18  C   UNL     1      40.789  -7.750   5.119  1.00  0.00     0.002 A 
HETATM   19  C   UNL     1      40.846  -9.104   4.759  1.00  0.00     0.029 A 
ENDBRANCH  12  14
BRANCH   1  20
HETATM   20  C   UNL     1      40.699 -14.684   5.140  1.00  0.00     0.230 C 
BRANCH  20  21
HETATM   21  C   UNL     1      42.086 -15.200   4.757  1.00  0.00     0.236 C 
HETATM   22  N   UNL     1      42.086 -16.109   3.723  1.00  0.00    -0.351 N 
HETATM   23  H   UNL     1      41.214 -16.188   3.210  1.00  0.00     0.163 HD
HETATM   24  O   UNL     1      43.096 -14.748   5.289  1.00  0.00    -0.272 OA
BRANCH  22  25
HETATM   25  C   UNL     1      43.278 -16.548   3.006  1.00  0.00     0.113 C 
HETATM   26  C   UNL     1      43.373 -16.059   1.558  1.00  0.00     0.037 C 
BRANCH  25  27
HETATM   27  C   UNL     1      43.488 -18.043   3.173  1.00  0.00    -0.036 A 
HETATM   28  C   UNL     1      43.989 -18.547   4.386  1.00  0.00     0.009 A 
HETATM   29  C   UNL     1      44.170 -19.919   4.571  1.00  0.00     0.001 A 
HETATM   30  C   UNL     1      43.846 -20.810   3.551  1.00  0.00     0.000 A 
HETATM   31  C   UNL     1      43.338 -20.329   2.347  1.00  0.00     0.001 A 
HETATM   32  C   UNL     1      43.158 -18.956   2.160  1.00  0.00     0.009 A 
ENDBRANCH  25  27
ENDBRANCH  22  25
ENDBRANCH  20  21
ENDBRANCH   1  20
BRANCH   8  33
HETATM   33  C   UNL     1      41.035 -10.854  -2.110  1.00  0.00     0.278 C 
BRANCH  33  34
HETATM   34  O   UNL     1      40.866  -9.663  -2.871  1.00  0.00    -0.342 OA
BRANCH  34  35
HETATM   35  C   UNL     1      41.740  -8.645  -2.600  1.00  0.00     0.069 A 
HETATM   36  C   UNL     1      42.359  -8.410  -1.372  1.00  0.00     0.037 A 
HETATM   37  C   UNL     1      43.223  -7.321  -1.218  1.00  0.00     0.003 A 
HETATM   38  C   UNL     1      43.471  -6.465  -2.290  1.00  0.00     0.000 A 
HETATM   39  C   UNL     1      42.847  -6.691  -3.516  1.00  0.00     0.003 A 
HETATM   40  C   UNL     1      41.979  -7.774  -3.666  1.00  0.00     0.037 A 
ENDBRANCH  34  35
ENDBRANCH  33  34
ENDBRANCH   8  33
TORSDOF 8
ENDMDL
MODEL 4
REMARK VINA RESULT:      -9.5      4.001      8.844
REMARK  8 active torsions:
REMARK  status: ('A' for Active; 'I' for Inactive)
REMARK    1  A    between atoms: C_2  and  N_3 
REMARK    2  A    between atoms: C_2  and  C_34 
REMARK       I    between atoms: N_3  and  C_4 
REMARK    3  A    between atoms: C_4  and  C_5 
REMARK    4  A    between atoms: C_5  and  N_6 
REMARK       I    between atoms: N_12  and  C_13 
REMARK    5  A    between atoms: C_13  and  C_14 
REMARK    6  A    between atoms: C_14  and  O_15 
REMARK    7  A    between atoms: O_15  and  C_16 
REMARK    8  A    between atoms: N_25  and  C_26 
ROOT
HETATM    1  N   UNL     1      40.684 -13.157   4.899  1.00  0.00    -0.325 N 
HETATM    2  C   UNL     1      39.923 -12.773   3.823  1.00  0.00     0.250 C 
HETATM    3  O   UNL     1      39.278 -13.535   3.119  1.00  0.00    -0.270 OA
HETATM    4  C   UNL     1      40.093 -11.248   3.654  1.00  0.00     0.118 C 
HETATM    5  C   UNL     1      38.719 -10.620   3.406  1.00  0.00     0.061 C 
HETATM    6  C   UNL     1      38.215 -10.835   1.980  1.00  0.00     0.129 C 
HETATM    7  N   UNL     1      39.237 -10.568   0.972  1.00  0.00    -0.350 N 
HETATM    8  C   UNL     1      38.818 -10.046  -0.256  1.00  0.00     0.244 C 
HETATM    9  O   UNL     1      37.646  -9.712  -0.458  1.00  0.00    -0.271 OA
HETATM   10  C   UNL     1      40.495 -11.289   1.146  1.00  0.00     0.129 C 
HETATM   11  C   UNL     1      41.106 -11.036   2.517  1.00  0.00     0.061 C 
HETATM   12  N   UNL     1      40.681 -10.869   4.975  1.00  0.00    -0.346 N 
HETATM   13  C   UNL     1      41.099 -12.059   5.713  1.00  0.00     0.254 C 
ENDROOT
BRANCH  12  14
HETATM   14  C   UNL     1      41.075  -9.618   5.417  1.00  0.00     0.032 A 
HETATM   15  C   UNL     1      41.674  -9.390   6.665  1.00  0.00     0.029 A 
HETATM   16  C   UNL     1      42.055  -8.113   7.102  1.00  0.00     0.002 A 
HETATM   17  C   UNL     1      41.857  -7.007   6.289  1.00  0.00     0.000 A 
HETATM   18  C   UNL     1      41.285  -7.185   5.040  1.00  0.00     0.002 A 
HETATM   19  C   UNL     1      40.907  -8.468   4.616  1.00  0.00     0.029 A 
ENDBRANCH  12  14
BRANCH   1  20
HETATM   20  C   UNL     1      40.898 -14.529   5.323  1.00  0.00     0.230 C 
BRANCH  20  21
HETATM   21  C   UNL     1      42.226 -15.119   4.849  1.00  0.00     0.236 C 
HETATM   22  N   UNL     1      42.114 -15.975   3.776  1.00  0.00    -0.351 N 
HETATM   23  H   UNL     1      41.216 -15.970   3.304  1.00  0.00     0.163 HD
HETATM   24  O   UNL     1      43.289 -14.763   5.350  1.00  0.00    -0.272 OA
BRANCH  22  25
HETATM   25  C   UNL     1      43.238 -16.459   2.983  1.00  0.00     0.113 C 
HETATM   26  C   UNL     1      43.223 -16.022   1.515  1.00  0.00     0.037 C 
BRANCH  25  27
HETATM   27  C   UNL     1      43.440 -17.951   3.186  1.00  0.00    -0.036 A 
HETATM   28  C   UNL     1      43.139 -18.844   2.143  1.00  0.00     0.009 A 
HETATM   29  C   UNL     1      43.337 -20.217   2.298  1.00  0.00     0.001 A 
HETATM   30  C   UNL     1      43.845 -20.720   3.493  1.00  0.00     0.000 A 
HETATM   31  C   UNL     1      44.158 -19.848   4.533  1.00  0.00     0.001 A 
HETATM   32  C   UNL     1      43.960 -18.474   4.379  1.00  0.00     0.009 A 
ENDBRANCH  25  27
ENDBRANCH  22  25
ENDBRANCH  20  21
ENDBRANCH   1  20
BRANCH   8  33
HETATM   33  C   UNL     1      39.848  -9.913  -1.381  1.00  0.00     0.278 C 
BRANCH  33  34
HETATM   34  O   UNL     1      39.346 -10.500  -2.576  1.00  0.00    -0.342 OA
BRANCH  34  35
HETATM   35  C   UNL     1      39.310 -11.868  -2.607  1.00  0.00     0.069 A 
HETATM   36  C   UNL     1      40.418 -12.713  -2.522  1.00  0.00     0.037 A 
HETATM   37  C   UNL     1      40.249 -14.100  -2.582  1.00  0.00     0.003 A 
HETATM   38  C   UNL     1      38.975 -14.646  -2.729  1.00  0.00     0.000 A 
HETATM   39  C   UNL     1      37.867 -13.807  -2.824  1.00  0.00     0.003 A 
HETATM   40  C   UNL     1      38.038 -12.422  -2.770  1.00  0.00     0.037 A 
ENDBRANCH  34  35
ENDBRANCH  33  34
ENDBRANCH   8  33
TORSDOF 8
ENDMDL
MODEL 5
REMARK VINA RESULT:      -9.3      2.162      4.036
REMARK  8 active torsions:
REMARK  status: ('A' for Active; 'I' for Inactive)
REMARK    1  A    between atoms: C_2  and  N_3 
REMARK    2  A    between atoms: C_2  and  C_34 
REMARK       I    between atoms: N_3  and  C_4 
REMARK    3  A    between atoms: C_4  and  C_5 
REMARK    4  A    between atoms: C_5  and  N_6 
REMARK       I    between atoms: N_12  and  C_13 
REMARK    5  A    between atoms: C_13  and  C_14 
REMARK    6  A    between atoms: C_14  and  O_15 
REMARK    7  A    between atoms: O_15  and  C_16 
REMARK    8  A    between atoms: N_25  and  C_26 
ROOT
HETATM    1  N   UNL     1      43.536 -10.834   6.867  1.00  0.00    -0.325 N 
HETATM    2  C   UNL     1      43.137 -12.124   6.619  1.00  0.00     0.250 C 
HETATM    3  O   UNL     1      43.653 -13.119   7.105  1.00  0.00    -0.270 OA
HETATM    4  C   UNL     1      41.984 -12.064   5.592  1.00  0.00     0.118 C 
HETATM    5  C   UNL     1      40.867 -13.008   6.045  1.00  0.00     0.061 C 
HETATM    6  C   UNL     1      41.184 -14.478   5.772  1.00  0.00     0.129 C 
HETATM    7  N   UNL     1      41.715 -14.702   4.430  1.00  0.00    -0.350 N 
HETATM    8  C   UNL     1      41.402 -15.913   3.802  1.00  0.00     0.244 C 
HETATM    9  O   UNL     1      40.616 -16.724   4.301  1.00  0.00    -0.271 OA
HETATM   10  C   UNL     1      42.874 -13.891   4.068  1.00  0.00     0.129 C 
HETATM   11  C   UNL     1      42.591 -12.403   4.221  1.00  0.00     0.061 C 
HETATM   12  N   UNL     1      41.598 -10.622   5.668  1.00  0.00    -0.346 N 
HETATM   13  C   UNL     1      42.599  -9.858   6.409  1.00  0.00     0.254 C 
ENDROOT
BRANCH  12  14
HETATM   14  C   UNL     1      40.621  -9.952   4.952  1.00  0.00     0.032 A 
HETATM   15  C   UNL     1      40.857  -9.323   3.720  1.00  0.00     0.029 A 
HETATM   16  C   UNL     1      39.857  -8.638   3.014  1.00  0.00     0.002 A 
HETATM   17  C   UNL     1      38.567  -8.568   3.518  1.00  0.00     0.000 A 
HETATM   18  C   UNL     1      38.282  -9.190   4.722  1.00  0.00     0.002 A 
HETATM   19  C   UNL     1      39.292  -9.871   5.419  1.00  0.00     0.029 A 
ENDBRANCH  12  14
BRANCH   1  20
HETATM   20  C   UNL     1      44.676 -10.457   7.683  1.00  0.00     0.230 C 
BRANCH  20  21
HETATM   21  C   UNL     1      44.297  -9.712   8.963  1.00  0.00     0.236 C 
HETATM   22  N   UNL     1      43.485 -10.428   9.814  1.00  0.00    -0.351 N 
HETATM   23  H   UNL     1      43.389 -11.415   9.600  1.00  0.00     0.163 HD
HETATM   24  O   UNL     1      44.771  -8.608   9.214  1.00  0.00    -0.272 OA
BRANCH  22  25
HETATM   25  C   UNL     1      43.197 -10.053  11.194  1.00  0.00     0.113 C 
HETATM   26  C   UNL     1      43.468 -11.151  12.227  1.00  0.00     0.037 C 
BRANCH  25  27
HETATM   27  C   UNL     1      41.821  -9.420  11.305  1.00  0.00    -0.036 A 
HETATM   28  C   UNL     1      40.906  -9.901  12.257  1.00  0.00     0.009 A 
HETATM   29  C   UNL     1      39.643  -9.321  12.394  1.00  0.00     0.001 A 
HETATM   30  C   UNL     1      39.277  -8.246  11.588  1.00  0.00     0.000 A 
HETATM   31  C   UNL     1      40.176  -7.749  10.646  1.00  0.00     0.001 A 
HETATM   32  C   UNL     1      41.439  -8.330  10.508  1.00  0.00     0.009 A 
ENDBRANCH  25  27
ENDBRANCH  22  25
ENDBRANCH  20  21
ENDBRANCH   1  20
BRANCH   8  33
HETATM   33  C   UNL     1      42.081 -16.237   2.467  1.00  0.00     0.278 C 
BRANCH  33  34
HETATM   34  O   UNL     1      43.406 -16.704   2.694  1.00  0.00    -0.342 OA
BRANCH  34  35
HETATM   35  C   UNL     1      43.539 -18.042   2.947  1.00  0.00     0.069 A 
HETATM   36  C   UNL     1      43.162 -19.075   2.087  1.00  0.00     0.037 A 
HETATM   37  C   UNL     1      43.336 -20.407   2.472  1.00  0.00     0.003 A 
HETATM   38  C   UNL     1      43.888 -20.713   3.716  1.00  0.00     0.000 A 
HETATM   39  C   UNL     1      44.257 -19.685   4.581  1.00  0.00     0.003 A 
HETATM   40  C   UNL     1      44.076 -18.354   4.199  1.00  0.00     0.037 A 
ENDBRANCH  34  35
ENDBRANCH  33  34
ENDBRANCH   8  33
TORSDOF 8
ENDMDL
MODEL 6
REMARK VINA RESULT:      -9.3      2.646      5.053
REMARK  8 active torsions:
REMARK  status: ('A' for Active; 'I' for Inactive)
REMARK    1  A    between atoms: C_2  and  N_3 
REMARK    2  A    between atoms: C_2  and  C_34 
REMARK       I    between atoms: N_3  and  C_4 
REMARK    3  A    between atoms: C_4  and  C_5 
REMARK    4  A    between atoms: C_5  and  N_6 
REMARK       I    between atoms: N_12  and  C_13 
REMARK    5  A    between atoms: C_13  and  C_14 
REMARK    6  A    between atoms: C_14  and  O_15 
REMARK    7  A    between atoms: O_15  and  C_16 
REMARK    8  A    between atoms: N_25  and  C_26 
ROOT
HETATM    1  N   UNL     1      41.078  -9.797   4.006  1.00  0.00    -0.325 N 
HETATM    2  C   UNL     1      41.153 -10.952   4.745  1.00  0.00     0.250 C 
HETATM    3  O   UNL     1      41.412 -10.999   5.938  1.00  0.00    -0.270 OA
HETATM    4  C   UNL     1      40.913 -12.135   3.783  1.00  0.00     0.118 C 
HETATM    5  C   UNL     1      39.944 -13.121   4.442  1.00  0.00     0.061 C 
HETATM    6  C   UNL     1      40.610 -13.983   5.514  1.00  0.00     0.129 C 
HETATM    7  N   UNL     1      41.895 -14.528   5.084  1.00  0.00    -0.350 N 
HETATM    8  C   UNL     1      42.261 -15.787   5.573  1.00  0.00     0.244 C 
HETATM    9  O   UNL     1      41.492 -16.474   6.252  1.00  0.00    -0.271 OA
HETATM   10  C   UNL     1      42.861 -13.551   4.591  1.00  0.00     0.129 C 
HETATM   11  C   UNL     1      42.293 -12.724   3.447  1.00  0.00     0.061 C 
HETATM   12  N   UNL     1      40.323 -11.438   2.600  1.00  0.00    -0.346 N 
HETATM   13  C   UNL     1      40.485  -9.991   2.721  1.00  0.00     0.254 C 
ENDROOT
BRANCH  12  14
HETATM   14  C   UNL     1      39.915 -11.981   1.394  1.00  0.00     0.032 A 
HETATM   15  C   UNL     1      40.601 -13.015   0.739  1.00  0.00     0.029 A 
HETATM   16  C   UNL     1      40.180 -13.545  -0.490  1.00  0.00     0.002 A 
HETATM   17  C   UNL     1      39.037 -13.059  -1.108  1.00  0.00     0.000 A 
HETATM   18  C   UNL     1      38.317 -12.051  -0.489  1.00  0.00     0.002 A 
HETATM   19  C   UNL     1      38.749 -11.528   0.739  1.00  0.00     0.029 A 
ENDBRANCH  12  14
BRANCH   1  20
HETATM   20  C   UNL     1      41.365  -8.465   4.508  1.00  0.00     0.230 C 
BRANCH  20  21
HETATM   21  C   UNL     1      41.079  -8.295   6.000  1.00  0.00     0.236 C 
HETATM   22  N   UNL     1      42.203  -8.291   6.795  1.00  0.00    -0.351 N 
HETATM   23  H   UNL     1      43.087  -8.206   6.303  1.00  0.00     0.163 HD
HETATM   24  O   UNL     1      39.938  -8.091   6.404  1.00  0.00    -0.272 OA
BRANCH  22  25
HETATM   25  C   UNL     1      42.224  -7.892   8.197  1.00  0.00     0.113 C 
HETATM   26  C   UNL     1      42.272  -6.379   8.433  1.00  0.00     0.037 C 
BRANCH  25  27
HETATM   27  C   UNL     1      43.274  -8.675   8.967  1.00  0.00    -0.036 A 
HETATM   28  C   UNL     1      44.633  -8.520   8.647  1.00  0.00     0.009 A 
HETATM   29  C   UNL     1      45.619  -9.212   9.354  1.00  0.00     0.001 A 
HETATM   30  C   UNL     1      45.263 -10.063  10.397  1.00  0.00     0.000 A 
HETATM   31  C   UNL     1      43.920 -10.220  10.734  1.00  0.00     0.001 A 
HETATM   32  C   UNL     1      42.934  -9.529  10.027  1.00  0.00     0.009 A 
ENDBRANCH  25  27
ENDBRANCH  22  25
ENDBRANCH  20  21
ENDBRANCH   1  20
BRANCH   8  33
HETATM   33  C   UNL     1      43.670 -16.305   5.267  1.00  0.00     0.278 C 
BRANCH  33  34
HETATM   34  O   UNL     1      43.709 -16.873   3.963  1.00  0.00    -0.342 OA
BRANCH  34  35
HETATM   35  C   UNL     1      43.763 -18.239   3.901  1.00  0.00     0.069 A 
HETATM   36  C   UNL     1      44.069 -19.090   4.964  1.00  0.00     0.037 A 
HETATM   37  C   UNL     1      44.108 -20.474   4.767  1.00  0.00     0.003 A 
HETATM   38  C   UNL     1      43.841 -21.011   3.508  1.00  0.00     0.000 A 
HETATM   39  C   UNL     1      43.545 -20.165   2.442  1.00  0.00     0.003 A 
HETATM   40  C   UNL     1      43.513 -18.783   2.638  1.00  0.00     0.037 A 
ENDBRANCH  34  35
ENDBRANCH  33  34
ENDBRANCH   8  33
TORSDOF 8
ENDMDL
MODEL 7
REMARK VINA RESULT:      -9.2      6.447      8.926
REMARK  8 active torsions:
REMARK  status: ('A' for Active; 'I' for Inactive)
REMARK    1  A    between atoms: C_2  and  N_3 
REMARK    2  A    between atoms: C_2  and  C_34 
REMARK       I    between atoms: N_3  and  C_4 
REMARK    3  A    between atoms: C_4  and  C_5 
REMARK    4  A    between atoms: C_5  and  N_6 
REMARK       I    between atoms: N_12  and  C_13 
REMARK    5  A    between atoms: C_13  and  C_14 
REMARK    6  A    between atoms: C_14  and  O_15 
REMARK    7  A    between atoms: O_15  and  C_16 
REMARK    8  A    between atoms: N_25  and  C_26 
ROOT
HETATM    1  N   UNL     1      40.241 -10.122   0.667  1.00  0.00    -0.325 N 
HETATM    2  C   UNL     1      40.420 -11.014   1.695  1.00  0.00     0.250 C 
HETATM    3  O   UNL     1      40.759 -10.711   2.829  1.00  0.00    -0.270 OA
HETATM    4  C   UNL     1      40.173 -12.430   1.130  1.00  0.00     0.118 C 
HETATM    5  C   UNL     1      39.298 -13.211   2.114  1.00  0.00     0.061 C 
HETATM    6  C   UNL     1      40.073 -13.711   3.332  1.00  0.00     0.129 C 
HETATM    7  N   UNL     1      41.351 -14.322   2.978  1.00  0.00    -0.350 N 
HETATM    8  C   UNL     1      41.808 -15.378   3.774  1.00  0.00     0.244 C 
HETATM    9  O   UNL     1      41.119 -15.862   4.677  1.00  0.00    -0.271 OA
HETATM   10  C   UNL     1      42.235 -13.502   2.155  1.00  0.00     0.129 C 
HETATM   11  C   UNL     1      41.554 -13.053   0.870  1.00  0.00     0.061 C 
HETATM   12  N   UNL     1      39.474 -12.116  -0.154  1.00  0.00    -0.346 N 
HETATM   13  C   UNL     1      39.575 -10.692  -0.461  1.00  0.00     0.254 C 
ENDROOT
BRANCH  12  14
HETATM   14  C   UNL     1      39.014 -12.993  -1.121  1.00  0.00     0.032 A 
HETATM   15  C   UNL     1      39.611 -14.235  -1.388  1.00  0.00     0.029 A 
HETATM   16  C   UNL     1      39.138 -15.105  -2.382  1.00  0.00     0.002 A 
HETATM   17  C   UNL     1      38.031 -14.764  -3.143  1.00  0.00     0.000 A 
HETATM   18  C   UNL     1      37.397 -13.556  -2.903  1.00  0.00     0.002 A 
HETATM   19  C   UNL     1      37.881 -12.693  -1.907  1.00  0.00     0.029 A 
ENDBRANCH  12  14
BRANCH   1  20
HETATM   20  C   UNL     1      40.498  -8.695   0.746  1.00  0.00     0.230 C 
BRANCH  20  21
HETATM   21  C   UNL     1      41.511  -8.194  -0.283  1.00  0.00     0.236 C 
HETATM   22  N   UNL     1      41.182  -6.987  -0.859  1.00  0.00    -0.351 N 
HETATM   23  H   UNL     1      40.428  -6.479  -0.409  1.00  0.00     0.163 HD
HETATM   24  O   UNL     1      42.559  -8.801  -0.483  1.00  0.00    -0.272 OA
BRANCH  22  25
HETATM   25  C   UNL     1      42.091  -6.180  -1.664  1.00  0.00     0.113 C 
HETATM   26  C   UNL     1      42.792  -6.938  -2.795  1.00  0.00     0.037 C 
BRANCH  25  27
HETATM   27  C   UNL     1      43.030  -5.378  -0.778  1.00  0.00    -0.036 A 
HETATM   28  C   UNL     1      44.223  -4.863  -1.311  1.00  0.00     0.009 A 
HETATM   29  C   UNL     1      45.091  -4.105  -0.523  1.00  0.00     0.001 A 
HETATM   30  C   UNL     1      44.776  -3.840   0.808  1.00  0.00     0.000 A 
HETATM   31  C   UNL     1      43.592  -4.334   1.349  1.00  0.00     0.001 A 
HETATM   32  C   UNL     1      42.724  -5.094   0.562  1.00  0.00     0.009 A 
ENDBRANCH  25  27
ENDBRANCH  22  25
ENDBRANCH  20  21
ENDBRANCH   1  20
BRANCH   8  33
HETATM   33  C   UNL     1      43.216 -15.924   3.521  1.00  0.00     0.278 C 
BRANCH  33  34
HETATM   34  O   UNL     1      43.175 -16.940   2.525  1.00  0.00    -0.342 OA
BRANCH  34  35
HETATM   35  C   UNL     1      43.445 -18.212   2.949  1.00  0.00     0.069 A 
HETATM   36  C   UNL     1      43.301 -19.373   2.187  1.00  0.00     0.037 A 
HETATM   37  C   UNL     1      43.597 -20.620   2.745  1.00  0.00     0.003 A 
HETATM   38  C   UNL     1      44.036 -20.713   4.065  1.00  0.00     0.000 A 
HETATM   39  C   UNL     1      44.173 -19.558   4.833  1.00  0.00     0.003 A 
HETATM   40  C   UNL     1      43.871 -18.313   4.277  1.00  0.00     0.037 A 
ENDBRANCH  34  35
ENDBRANCH  33  34
ENDBRANCH   8  33
TORSDOF 8
ENDMDL
MODEL 8
REMARK VINA RESULT:      -9.1      4.074      6.822
REMARK  8 active torsions:
REMARK  status: ('A' for Active; 'I' for Inactive)
REMARK    1  A    between atoms: C_2  and  N_3 
REMARK    2  A    between atoms: C_2  and  C_34 
REMARK       I    between atoms: N_3  and  C_4 
REMARK    3  A    between atoms: C_4  and  C_5 
REMARK    4  A    between atoms: C_5  and  N_6 
REMARK       I    between atoms: N_12  and  C_13 
REMARK    5  A    between atoms: C_13  and  C_14 
REMARK    6  A    between atoms: C_14  and  O_15 
REMARK    7  A    between atoms: O_15  and  C_16 
REMARK    8  A    between atoms: N_25  and  C_26 
ROOT
HETATM    1  N   UNL     1      39.253 -10.945   4.557  1.00  0.00    -0.325 N 
HETATM    2  C   UNL     1      39.777 -10.259   3.490  1.00  0.00     0.250 C 
HETATM    3  O   UNL     1      39.774  -9.043   3.375  1.00  0.00    -0.270 OA
HETATM    4  C   UNL     1      40.298 -11.302   2.478  1.00  0.00     0.118 C 
HETATM    5  C   UNL     1      41.680 -10.865   1.983  1.00  0.00     0.061 C 
HETATM    6  C   UNL     1      41.615  -9.736   0.956  1.00  0.00     0.129 C 
HETATM    7  N   UNL     1      40.603  -9.964  -0.072  1.00  0.00    -0.350 N 
HETATM    8  C   UNL     1      40.864  -9.479  -1.358  1.00  0.00     0.244 C 
HETATM    9  O   UNL     1      41.951  -8.975  -1.658  1.00  0.00    -0.271 OA
HETATM   10  C   UNL     1      39.256 -10.237   0.420  1.00  0.00     0.129 C 
HETATM   11  C   UNL     1      39.234 -11.423   1.375  1.00  0.00     0.061 C 
HETATM   12  N   UNL     1      40.341 -12.535   3.322  1.00  0.00    -0.346 N 
HETATM   13  C   UNL     1      39.637 -12.320   4.584  1.00  0.00     0.254 C 
ENDROOT
BRANCH  12  14
HETATM   14  C   UNL     1      40.713 -13.817   2.956  1.00  0.00     0.032 A 
HETATM   15  C   UNL     1      41.914 -14.420   3.361  1.00  0.00     0.029 A 
HETATM   16  C   UNL     1      42.281 -15.716   2.971  1.00  0.00     0.002 A 
HETATM   17  C   UNL     1      41.443 -16.468   2.161  1.00  0.00     0.000 A 
HETATM   18  C   UNL     1      40.238 -15.921   1.751  1.00  0.00     0.002 A 
HETATM   19  C   UNL     1      39.883 -14.622   2.147  1.00  0.00     0.029 A 
ENDBRANCH  12  14
BRANCH   1  20
HETATM   20  C   UNL     1      38.549 -10.340   5.674  1.00  0.00     0.230 C 
BRANCH  20  21
HETATM   21  C   UNL     1      39.326 -10.389   6.990  1.00  0.00     0.236 C 
HETATM   22  N   UNL     1      40.599  -9.871   6.914  1.00  0.00    -0.351 N 
HETATM   23  H   UNL     1      40.810  -9.349   6.071  1.00  0.00     0.163 HD
HETATM   24  O   UNL     1      38.790 -10.780   8.023  1.00  0.00    -0.272 OA
BRANCH  22  25
HETATM   25  C   UNL     1      41.438  -9.568   8.068  1.00  0.00     0.113 C 
HETATM   26  C   UNL     1      41.285  -8.146   8.616  1.00  0.00     0.037 C 
BRANCH  25  27
HETATM   27  C   UNL     1      42.877  -9.985   7.814  1.00  0.00    -0.036 A 
HETATM   28  C   UNL     1      43.149 -11.074   6.969  1.00  0.00     0.009 A 
HETATM   29  C   UNL     1      44.463 -11.463   6.703  1.00  0.00     0.001 A 
HETATM   30  C   UNL     1      45.527 -10.766   7.270  1.00  0.00     0.000 A 
HETATM   31  C   UNL     1      45.275  -9.678   8.102  1.00  0.00     0.001 A 
HETATM   32  C   UNL     1      43.961  -9.288   8.370  1.00  0.00     0.009 A 
ENDBRANCH  25  27
ENDBRANCH  22  25
ENDBRANCH  20  21
ENDBRANCH   1  20
BRANCH   8  33
HETATM   33  C   UNL     1      39.751  -9.562  -2.407  1.00  0.00     0.278 C 
BRANCH  33  34
HETATM   34  O   UNL     1      40.008 -10.633  -3.308  1.00  0.00    -0.342 OA
BRANCH  34  35
HETATM   35  C   UNL     1      39.537 -11.862  -2.933  1.00  0.00     0.069 A 
HETATM   36  C   UNL     1      38.215 -12.160  -2.597  1.00  0.00     0.037 A 
HETATM   37  C   UNL     1      37.864 -13.458  -2.214  1.00  0.00     0.003 A 
HETATM   38  C   UNL     1      38.831 -14.461  -2.165  1.00  0.00     0.000 A 
HETATM   39  C   UNL     1      40.153 -14.166  -2.490  1.00  0.00     0.003 A 
HETATM   40  C   UNL     1      40.504 -12.868  -2.866  1.00  0.00     0.037 A 
ENDBRANCH  34  35
ENDBRANCH  33  34
ENDBRANCH   8  33
TORSDOF 8
ENDMDL
MODEL 9
REMARK VINA RESULT:      -9.1      2.652     10.507
REMARK  8 active torsions:
REMARK  status: ('A' for Active; 'I' for Inactive)
REMARK    1  A    between atoms: C_2  and  N_3 
REMARK    2  A    between atoms: C_2  and  C_34 
REMARK       I    between atoms: N_3  and  C_4 
REMARK    3  A    between atoms: C_4  and  C_5 
REMARK    4  A    between atoms: C_5  and  N_6 
REMARK       I    between atoms: N_12  and  C_13 
REMARK    5  A    between atoms: C_13  and  C_14 
REMARK    6  A    between atoms: C_14  and  O_15 
REMARK    7  A    between atoms: O_15  and  C_16 
REMARK    8  A    between atoms: N_25  and  C_26 
ROOT
HETATM    1  N   UNL     1      40.827 -13.650   5.371  1.00  0.00    -0.325 N 
HETATM    2  C   UNL     1      41.480 -12.547   5.863  1.00  0.00     0.250 C 
HETATM    3  O   UNL     1      42.405 -12.584   6.660  1.00  0.00    -0.270 OA
HETATM    4  C   UNL     1      40.792 -11.297   5.272  1.00  0.00     0.118 C 
HETATM    5  C   UNL     1      41.868 -10.316   4.799  1.00  0.00     0.061 C 
HETATM    6  C   UNL     1      42.521  -9.550   5.948  1.00  0.00     0.129 C 
HETATM    7  N   UNL     1      41.549  -9.031   6.907  1.00  0.00    -0.350 N 
HETATM    8  C   UNL     1      41.847  -7.820   7.542  1.00  0.00     0.244 C 
HETATM    9  O   UNL     1      42.835  -7.147   7.234  1.00  0.00    -0.271 OA
HETATM   10  C   UNL     1      40.620 -10.014   7.457  1.00  0.00     0.129 C 
HETATM   11  C   UNL     1      39.858 -10.745   6.361  1.00  0.00     0.061 C 
HETATM   12  N   UNL     1      40.011 -11.896   4.147  1.00  0.00    -0.346 N 
HETATM   13  C   UNL     1      39.989 -13.353   4.253  1.00  0.00     0.254 C 
ENDROOT
BRANCH  12  14
HETATM   14  C   UNL     1      39.166 -11.264   3.251  1.00  0.00     0.032 A 
HETATM   15  C   UNL     1      38.791  -9.916   3.360  1.00  0.00     0.029 A 
HETATM   16  C   UNL     1      37.924  -9.294   2.449  1.00  0.00     0.002 A 
HETATM   17  C   UNL     1      37.404 -10.006   1.379  1.00  0.00     0.000 A 
HETATM   18  C   UNL     1      37.761 -11.336   1.221  1.00  0.00     0.002 A 
HETATM   19  C   UNL     1      38.628 -11.946   2.139  1.00  0.00     0.029 A 
ENDBRANCH  12  14
BRANCH   1  20
HETATM   20  C   UNL     1      41.083 -15.020   5.775  1.00  0.00     0.230 C 
BRANCH  20  21
HETATM   21  C   UNL     1      42.361 -15.609   5.178  1.00  0.00     0.236 C 
HETATM   22  N   UNL     1      42.185 -16.222   3.958  1.00  0.00    -0.351 N 
HETATM   23  H   UNL     1      41.293 -16.050   3.506  1.00  0.00     0.163 HD
HETATM   24  O   UNL     1      43.447 -15.447   5.728  1.00  0.00    -0.272 OA
BRANCH  22  25
HETATM   25  C   UNL     1      43.270 -16.627   3.071  1.00  0.00     0.113 C 
HETATM   26  C   UNL     1      43.181 -16.064   1.650  1.00  0.00     0.037 C 
BRANCH  25  27
HETATM   27  C   UNL     1      43.485 -18.129   3.133  1.00  0.00    -0.036 A 
HETATM   28  C   UNL     1      44.003 -18.713   4.301  1.00  0.00     0.009 A 
HETATM   29  C   UNL     1      44.189 -20.094   4.390  1.00  0.00     0.001 A 
HETATM   30  C   UNL     1      43.853 -20.915   3.316  1.00  0.00     0.000 A 
HETATM   31  C   UNL     1      43.329 -20.354   2.154  1.00  0.00     0.001 A 
HETATM   32  C   UNL     1      43.144 -18.972   2.064  1.00  0.00     0.009 A 
ENDBRANCH  25  27
ENDBRANCH  22  25
ENDBRANCH  20  21
ENDBRANCH   1  20
BRANCH   8  33
HETATM   33  C   UNL     1      40.924  -7.341   8.666  1.00  0.00     0.278 C 
BRANCH  33  34
HETATM   34  O   UNL     1      41.627  -6.457   9.532  1.00  0.00    -0.342 OA
BRANCH  34  35
HETATM   35  C   UNL     1      42.139  -7.012  10.674  1.00  0.00     0.069 A 
HETATM   36  C   UNL     1      43.182  -7.937  10.732  1.00  0.00     0.037 A 
HETATM   37  C   UNL     1      43.604  -8.443  11.966  1.00  0.00     0.003 A 
HETATM   38  C   UNL     1      42.986  -8.025  13.144  1.00  0.00     0.000 A 
HETATM   39  C   UNL     1      41.939  -7.108  13.090  1.00  0.00     0.003 A 
HETATM   40  C   UNL     1      41.513  -6.609  11.857  1.00  0.00     0.037 A 
ENDBRANCH  34  35
ENDBRANCH  33  34
ENDBRANCH   8  33
TORSDOF 8
ENDMDL
MODEL 10
REMARK VINA RESULT:      -8.9     18.833     20.862
REMARK  8 active torsions:
REMARK  status: ('A' for Active; 'I' for Inactive)
REMARK    1  A    between atoms: C_2  and  N_3 
REMARK    2  A    between atoms: C_2  and  C_34 
REMARK       I    between atoms: N_3  and  C_4 
REMARK    3  A    between atoms: C_4  and  C_5 
REMARK    4  A    between atoms: C_5  and  N_6 
REMARK       I    between atoms: N_12  and  C_13 
REMARK    5  A    between atoms: C_13  and  C_14 
REMARK    6  A    between atoms: C_14  and  O_15 
REMARK    7  A    between atoms: O_15  and  C_16 
REMARK    8  A    between atoms: N_25  and  C_26 
ROOT
HETATM    1  N   UNL     1      48.247 -29.543   2.698  1.00  0.00    -0.325 N 
HETATM    2  C   UNL     1      47.464 -28.963   1.731  1.00  0.00     0.250 C 
HETATM    3  O   UNL     1      46.505 -28.240   1.953  1.00  0.00    -0.270 OA
HETATM    4  C   UNL     1      47.988 -29.441   0.360  1.00  0.00     0.118 C 
HETATM    5  C   UNL     1      48.065 -28.242  -0.588  1.00  0.00     0.061 C 
HETATM    6  C   UNL     1      46.700 -27.823  -1.131  1.00  0.00     0.129 C 
HETATM    7  N   UNL     1      45.901 -28.956  -1.587  1.00  0.00    -0.350 N 
HETATM    8  C   UNL     1      45.038 -28.748  -2.670  1.00  0.00     0.244 C 
HETATM    9  O   UNL     1      45.023 -27.685  -3.298  1.00  0.00    -0.271 OA
HETATM   10  C   UNL     1      45.717 -30.030  -0.616  1.00  0.00     0.129 C 
HETATM   11  C   UNL     1      47.049 -30.565  -0.108  1.00  0.00     0.061 C 
HETATM   12  N   UNL     1      49.331 -29.983   0.731  1.00  0.00    -0.346 N 
HETATM   13  C   UNL     1      49.458 -30.098   2.182  1.00  0.00     0.254 C 
ENDROOT
BRANCH  12  14
HETATM   14  C   UNL     1      50.277 -30.576  -0.087  1.00  0.00     0.032 A 
HETATM   15  C   UNL     1      51.162 -31.574   0.351  1.00  0.00     0.029 A 
HETATM   16  C   UNL     1      52.124 -32.156  -0.489  1.00  0.00     0.002 A 
HETATM   17  C   UNL     1      52.226 -31.763  -1.815  1.00  0.00     0.000 A 
HETATM   18  C   UNL     1      51.361 -30.794  -2.296  1.00  0.00     0.002 A 
HETATM   19  C   UNL     1      50.404 -30.219  -1.446  1.00  0.00     0.029 A 
ENDBRANCH  12  14
BRANCH   1  20
HETATM   20  C   UNL     1      48.013 -29.449   4.128  1.00  0.00     0.230 C 
BRANCH  20  21
HETATM   21  C   UNL     1      46.976 -30.444   4.648  1.00  0.00     0.236 C 
HETATM   22  N   UNL     1      45.926 -30.669   3.786  1.00  0.00    -0.351 N 
HETATM   23  H   UNL     1      46.050 -30.314   2.844  1.00  0.00     0.163 HD
HETATM   24  O   UNL     1      47.148 -31.037   5.709  1.00  0.00    -0.272 OA
BRANCH  22  25
HETATM   25  C   UNL     1      44.956 -31.749   3.929  1.00  0.00     0.113 C 
HETATM   26  C   UNL     1      45.500 -33.146   3.614  1.00  0.00     0.037 C 
BRANCH  25  27
HETATM   27  C   UNL     1      43.661 -31.409   3.211  1.00  0.00    -0.036 A 
HETATM   28  C   UNL     1      43.543 -30.190   2.523  1.00  0.00     0.009 A 
HETATM   29  C   UNL     1      42.371 -29.865   1.837  1.00  0.00     0.001 A 
HETATM   30  C   UNL     1      41.301 -30.756   1.820  1.00  0.00     0.000 A 
HETATM   31  C   UNL     1      41.405 -31.974   2.488  1.00  0.00     0.001 A 
HETATM   32  C   UNL     1      42.577 -32.299   3.175  1.00  0.00     0.009 A 
ENDBRANCH  25  27
ENDBRANCH  22  25
ENDBRANCH  20  21
ENDBRANCH   1  20
BRANCH   8  33
HETATM   33  C   UNL     1      44.075 -29.873  -3.059  1.00  0.00     0.278 C 
BRANCH  33  34
HETATM   34  O   UNL     1      43.744 -29.777  -4.440  1.00  0.00    -0.342 OA
BRANCH  34  35
HETATM   35  C   UNL     1      44.467 -30.570  -5.290  1.00  0.00     0.069 A 
HETATM   36  C   UNL     1      45.725 -31.113  -5.024  1.00  0.00     0.037 A 
HETATM   37  C   UNL     1      46.369 -31.897  -5.986  1.00  0.00     0.003 A 
HETATM   38  C   UNL     1      45.758 -32.141  -7.215  1.00  0.00     0.000 A 
HETATM   39  C   UNL     1      44.507 -31.594  -7.489  1.00  0.00     0.003 A 
HETATM   40  C   UNL     1      43.868 -30.804  -6.530  1.00  0.00     0.037 A 
ENDBRANCH  34  35
ENDBRANCH  33  34
ENDBRANCH   8  33
TORSDOF 8
ENDMDL
