MODEL 1
REMARK VINA RESULT:      -7.7      0.000      0.000
REMARK  7 active torsions:
REMARK  status: ('A' for Active; 'I' for Inactive)
REMARK    1  A    between atoms: C_2  and  C_3 
REMARK    2  A    between atoms: C_3  and  O_4 
REMARK    3  A    between atoms: O_4  and  C_5 
REMARK    4  A    between atoms: C_8  and  C_9 
REMARK    5  A    between atoms: C_9  and  N_10 
REMARK    6  A    between atoms: N_10  and  C_11 
REMARK    7  A    between atoms: C_18  and  C_19 
REMARK       I    between atoms: C_19  and  N_20 
ROOT
HETATM    1  C   UNL     1      42.821 -14.044   3.372  1.00  0.00     0.009 A 
HETATM    2  C   UNL     1      42.934 -15.045   4.354  1.00  0.00     0.039 A 
HETATM    3  C   UNL     1      43.239 -16.374   3.993  1.00  0.00     0.030 A 
HETATM    4  C   UNL     1      43.463 -16.665   2.654  1.00  0.00     0.063 A 
HETATM    5  N   UNL     1      43.740 -18.002   2.615  1.00  0.00    -0.277 N 
HETATM    6  H   UNL     1      43.959 -18.559   1.797  1.00  0.00     0.189 HD
HETATM    7  N   UNL     1      43.714 -18.612   3.812  1.00  0.00    -0.168 NA
HETATM    8  C   UNL     1      43.409 -17.615   4.675  1.00  0.00     0.156 A 
HETATM    9  C   UNL     1      43.403 -15.699   1.650  1.00  0.00     0.034 A 
HETATM   10  C   UNL     1      43.092 -14.387   2.042  1.00  0.00     0.026 A 
ENDROOT
BRANCH   1  11
HETATM   11  N   UNL     1      42.586 -12.729   3.793  1.00  0.00    -0.289 NA
HETATM   12  H   UNL     1      41.743 -12.339   3.375  1.00  0.00     0.128 HD
BRANCH  11  13
HETATM   13  C   UNL     1      43.683 -11.773   3.809  1.00  0.00     0.131 C 
BRANCH  13  14
HETATM   14  C   UNL     1      44.114 -11.520   5.235  1.00  0.00    -0.045 A 
HETATM   15  C   UNL     1      45.476 -11.455   5.562  1.00  0.00     0.011 A 
HETATM   16  C   UNL     1      45.887 -11.199   6.874  1.00  0.00     0.037 A 
HETATM   17  C   UNL     1      44.941 -11.001   7.879  1.00  0.00     0.068 A 
HETATM   18  C   UNL     1      43.583 -11.088   7.562  1.00  0.00     0.037 A 
HETATM   19  C   UNL     1      43.169 -11.345   6.253  1.00  0.00     0.011 A 
BRANCH  17  20
HETATM   20  O   UNL     1      45.206 -10.730   9.192  1.00  0.00    -0.351 OA
BRANCH  20  21
HETATM   21  C   UNL     1      44.991  -9.388   9.632  1.00  0.00     0.179 C 
BRANCH  21  22
HETATM   22  C   UNL     1      44.403  -9.420  11.052  1.00  0.00     0.002 C 
HETATM   23  C   UNL     1      43.747 -10.769  11.353  1.00  0.00     0.011 C 
HETATM   24  C   UNL     1      43.396  -8.287  11.237  1.00  0.00     0.011 C 
ENDBRANCH  21  22
ENDBRANCH  20  21
ENDBRANCH  17  20
ENDBRANCH  13  14
ENDBRANCH  11  13
ENDBRANCH   1  11
BRANCH   8  25
HETATM   25  C   UNL     1      43.281 -17.865   6.116  1.00  0.00     0.270 C 
HETATM   26  N   UNL     1      43.450 -19.175   6.473  1.00  0.00    -0.365 N 
HETATM   27  H   UNL     1      43.642 -19.855   5.746  1.00  0.00     0.159 HD
HETATM   28  H   UNL     1      43.380 -19.444   7.442  1.00  0.00     0.159 HD
HETATM   29  O   UNL     1      43.043 -17.003   6.956  1.00  0.00    -0.266 OA
ENDBRANCH   8  25
TORSDOF 7
ENDMDL
MODEL 2
REMARK VINA RESULT:      -7.7      2.497      3.613
REMARK  7 active torsions:
REMARK  status: ('A' for Active; 'I' for Inactive)
REMARK    1  A    between atoms: C_2  and  C_3 
REMARK    2  A    between atoms: C_3  and  O_4 
REMARK    3  A    between atoms: O_4  and  C_5 
REMARK    4  A    between atoms: C_8  and  C_9 
REMARK    5  A    between atoms: C_9  and  N_10 
REMARK    6  A    between atoms: N_10  and  C_11 
REMARK    7  A    between atoms: C_18  and  C_19 
REMARK       I    between atoms: C_19  and  N_20 
ROOT
HETATM    1  C   UNL     1      40.637 -15.809   2.916  1.00  0.00     0.009 A 
HETATM    2  C   UNL     1      41.104 -15.898   4.239  1.00  0.00     0.039 A 
HETATM    3  C   UNL     1      42.242 -16.672   4.548  1.00  0.00     0.030 A 
HETATM    4  C   UNL     1      42.911 -17.314   3.515  1.00  0.00     0.063 A 
HETATM    5  N   UNL     1      43.955 -17.964   4.109  1.00  0.00    -0.277 N 
HETATM    6  H   UNL     1      44.660 -18.534   3.654  1.00  0.00     0.189 HD
HETATM    7  N   UNL     1      44.026 -17.807   5.442  1.00  0.00    -0.168 NA
HETATM    8  C   UNL     1      42.973 -17.007   5.727  1.00  0.00     0.156 A 
HETATM    9  C   UNL     1      42.511 -17.222   2.182  1.00  0.00     0.034 A 
HETATM   10  C   UNL     1      41.372 -16.448   1.909  1.00  0.00     0.026 A 
ENDROOT
BRANCH   1  11
HETATM   11  N   UNL     1      39.546 -14.970   2.654  1.00  0.00    -0.289 NA
HETATM   12  H   UNL     1      38.763 -15.478   2.245  1.00  0.00     0.128 HD
BRANCH  11  13
HETATM   13  C   UNL     1      39.766 -13.686   2.007  1.00  0.00     0.131 C 
BRANCH  13  14
HETATM   14  C   UNL     1      40.753 -12.874   2.813  1.00  0.00    -0.045 A 
HETATM   15  C   UNL     1      42.058 -12.674   2.342  1.00  0.00     0.011 A 
HETATM   16  C   UNL     1      42.974 -11.906   3.069  1.00  0.00     0.037 A 
HETATM   17  C   UNL     1      42.596 -11.325   4.278  1.00  0.00     0.068 A 
HETATM   18  C   UNL     1      41.304 -11.541   4.764  1.00  0.00     0.037 A 
HETATM   19  C   UNL     1      40.387 -12.308   4.041  1.00  0.00     0.011 A 
BRANCH  17  20
HETATM   20  O   UNL     1      43.384 -10.543   5.076  1.00  0.00    -0.351 OA
BRANCH  20  21
HETATM   21  C   UNL     1      43.259 -10.726   6.487  1.00  0.00     0.179 C 
BRANCH  21  22
HETATM   22  C   UNL     1      44.394 -11.642   6.972  1.00  0.00     0.002 C 
HETATM   23  C   UNL     1      45.701 -11.347   6.233  1.00  0.00     0.011 C 
HETATM   24  C   UNL     1      44.006 -13.109   6.798  1.00  0.00     0.011 C 
ENDBRANCH  21  22
ENDBRANCH  20  21
ENDBRANCH  17  20
ENDBRANCH  13  14
ENDBRANCH  11  13
ENDBRANCH   1  11
BRANCH   8  25
HETATM   25  C   UNL     1      42.685 -16.586   7.104  1.00  0.00     0.270 C 
HETATM   26  N   UNL     1      43.689 -16.859   7.993  1.00  0.00    -0.365 N 
HETATM   27  H   UNL     1      44.526 -17.317   7.652  1.00  0.00     0.159 HD
HETATM   28  H   UNL     1      43.582 -16.607   8.963  1.00  0.00     0.159 HD
HETATM   29  O   UNL     1      41.648 -16.037   7.464  1.00  0.00    -0.266 OA
ENDBRANCH   8  25
TORSDOF 7
ENDMDL
MODEL 3
REMARK VINA RESULT:      -7.7      3.167      8.767
REMARK  7 active torsions:
REMARK  status: ('A' for Active; 'I' for Inactive)
REMARK    1  A    between atoms: C_2  and  C_3 
REMARK    2  A    between atoms: C_3  and  O_4 
REMARK    3  A    between atoms: O_4  and  C_5 
REMARK    4  A    between atoms: C_8  and  C_9 
REMARK    5  A    between atoms: C_9  and  N_10 
REMARK    6  A    between atoms: N_10  and  C_11 
REMARK    7  A    between atoms: C_18  and  C_19 
REMARK       I    between atoms: C_19  and  N_20 
ROOT
HETATM    1  C   UNL     1      43.327 -11.816   6.910  1.00  0.00     0.009 A 
HETATM    2  C   UNL     1      43.067 -10.552   7.471  1.00  0.00     0.039 A 
HETATM    3  C   UNL     1      44.128  -9.696   7.832  1.00  0.00     0.030 A 
HETATM    4  C   UNL     1      45.430 -10.110   7.590  1.00  0.00     0.063 A 
HETATM    5  N   UNL     1      46.223  -9.087   8.028  1.00  0.00    -0.277 N 
HETATM    6  H   UNL     1      47.236  -9.043   8.003  1.00  0.00     0.189 HD
HETATM    7  N   UNL     1      45.553  -8.041   8.540  1.00  0.00    -0.168 NA
HETATM    8  C   UNL     1      44.254  -8.402   8.422  1.00  0.00     0.156 A 
HETATM    9  C   UNL     1      45.737 -11.335   6.999  1.00  0.00     0.034 A 
HETATM   10  C   UNL     1      44.659 -12.166   6.655  1.00  0.00     0.026 A 
ENDROOT
BRANCH   1  11
HETATM   11  N   UNL     1      42.237 -12.596   6.504  1.00  0.00    -0.289 NA
HETATM   12  H   UNL     1      42.341 -13.571   6.780  1.00  0.00     0.128 HD
BRANCH  11  13
HETATM   13  C   UNL     1      41.721 -12.460   5.150  1.00  0.00     0.131 C 
BRANCH  13  14
HETATM   14  C   UNL     1      42.203 -13.618   4.307  1.00  0.00    -0.045 A 
HETATM   15  C   UNL     1      42.680 -13.397   3.007  1.00  0.00     0.011 A 
HETATM   16  C   UNL     1      43.150 -14.457   2.225  1.00  0.00     0.037 A 
HETATM   17  C   UNL     1      43.151 -15.755   2.733  1.00  0.00     0.068 A 
HETATM   18  C   UNL     1      42.654 -15.984   4.018  1.00  0.00     0.037 A 
HETATM   19  C   UNL     1      42.183 -14.927   4.802  1.00  0.00     0.011 A 
BRANCH  17  20
HETATM   20  O   UNL     1      43.593 -16.873   2.083  1.00  0.00    -0.351 OA
BRANCH  20  21
HETATM   21  C   UNL     1      42.902 -18.094   2.352  1.00  0.00     0.179 C 
BRANCH  21  22
HETATM   22  C   UNL     1      43.935 -19.206   2.595  1.00  0.00     0.002 C 
HETATM   23  C   UNL     1      43.529 -20.505   1.896  1.00  0.00     0.011 C 
HETATM   24  C   UNL     1      44.120 -19.444   4.092  1.00  0.00     0.011 C 
ENDBRANCH  21  22
ENDBRANCH  20  21
ENDBRANCH  17  20
ENDBRANCH  13  14
ENDBRANCH  11  13
ENDBRANCH   1  11
BRANCH   8  25
HETATM   25  C   UNL     1      43.172  -7.519   8.874  1.00  0.00     0.270 C 
HETATM   26  N   UNL     1      42.449  -6.957   7.858  1.00  0.00    -0.365 N 
HETATM   27  H   UNL     1      42.703  -7.179   6.902  1.00  0.00     0.159 HD
HETATM   28  H   UNL     1      41.685  -6.335   8.070  1.00  0.00     0.159 HD
HETATM   29  O   UNL     1      42.910  -7.281  10.049  1.00  0.00    -0.266 OA
ENDBRANCH   8  25
TORSDOF 7
ENDMDL
MODEL 4
REMARK VINA RESULT:      -7.7      3.351      8.605
REMARK  7 active torsions:
REMARK  status: ('A' for Active; 'I' for Inactive)
REMARK    1  A    between atoms: C_2  and  C_3 
REMARK    2  A    between atoms: C_3  and  O_4 
REMARK    3  A    between atoms: O_4  and  C_5 
REMARK    4  A    between atoms: C_8  and  C_9 
REMARK    5  A    between atoms: C_9  and  N_10 
REMARK    6  A    between atoms: N_10  and  C_11 
REMARK    7  A    between atoms: C_18  and  C_19 
REMARK       I    between atoms: C_19  and  N_20 
ROOT
HETATM    1  C   UNL     1      44.245 -11.036   6.403  1.00  0.00     0.009 A 
HETATM    2  C   UNL     1      43.378 -10.539   7.394  1.00  0.00     0.039 A 
HETATM    3  C   UNL     1      43.873 -10.176   8.663  1.00  0.00     0.030 A 
HETATM    4  C   UNL     1      45.236 -10.283   8.902  1.00  0.00     0.063 A 
HETATM    5  N   UNL     1      45.412  -9.858  10.189  1.00  0.00    -0.277 N 
HETATM    6  H   UNL     1      46.286  -9.797  10.699  1.00  0.00     0.189 HD
HETATM    7  N   UNL     1      44.282  -9.487  10.814  1.00  0.00    -0.168 NA
HETATM    8  C   UNL     1      43.321  -9.675   9.880  1.00  0.00     0.156 A 
HETATM    9  C   UNL     1      46.140 -10.729   7.939  1.00  0.00     0.034 A 
HETATM   10  C   UNL     1      45.616 -11.088   6.688  1.00  0.00     0.026 A 
ENDROOT
BRANCH   1  11
HETATM   11  N   UNL     1      43.713 -11.315   5.138  1.00  0.00    -0.289 NA
HETATM   12  H   UNL     1      43.737 -10.501   4.526  1.00  0.00     0.128 HD
BRANCH  11  13
HETATM   13  C   UNL     1      42.459 -12.045   5.031  1.00  0.00     0.131 C 
BRANCH  13  14
HETATM   14  C   UNL     1      42.676 -13.312   4.237  1.00  0.00    -0.045 A 
HETATM   15  C   UNL     1      42.394 -14.562   4.806  1.00  0.00     0.011 A 
HETATM   16  C   UNL     1      42.570 -15.740   4.074  1.00  0.00     0.037 A 
HETATM   17  C   UNL     1      43.029 -15.685   2.759  1.00  0.00     0.068 A 
HETATM   18  C   UNL     1      43.334 -14.444   2.195  1.00  0.00     0.037 A 
HETATM   19  C   UNL     1      43.161 -13.265   2.924  1.00  0.00     0.011 A 
BRANCH  17  20
HETATM   20  O   UNL     1      43.230 -16.755   1.931  1.00  0.00    -0.351 OA
BRANCH  20  21
HETATM   21  C   UNL     1      42.718 -18.016   2.367  1.00  0.00     0.179 C 
BRANCH  21  22
HETATM   22  C   UNL     1      43.895 -18.980   2.586  1.00  0.00     0.002 C 
HETATM   23  C   UNL     1      43.602 -20.359   1.992  1.00  0.00     0.011 C 
HETATM   24  C   UNL     1      44.214 -19.100   4.075  1.00  0.00     0.011 C 
ENDBRANCH  21  22
ENDBRANCH  20  21
ENDBRANCH  17  20
ENDBRANCH  13  14
ENDBRANCH  11  13
ENDBRANCH   1  11
BRANCH   8  25
HETATM   25  C   UNL     1      41.911  -9.381  10.166  1.00  0.00     0.270 C 
HETATM   26  N   UNL     1      41.389 -10.104  11.203  1.00  0.00    -0.365 N 
HETATM   27  H   UNL     1      41.988 -10.767  11.681  1.00  0.00     0.159 HD
HETATM   28  H   UNL     1      40.427  -9.972  11.472  1.00  0.00     0.159 HD
HETATM   29  O   UNL     1      41.229  -8.567   9.550  1.00  0.00    -0.266 OA
ENDBRANCH   8  25
TORSDOF 7
ENDMDL
MODEL 5
REMARK VINA RESULT:      -7.7      1.799      2.631
REMARK  7 active torsions:
REMARK  status: ('A' for Active; 'I' for Inactive)
REMARK    1  A    between atoms: C_2  and  C_3 
REMARK    2  A    between atoms: C_3  and  O_4 
REMARK    3  A    between atoms: O_4  and  C_5 
REMARK    4  A    between atoms: C_8  and  C_9 
REMARK    5  A    between atoms: C_9  and  N_10 
REMARK    6  A    between atoms: N_10  and  C_11 
REMARK    7  A    between atoms: C_18  and  C_19 
REMARK       I    between atoms: C_19  and  N_20 
ROOT
HETATM    1  C   UNL     1      41.308 -15.705   3.385  1.00  0.00     0.009 A 
HETATM    2  C   UNL     1      41.819 -16.403   4.495  1.00  0.00     0.039 A 
HETATM    3  C   UNL     1      42.859 -17.343   4.334  1.00  0.00     0.030 A 
HETATM    4  C   UNL     1      43.392 -17.536   3.067  1.00  0.00     0.063 A 
HETATM    5  N   UNL     1      44.368 -18.478   3.225  1.00  0.00    -0.277 N 
HETATM    6  H   UNL     1      44.972 -18.861   2.507  1.00  0.00     0.189 HD
HETATM    7  N   UNL     1      44.518 -18.921   4.485  1.00  0.00    -0.168 NA
HETATM    8  C   UNL     1      43.592 -18.224   5.183  1.00  0.00     0.156 A 
HETATM    9  C   UNL     1      42.948 -16.837   1.945  1.00  0.00     0.034 A 
HETATM   10  C   UNL     1      41.909 -15.913   2.137  1.00  0.00     0.026 A 
ENDROOT
BRANCH   1  11
HETATM   11  N   UNL     1      40.325 -14.733   3.611  1.00  0.00    -0.289 NA
HETATM   12  H   UNL     1      39.387 -15.094   3.447  1.00  0.00     0.128 HD
BRANCH  11  13
HETATM   13  C   UNL     1      40.501 -13.393   3.071  1.00  0.00     0.131 C 
BRANCH  13  14
HETATM   14  C   UNL     1      41.622 -12.695   3.804  1.00  0.00    -0.045 A 
HETATM   15  C   UNL     1      42.807 -12.360   3.133  1.00  0.00     0.011 A 
HETATM   16  C   UNL     1      43.843 -11.693   3.795  1.00  0.00     0.037 A 
HETATM   17  C   UNL     1      43.707 -11.348   5.139  1.00  0.00     0.068 A 
HETATM   18  C   UNL     1      42.539 -11.700   5.818  1.00  0.00     0.037 A 
HETATM   19  C   UNL     1      41.502 -12.368   5.160  1.00  0.00     0.011 A 
BRANCH  17  20
HETATM   20  O   UNL     1      44.632 -10.685   5.897  1.00  0.00    -0.351 OA
BRANCH  20  21
HETATM   21  C   UNL     1      45.480 -11.482   6.726  1.00  0.00     0.179 C 
BRANCH  21  22
HETATM   22  C   UNL     1      45.660 -10.773   8.078  1.00  0.00     0.002 C 
HETATM   23  C   UNL     1      44.318 -10.585   8.790  1.00  0.00     0.011 C 
HETATM   24  C   UNL     1      46.351  -9.426   7.886  1.00  0.00     0.011 C 
ENDBRANCH  21  22
ENDBRANCH  20  21
ENDBRANCH  17  20
ENDBRANCH  13  14
ENDBRANCH  11  13
ENDBRANCH   1  11
BRANCH   8  25
HETATM   25  C   UNL     1      43.423 -18.415   6.630  1.00  0.00     0.270 C 
HETATM   26  N   UNL     1      43.487 -17.258   7.357  1.00  0.00    -0.365 N 
HETATM   27  H   UNL     1      43.643 -16.385   6.865  1.00  0.00     0.159 HD
HETATM   28  H   UNL     1      43.383 -17.289   8.358  1.00  0.00     0.159 HD
HETATM   29  O   UNL     1      43.240 -19.499   7.174  1.00  0.00    -0.266 OA
ENDBRANCH   8  25
TORSDOF 7
ENDMDL
MODEL 6
REMARK VINA RESULT:      -7.5      3.352      7.461
REMARK  7 active torsions:
REMARK  status: ('A' for Active; 'I' for Inactive)
REMARK    1  A    between atoms: C_2  and  C_3 
REMARK    2  A    between atoms: C_3  and  O_4 
REMARK    3  A    between atoms: O_4  and  C_5 
REMARK    4  A    between atoms: C_8  and  C_9 
REMARK    5  A    between atoms: C_9  and  N_10 
REMARK    6  A    between atoms: N_10  and  C_11 
REMARK    7  A    between atoms: C_18  and  C_19 
REMARK       I    between atoms: C_19  and  N_20 
ROOT
HETATM    1  C   UNL     1      40.539 -12.628   4.314  1.00  0.00     0.009 A 
HETATM    2  C   UNL     1      41.258 -13.481   5.172  1.00  0.00     0.039 A 
HETATM    3  C   UNL     1      42.287 -12.971   5.991  1.00  0.00     0.030 A 
HETATM    4  C   UNL     1      42.549 -11.609   5.961  1.00  0.00     0.063 A 
HETATM    5  N   UNL     1      43.569 -11.417   6.849  1.00  0.00    -0.277 N 
HETATM    6  H   UNL     1      44.016 -10.539   7.088  1.00  0.00     0.189 HD
HETATM    7  N   UNL     1      44.001 -12.536   7.454  1.00  0.00    -0.168 NA
HETATM    8  C   UNL     1      43.213 -13.507   6.935  1.00  0.00     0.156 A 
HETATM    9  C   UNL     1      41.835 -10.719   5.159  1.00  0.00     0.034 A 
HETATM   10  C   UNL     1      40.821 -11.257   4.352  1.00  0.00     0.026 A 
ENDROOT
BRANCH   1  11
HETATM   11  N   UNL     1      39.481 -13.174   3.575  1.00  0.00    -0.289 NA
HETATM   12  H   UNL     1      38.955 -13.862   4.112  1.00  0.00     0.128 HD
BRANCH  11  13
HETATM   13  C   UNL     1      39.709 -13.606   2.204  1.00  0.00     0.131 C 
BRANCH  13  14
HETATM   14  C   UNL     1      40.796 -14.655   2.178  1.00  0.00    -0.045 A 
HETATM   15  C   UNL     1      42.060 -14.352   1.653  1.00  0.00     0.011 A 
HETATM   16  C   UNL     1      43.081 -15.308   1.644  1.00  0.00     0.037 A 
HETATM   17  C   UNL     1      42.853 -16.581   2.162  1.00  0.00     0.068 A 
HETATM   18  C   UNL     1      41.588 -16.896   2.665  1.00  0.00     0.037 A 
HETATM   19  C   UNL     1      40.565 -15.943   2.674  1.00  0.00     0.011 A 
BRANCH  17  20
HETATM   20  O   UNL     1      43.763 -17.599   2.228  1.00  0.00    -0.351 OA
BRANCH  20  21
HETATM   21  C   UNL     1      43.729 -18.424   3.393  1.00  0.00     0.179 C 
BRANCH  21  22
HETATM   22  C   UNL     1      44.016 -19.877   2.982  1.00  0.00     0.002 C 
HETATM   23  C   UNL     1      43.074 -20.336   1.867  1.00  0.00     0.011 C 
HETATM   24  C   UNL     1      43.901 -20.805   4.189  1.00  0.00     0.011 C 
ENDBRANCH  21  22
ENDBRANCH  20  21
ENDBRANCH  17  20
ENDBRANCH  13  14
ENDBRANCH  11  13
ENDBRANCH   1  11
BRANCH   8  25
HETATM   25  C   UNL     1      43.362 -14.910   7.342  1.00  0.00     0.270 C 
HETATM   26  N   UNL     1      43.739 -15.748   6.329  1.00  0.00    -0.365 N 
HETATM   27  H   UNL     1      43.883 -15.357   5.405  1.00  0.00     0.159 HD
HETATM   28  H   UNL     1      43.866 -16.731   6.512  1.00  0.00     0.159 HD
HETATM   29  O   UNL     1      43.171 -15.330   8.479  1.00  0.00    -0.266 OA
ENDBRANCH   8  25
TORSDOF 7
ENDMDL
MODEL 7
REMARK VINA RESULT:      -7.3      4.955      7.895
REMARK  7 active torsions:
REMARK  status: ('A' for Active; 'I' for Inactive)
REMARK    1  A    between atoms: C_2  and  C_3 
REMARK    2  A    between atoms: C_3  and  O_4 
REMARK    3  A    between atoms: O_4  and  C_5 
REMARK    4  A    between atoms: C_8  and  C_9 
REMARK    5  A    between atoms: C_9  and  N_10 
REMARK    6  A    between atoms: N_10  and  C_11 
REMARK    7  A    between atoms: C_18  and  C_19 
REMARK       I    between atoms: C_19  and  N_20 
ROOT
HETATM    1  C   UNL     1      43.357 -16.251   5.439  1.00  0.00     0.009 A 
HETATM    2  C   UNL     1      43.421 -17.225   4.426  1.00  0.00     0.039 A 
HETATM    3  C   UNL     1      43.562 -18.590   4.752  1.00  0.00     0.030 A 
HETATM    4  C   UNL     1      43.599 -18.955   6.090  1.00  0.00     0.063 A 
HETATM    5  N   UNL     1      43.729 -20.315   6.091  1.00  0.00    -0.277 N 
HETATM    6  H   UNL     1      43.784 -20.925   6.900  1.00  0.00     0.189 HD
HETATM    7  N   UNL     1      43.785 -20.872   4.869  1.00  0.00    -0.168 NA
HETATM    8  C   UNL     1      43.679 -19.816   4.030  1.00  0.00     0.156 A 
HETATM    9  C   UNL     1      43.497 -18.031   7.129  1.00  0.00     0.034 A 
HETATM   10  C   UNL     1      43.362 -16.680   6.773  1.00  0.00     0.026 A 
ENDROOT
BRANCH   1  11
HETATM   11  N   UNL     1      43.145 -14.918   5.063  1.00  0.00    -0.289 NA
HETATM   12  H   UNL     1      43.781 -14.282   5.539  1.00  0.00     0.128 HD
BRANCH  11  13
HETATM   13  C   UNL     1      41.789 -14.396   5.002  1.00  0.00     0.131 C 
BRANCH  13  14
HETATM   14  C   UNL     1      41.245 -14.560   3.602  1.00  0.00    -0.045 A 
HETATM   15  C   UNL     1      41.668 -13.706   2.573  1.00  0.00     0.011 A 
HETATM   16  C   UNL     1      41.189 -13.862   1.268  1.00  0.00     0.037 A 
HETATM   17  C   UNL     1      40.281 -14.878   0.972  1.00  0.00     0.068 A 
HETATM   18  C   UNL     1      39.839 -15.716   1.998  1.00  0.00     0.037 A 
HETATM   19  C   UNL     1      40.314 -15.562   3.303  1.00  0.00     0.011 A 
BRANCH  17  20
HETATM   20  O   UNL     1      39.749 -15.148  -0.257  1.00  0.00    -0.351 OA
BRANCH  20  21
HETATM   21  C   UNL     1      39.327 -14.030  -1.040  1.00  0.00     0.179 C 
BRANCH  21  22
HETATM   22  C   UNL     1      39.705 -14.281  -2.508  1.00  0.00     0.002 C 
HETATM   23  C   UNL     1      40.536 -13.128  -3.074  1.00  0.00     0.011 C 
HETATM   24  C   UNL     1      38.450 -14.494  -3.353  1.00  0.00     0.011 C 
ENDBRANCH  21  22
ENDBRANCH  20  21
ENDBRANCH  17  20
ENDBRANCH  13  14
ENDBRANCH  11  13
ENDBRANCH   1  11
BRANCH   8  25
HETATM   25  C   UNL     1      43.696 -19.994   2.572  1.00  0.00     0.270 C 
HETATM   26  N   UNL     1      43.284 -18.894   1.870  1.00  0.00    -0.365 N 
HETATM   27  H   UNL     1      43.005 -18.067   2.386  1.00  0.00     0.159 HD
HETATM   28  H   UNL     1      43.262 -18.922   0.863  1.00  0.00     0.159 HD
HETATM   29  O   UNL     1      44.041 -21.023   1.999  1.00  0.00    -0.266 OA
ENDBRANCH   8  25
TORSDOF 7
ENDMDL
MODEL 8
REMARK VINA RESULT:      -7.3      4.560      6.542
REMARK  7 active torsions:
REMARK  status: ('A' for Active; 'I' for Inactive)
REMARK    1  A    between atoms: C_2  and  C_3 
REMARK    2  A    between atoms: C_3  and  O_4 
REMARK    3  A    between atoms: O_4  and  C_5 
REMARK    4  A    between atoms: C_8  and  C_9 
REMARK    5  A    between atoms: C_9  and  N_10 
REMARK    6  A    between atoms: N_10  and  C_11 
REMARK    7  A    between atoms: C_18  and  C_19 
REMARK       I    between atoms: C_19  and  N_20 
ROOT
HETATM    1  C   UNL     1      39.911 -14.133   1.350  1.00  0.00     0.009 A 
HETATM    2  C   UNL     1      39.450 -14.551   0.088  1.00  0.00     0.039 A 
HETATM    3  C   UNL     1      39.911 -13.923  -1.088  1.00  0.00     0.030 A 
HETATM    4  C   UNL     1      40.855 -12.912  -0.976  1.00  0.00     0.063 A 
HETATM    5  N   UNL     1      41.110 -12.512  -2.257  1.00  0.00    -0.277 N 
HETATM    6  H   UNL     1      41.756 -11.790  -2.557  1.00  0.00     0.189 HD
HETATM    7  N   UNL     1      40.411 -13.171  -3.197  1.00  0.00    -0.168 NA
HETATM    8  C   UNL     1      39.667 -14.051  -2.488  1.00  0.00     0.156 A 
HETATM    9  C   UNL     1      41.373 -12.492   0.248  1.00  0.00     0.034 A 
HETATM   10  C   UNL     1      40.890 -13.133   1.400  1.00  0.00     0.026 A 
ENDROOT
BRANCH   1  11
HETATM   11  N   UNL     1      39.474 -14.837   2.480  1.00  0.00    -0.289 NA
HETATM   12  H   UNL     1      39.181 -14.213   3.229  1.00  0.00     0.128 HD
BRANCH  11  13
HETATM   13  C   UNL     1      40.259 -15.958   2.975  1.00  0.00     0.131 C 
BRANCH  13  14
HETATM   14  C   UNL     1      41.177 -15.486   4.078  1.00  0.00    -0.045 A 
HETATM   15  C   UNL     1      42.526 -15.868   4.088  1.00  0.00     0.011 A 
HETATM   16  C   UNL     1      43.392 -15.419   5.091  1.00  0.00     0.037 A 
HETATM   17  C   UNL     1      42.920 -14.578   6.098  1.00  0.00     0.068 A 
HETATM   18  C   UNL     1      41.572 -14.213   6.105  1.00  0.00     0.037 A 
HETATM   19  C   UNL     1      40.704 -14.661   5.106  1.00  0.00     0.011 A 
BRANCH  17  20
HETATM   20  O   UNL     1      43.659 -14.057   7.123  1.00  0.00    -0.351 OA
BRANCH  20  21
HETATM   21  C   UNL     1      43.681 -12.634   7.249  1.00  0.00     0.179 C 
BRANCH  21  22
HETATM   22  C   UNL     1      44.861 -12.082   6.434  1.00  0.00     0.002 C 
HETATM   23  C   UNL     1      45.679 -11.078   7.250  1.00  0.00     0.011 C 
HETATM   24  C   UNL     1      44.362 -11.435   5.144  1.00  0.00     0.011 C 
ENDBRANCH  21  22
ENDBRANCH  20  21
ENDBRANCH  17  20
ENDBRANCH  13  14
ENDBRANCH  11  13
ENDBRANCH   1  11
BRANCH   8  25
HETATM   25  C   UNL     1      38.745 -14.981  -3.152  1.00  0.00     0.270 C 
HETATM   26  N   UNL     1      38.504 -16.128  -2.446  1.00  0.00    -0.365 N 
HETATM   27  H   UNL     1      38.963 -16.250  -1.550  1.00  0.00     0.159 HD
HETATM   28  H   UNL     1      37.884 -16.827  -2.821  1.00  0.00     0.159 HD
HETATM   29  O   UNL     1      38.219 -14.783  -4.243  1.00  0.00    -0.266 OA
ENDBRANCH   8  25
TORSDOF 7
ENDMDL
MODEL 9
REMARK VINA RESULT:      -7.2      4.785      8.306
REMARK  7 active torsions:
REMARK  status: ('A' for Active; 'I' for Inactive)
REMARK    1  A    between atoms: C_2  and  C_3 
REMARK    2  A    between atoms: C_3  and  O_4 
REMARK    3  A    between atoms: O_4  and  C_5 
REMARK    4  A    between atoms: C_8  and  C_9 
REMARK    5  A    between atoms: C_9  and  N_10 
REMARK    6  A    between atoms: N_10  and  C_11 
REMARK    7  A    between atoms: C_18  and  C_19 
REMARK       I    between atoms: C_19  and  N_20 
ROOT
HETATM    1  C   UNL     1      42.951 -16.305   2.410  1.00  0.00     0.009 A 
HETATM    2  C   UNL     1      42.714 -16.015   3.766  1.00  0.00     0.039 A 
HETATM    3  C   UNL     1      43.019 -16.960   4.766  1.00  0.00     0.030 A 
HETATM    4  C   UNL     1      43.592 -18.167   4.389  1.00  0.00     0.063 A 
HETATM    5  N   UNL     1      43.779 -18.858   5.552  1.00  0.00    -0.277 N 
HETATM    6  H   UNL     1      44.182 -19.783   5.658  1.00  0.00     0.189 HD
HETATM    7  N   UNL     1      43.375 -18.211   6.658  1.00  0.00    -0.168 NA
HETATM    8  C   UNL     1      42.905 -17.032   6.187  1.00  0.00     0.156 A 
HETATM    9  C   UNL     1      43.884 -18.484   3.063  1.00  0.00     0.034 A 
HETATM   10  C   UNL     1      43.564 -17.523   2.091  1.00  0.00     0.026 A 
ENDROOT
BRANCH   1  11
HETATM   11  N   UNL     1      42.695 -15.303   1.465  1.00  0.00    -0.289 NA
HETATM   12  H   UNL     1      43.546 -14.995   0.997  1.00  0.00     0.128 HD
BRANCH  11  13
HETATM   13  C   UNL     1      41.827 -14.190   1.815  1.00  0.00     0.131 C 
BRANCH  13  14
HETATM   14  C   UNL     1      40.975 -13.818   0.623  1.00  0.00    -0.045 A 
HETATM   15  C   UNL     1      40.981 -12.505   0.130  1.00  0.00     0.011 A 
HETATM   16  C   UNL     1      40.215 -12.153  -0.985  1.00  0.00     0.037 A 
HETATM   17  C   UNL     1      39.432 -13.112  -1.627  1.00  0.00     0.068 A 
HETATM   18  C   UNL     1      39.404 -14.415  -1.126  1.00  0.00     0.037 A 
HETATM   19  C   UNL     1      40.168 -14.769  -0.011  1.00  0.00     0.011 A 
BRANCH  17  20
HETATM   20  O   UNL     1      38.652 -12.906  -2.730  1.00  0.00    -0.351 OA
BRANCH  20  21
HETATM   21  C   UNL     1      37.255 -12.707  -2.507  1.00  0.00     0.179 C 
BRANCH  21  22
HETATM   22  C   UNL     1      36.929 -11.217  -2.697  1.00  0.00     0.002 C 
HETATM   23  C   UNL     1      36.877 -10.483  -1.355  1.00  0.00     0.011 C 
HETATM   24  C   UNL     1      35.608 -11.051  -3.443  1.00  0.00     0.011 C 
ENDBRANCH  21  22
ENDBRANCH  20  21
ENDBRANCH  17  20
ENDBRANCH  13  14
ENDBRANCH  11  13
ENDBRANCH   1  11
BRANCH   8  25
HETATM   25  C   UNL     1      42.358 -16.012   7.090  1.00  0.00     0.270 C 
HETATM   26  N   UNL     1      43.059 -15.865   8.256  1.00  0.00    -0.365 N 
HETATM   27  H   UNL     1      43.873 -16.450   8.409  1.00  0.00     0.159 HD
HETATM   28  H   UNL     1      42.759 -15.189   8.940  1.00  0.00     0.159 HD
HETATM   29  O   UNL     1      41.363 -15.334   6.856  1.00  0.00    -0.266 OA
ENDBRANCH   8  25
TORSDOF 7
ENDMDL
MODEL 10
REMARK VINA RESULT:      -7.2      3.968      8.722
REMARK  7 active torsions:
REMARK  status: ('A' for Active; 'I' for Inactive)
REMARK    1  A    between atoms: C_2  and  C_3 
REMARK    2  A    between atoms: C_3  and  O_4 
REMARK    3  A    between atoms: O_4  and  C_5 
REMARK    4  A    between atoms: C_8  and  C_9 
REMARK    5  A    between atoms: C_9  and  N_10 
REMARK    6  A    between atoms: N_10  and  C_11 
REMARK    7  A    between atoms: C_18  and  C_19 
REMARK       I    between atoms: C_19  and  N_20 
ROOT
HETATM    1  C   UNL     1      43.848  -9.661   9.045  1.00  0.00     0.009 A 
HETATM    2  C   UNL     1      42.442  -9.646   9.066  1.00  0.00     0.039 A 
HETATM    3  C   UNL     1      41.745  -9.376  10.262  1.00  0.00     0.030 A 
HETATM    4  C   UNL     1      42.475  -9.089  11.407  1.00  0.00     0.063 A 
HETATM    5  N   UNL     1      41.545  -8.865  12.382  1.00  0.00    -0.277 N 
HETATM    6  H   UNL     1      41.720  -8.623  13.351  1.00  0.00     0.189 HD
HETATM    7  N   UNL     1      40.270  -8.985  11.976  1.00  0.00    -0.168 NA
HETATM    8  C   UNL     1      40.378  -9.298  10.664  1.00  0.00     0.156 A 
HETATM    9  C   UNL     1      43.869  -9.050  11.426  1.00  0.00     0.034 A 
HETATM   10  C   UNL     1      44.533  -9.328  10.220  1.00  0.00     0.026 A 
ENDROOT
BRANCH   1  11
HETATM   11  N   UNL     1      44.489  -9.864   7.815  1.00  0.00    -0.289 NA
HETATM   12  H   UNL     1      43.911  -9.569   7.030  1.00  0.00     0.128 HD
BRANCH  11  13
HETATM   13  C   UNL     1      45.162 -11.128   7.556  1.00  0.00     0.131 C 
BRANCH  13  14
HETATM   14  C   UNL     1      44.365 -11.930   6.555  1.00  0.00    -0.045 A 
HETATM   15  C   UNL     1      44.255 -11.496   5.226  1.00  0.00     0.011 A 
HETATM   16  C   UNL     1      43.539 -12.241   4.283  1.00  0.00     0.037 A 
HETATM   17  C   UNL     1      42.924 -13.435   4.656  1.00  0.00     0.068 A 
HETATM   18  C   UNL     1      43.010 -13.860   5.984  1.00  0.00     0.037 A 
HETATM   19  C   UNL     1      43.724 -13.117   6.928  1.00  0.00     0.011 A 
BRANCH  17  20
HETATM   20  O   UNL     1      42.210 -14.263   3.836  1.00  0.00    -0.351 OA
BRANCH  20  21
HETATM   21  C   UNL     1      41.922 -15.572   4.329  1.00  0.00     0.179 C 
BRANCH  21  22
HETATM   22  C   UNL     1      42.629 -16.605   3.437  1.00  0.00     0.002 C 
HETATM   23  C   UNL     1      43.754 -17.316   4.193  1.00  0.00     0.011 C 
HETATM   24  C   UNL     1      43.176 -15.937   2.178  1.00  0.00     0.011 C 
ENDBRANCH  21  22
ENDBRANCH  20  21
ENDBRANCH  17  20
ENDBRANCH  13  14
ENDBRANCH  11  13
ENDBRANCH   1  11
BRANCH   8  25
HETATM   25  C   UNL     1      39.190  -9.518   9.830  1.00  0.00     0.270 C 
HETATM   26  N   UNL     1      38.639 -10.764   9.961  1.00  0.00    -0.365 N 
HETATM   27  H   UNL     1      39.075 -11.422  10.597  1.00  0.00     0.159 HD
HETATM   28  H   UNL     1      37.820 -11.009   9.428  1.00  0.00     0.159 HD
HETATM   29  O   UNL     1      38.705  -8.685   9.071  1.00  0.00    -0.266 OA
ENDBRANCH   8  25
TORSDOF 7
ENDMDL
