MODEL 1
REMARK VINA RESULT:      -7.1      0.000      0.000
REMARK  10 active torsions:
REMARK  status: ('A' for Active; 'I' for Inactive)
REMARK    1  A    between atoms: C_2  and  O_3 
REMARK    2  A    between atoms: O_3  and  C_4 
REMARK    3  A    between atoms: C_4  and  C_5 
REMARK    4  A    between atoms: C_6  and  C_7 
REMARK    5  A    between atoms: C_16  and  C_17 
REMARK    6  A    between atoms: C_17  and  C_18 
REMARK       I    between atoms: C_18  and  N_19 
REMARK    7  A    between atoms: N_19  and  C_20 
REMARK    8  A    between atoms: C_20  and  C_21 
REMARK    9  A    between atoms: C_21  and  N_22 
REMARK   10  A    between atoms: C_31  and  C_32 
ROOT
HETATM    1  C   UNL     1      40.417 -12.039   2.630  1.00  0.00     0.078 C 
HETATM    2  C   UNL     1      41.600 -12.377   3.490  1.00  0.00     0.167 C 
HETATM    3  N   UNL     1      41.697 -11.524   4.701  1.00  0.00    -0.318 N 
HETATM    4  C   UNL     1      42.585 -11.387   5.634  1.00  0.00     0.011 C 
HETATM    5  C   UNL     1      40.441 -10.663   4.981  1.00  0.00     0.170 C 
HETATM    6  S   UNL     1      40.563  -9.802   6.477  1.00  0.00    -0.086 SA
HETATM    7  C   UNL     1      42.268 -10.360   6.701  1.00  0.00     0.135 C 
HETATM    8  N   UNL     1      39.409 -10.575   4.224  1.00  0.00    -0.219 NA
HETATM    9  C   UNL     1      39.412 -11.209   2.990  1.00  0.00     0.157 C 
ENDROOT
BRANCH   4  10
HETATM   10  C   UNL     1      43.846 -12.200   5.701  1.00  0.00     0.156 C 
BRANCH  10  11
HETATM   11  C   UNL     1      45.132 -11.428   5.881  1.00  0.00     0.223 C 
HETATM   12  N   UNL     1      45.462 -11.195   7.192  1.00  0.00    -0.359 N 
HETATM   13  H   UNL     1      44.785 -11.450   7.910  1.00  0.00     0.162 HD
HETATM   14  O   UNL     1      45.845 -11.090   4.940  1.00  0.00    -0.273 OA
BRANCH  12  15
HETATM   15  C   UNL     1      46.533 -10.301   7.641  1.00  0.00     0.150 C 
BRANCH  15  16
HETATM   16  C   UNL     1      46.079  -9.030   8.392  1.00  0.00     0.253 C 
BRANCH  16  17
HETATM   17  N   UNL     1      44.704  -9.179   9.012  1.00  0.00    -0.077 N 
HETATM   18  H   UNL     1      44.196  -9.899   8.462  1.00  0.00     0.279 HD
HETATM   19  C   UNL     1      44.739  -9.673  10.435  1.00  0.00     0.269 C 
HETATM   20  C   UNL     1      43.910  -7.901   8.922  1.00  0.00     0.269 C 
ENDBRANCH  16  17
ENDBRANCH  15  16
ENDBRANCH  12  15
ENDBRANCH  10  11
ENDBRANCH   4  10
BRANCH   2  21
HETATM   21  C   UNL     1      41.636 -13.856   3.887  1.00  0.00    -0.024 A 
HETATM   22  C   UNL     1      42.522 -14.783   3.288  1.00  0.00    -0.053 A 
HETATM   23  C   UNL     1      43.419 -14.468   2.120  1.00  0.00     0.049 C 
HETATM   24  C   UNL     1      42.526 -16.114   3.739  1.00  0.00     0.008 A 
HETATM   25  C   UNL     1      41.690 -16.533   4.772  1.00  0.00     0.007 A 
HETATM   26  C   UNL     1      40.805 -15.638   5.365  1.00  0.00    -0.061 A 
HETATM   27  C   UNL     1      39.860 -16.104   6.436  1.00  0.00     0.048 C 
HETATM   28  C   UNL     1      40.761 -14.318   4.902  1.00  0.00     0.017 A 
ENDBRANCH   2  21
BRANCH   1  29
HETATM   29  C   UNL     1      40.529 -12.573   1.257  1.00  0.00     0.294 C 
HETATM   30  O   UNL     1      41.344 -12.114   0.472  1.00  0.00    -0.259 OA
BRANCH  29  31
HETATM   31  O   UNL     1      39.688 -13.607   1.080  1.00  0.00    -0.318 OA
BRANCH  31  32
HETATM   32  C   UNL     1      40.233 -14.757   0.408  1.00  0.00     0.174 C 
HETATM   33  C   UNL     1      39.857 -16.030   1.140  1.00  0.00     0.034 C 
ENDBRANCH  31  32
ENDBRANCH  29  31
ENDBRANCH   1  29
BRANCH   9  34
HETATM   34  C   UNL     1      38.264 -10.816   2.035  1.00  0.00     0.435 C 
HETATM   35  F   UNL     1      37.387 -11.835   1.868  1.00  0.00    -0.165 F 
HETATM   36  F   UNL     1      37.549  -9.769   2.517  1.00  0.00    -0.165 F 
HETATM   37  F   UNL     1      38.735 -10.479   0.813  1.00  0.00    -0.165 F 
ENDBRANCH   9  34
TORSDOF 10
ENDMDL
MODEL 2
REMARK VINA RESULT:      -7.0      3.962      5.497
REMARK  10 active torsions:
REMARK  status: ('A' for Active; 'I' for Inactive)
REMARK    1  A    between atoms: C_2  and  O_3 
REMARK    2  A    between atoms: O_3  and  C_4 
REMARK    3  A    between atoms: C_4  and  C_5 
REMARK    4  A    between atoms: C_6  and  C_7 
REMARK    5  A    between atoms: C_16  and  C_17 
REMARK    6  A    between atoms: C_17  and  C_18 
REMARK       I    between atoms: C_18  and  N_19 
REMARK    7  A    between atoms: N_19  and  C_20 
REMARK    8  A    between atoms: C_20  and  C_21 
REMARK    9  A    between atoms: C_21  and  N_22 
REMARK   10  A    between atoms: C_31  and  C_32 
ROOT
HETATM    1  C   UNL     1      42.085 -14.283   5.490  1.00  0.00     0.078 C 
HETATM    2  C   UNL     1      41.469 -12.913   5.497  1.00  0.00     0.167 C 
HETATM    3  N   UNL     1      42.271 -11.924   6.261  1.00  0.00    -0.318 N 
HETATM    4  C   UNL     1      42.074 -10.695   6.619  1.00  0.00     0.011 C 
HETATM    5  C   UNL     1      43.686 -12.412   6.655  1.00  0.00     0.170 C 
HETATM    6  S   UNL     1      44.614 -11.167   7.418  1.00  0.00    -0.086 SA
HETATM    7  C   UNL     1      43.187 -10.056   7.423  1.00  0.00     0.135 C 
HETATM    8  N   UNL     1      44.156 -13.588   6.453  1.00  0.00    -0.219 NA
HETATM    9  C   UNL     1      43.331 -14.572   5.929  1.00  0.00     0.157 C 
ENDROOT
BRANCH   4  10
HETATM   10  C   UNL     1      40.846  -9.913   6.251  1.00  0.00     0.156 C 
BRANCH  10  11
HETATM   11  C   UNL     1      39.662 -10.049   7.179  1.00  0.00     0.223 C 
HETATM   12  N   UNL     1      39.936  -9.724   8.483  1.00  0.00    -0.359 N 
HETATM   13  H   UNL     1      40.905  -9.533   8.737  1.00  0.00     0.162 HD
HETATM   14  O   UNL     1      38.542 -10.369   6.788  1.00  0.00    -0.273 OA
BRANCH  12  15
HETATM   15  C   UNL     1      39.037  -9.965   9.614  1.00  0.00     0.150 C 
BRANCH  15  16
HETATM   16  C   UNL     1      39.482  -9.370  10.968  1.00  0.00     0.253 C 
BRANCH  16  17
HETATM   17  N   UNL     1      40.413 -10.291  11.732  1.00  0.00    -0.077 N 
HETATM   18  H   UNL     1      40.395 -11.211  11.252  1.00  0.00     0.279 HD
HETATM   19  C   UNL     1      41.848  -9.832  11.723  1.00  0.00     0.269 C 
HETATM   20  C   UNL     1      39.944 -10.510  13.146  1.00  0.00     0.269 C 
ENDBRANCH  16  17
ENDBRANCH  15  16
ENDBRANCH  12  15
ENDBRANCH  10  11
ENDBRANCH   4  10
BRANCH   2  21
HETATM   21  C   UNL     1      41.192 -12.385   4.087  1.00  0.00    -0.024 A 
HETATM   22  C   UNL     1      42.228 -12.075   3.173  1.00  0.00    -0.053 A 
HETATM   23  C   UNL     1      43.695 -12.092   3.515  1.00  0.00     0.049 C 
HETATM   24  C   UNL     1      41.892 -11.638   1.880  1.00  0.00     0.008 A 
HETATM   25  C   UNL     1      40.564 -11.523   1.476  1.00  0.00     0.007 A 
HETATM   26  C   UNL     1      39.532 -11.814   2.364  1.00  0.00    -0.061 A 
HETATM   27  C   UNL     1      38.100 -11.630   1.948  1.00  0.00     0.048 C 
HETATM   28  C   UNL     1      39.849 -12.213   3.667  1.00  0.00     0.017 A 
ENDBRANCH   2  21
BRANCH   1  29
HETATM   29  C   UNL     1      41.132 -15.343   5.104  1.00  0.00     0.294 C 
HETATM   30  O   UNL     1      40.288 -15.743   5.891  1.00  0.00    -0.259 OA
BRANCH  29  31
HETATM   31  O   UNL     1      41.312 -15.700   3.820  1.00  0.00    -0.318 OA
BRANCH  31  32
HETATM   32  C   UNL     1      40.119 -15.826   3.025  1.00  0.00     0.174 C 
HETATM   33  C   UNL     1      40.384 -15.401   1.594  1.00  0.00     0.034 C 
ENDBRANCH  31  32
ENDBRANCH  29  31
ENDBRANCH   1  29
BRANCH   9  34
HETATM   34  C   UNL     1      43.886 -16.012   5.991  1.00  0.00     0.435 C 
HETATM   35  F   UNL     1      43.076 -16.826   6.710  1.00  0.00    -0.165 F 
HETATM   36  F   UNL     1      43.986 -16.563   4.756  1.00  0.00    -0.165 F 
HETATM   37  F   UNL     1      45.109 -16.043   6.567  1.00  0.00    -0.165 F 
ENDBRANCH   9  34
TORSDOF 10
ENDMDL
MODEL 3
REMARK VINA RESULT:      -6.8      3.349      6.428
REMARK  10 active torsions:
REMARK  status: ('A' for Active; 'I' for Inactive)
REMARK    1  A    between atoms: C_2  and  O_3 
REMARK    2  A    between atoms: O_3  and  C_4 
REMARK    3  A    between atoms: C_4  and  C_5 
REMARK    4  A    between atoms: C_6  and  C_7 
REMARK    5  A    between atoms: C_16  and  C_17 
REMARK    6  A    between atoms: C_17  and  C_18 
REMARK       I    between atoms: C_18  and  N_19 
REMARK    7  A    between atoms: N_19  and  C_20 
REMARK    8  A    between atoms: C_20  and  C_21 
REMARK    9  A    between atoms: C_21  and  N_22 
REMARK   10  A    between atoms: C_31  and  C_32 
ROOT
HETATM    1  C   UNL     1      39.662 -11.369   4.868  1.00  0.00     0.078 C 
HETATM    2  C   UNL     1      40.158 -12.768   4.634  1.00  0.00     0.167 C 
HETATM    3  N   UNL     1      40.329 -13.086   3.194  1.00  0.00    -0.318 N 
HETATM    4  C   UNL     1      40.615 -14.168   2.541  1.00  0.00     0.011 C 
HETATM    5  C   UNL     1      40.237 -11.862   2.251  1.00  0.00     0.170 C 
HETATM    6  S   UNL     1      40.585 -12.278   0.608  1.00  0.00    -0.086 SA
HETATM    7  C   UNL     1      40.679 -14.032   1.035  1.00  0.00     0.135 C 
HETATM    8  N   UNL     1      39.947 -10.663   2.605  1.00  0.00    -0.219 NA
HETATM    9  C   UNL     1      39.579 -10.410   3.918  1.00  0.00     0.157 C 
ENDROOT
BRANCH   4  10
HETATM   10  C   UNL     1      40.901 -15.483   3.208  1.00  0.00     0.156 C 
BRANCH  10  11
HETATM   11  C   UNL     1      42.316 -15.998   3.093  1.00  0.00     0.223 C 
HETATM   12  N   UNL     1      42.410 -17.253   2.546  1.00  0.00    -0.359 N 
HETATM   13  H   UNL     1      41.546 -17.767   2.373  1.00  0.00     0.162 HD
HETATM   14  O   UNL     1      43.297 -15.329   3.408  1.00  0.00    -0.273 OA
BRANCH  12  15
HETATM   15  C   UNL     1      43.629 -18.065   2.513  1.00  0.00     0.150 C 
BRANCH  15  16
HETATM   16  C   UNL     1      43.563 -19.411   3.266  1.00  0.00     0.253 C 
BRANCH  16  17
HETATM   17  N   UNL     1      44.316 -19.381   4.582  1.00  0.00    -0.077 N 
HETATM   18  H   UNL     1      45.301 -19.134   4.365  1.00  0.00     0.279 HD
HETATM   19  C   UNL     1      43.812 -18.329   5.536  1.00  0.00     0.269 C 
HETATM   20  C   UNL     1      44.327 -20.731   5.250  1.00  0.00     0.269 C 
ENDBRANCH  16  17
ENDBRANCH  15  16
ENDBRANCH  12  15
ENDBRANCH  10  11
ENDBRANCH   4  10
BRANCH   2  21
HETATM   21  C   UNL     1      41.451 -13.069   5.395  1.00  0.00    -0.024 A 
HETATM   22  C   UNL     1      41.588 -14.188   6.251  1.00  0.00    -0.053 A 
HETATM   23  C   UNL     1      40.461 -15.118   6.619  1.00  0.00     0.049 C 
HETATM   24  C   UNL     1      42.823 -14.422   6.879  1.00  0.00     0.008 A 
HETATM   25  C   UNL     1      43.917 -13.587   6.663  1.00  0.00     0.007 A 
HETATM   26  C   UNL     1      43.799 -12.477   5.832  1.00  0.00    -0.061 A 
HETATM   27  C   UNL     1      44.960 -11.542   5.648  1.00  0.00     0.048 C 
HETATM   28  C   UNL     1      42.565 -12.208   5.229  1.00  0.00     0.017 A 
ENDBRANCH   2  21
BRANCH   1  29
HETATM   29  C   UNL     1      39.104 -11.173   6.221  1.00  0.00     0.294 C 
HETATM   30  O   UNL     1      38.031 -11.665   6.533  1.00  0.00    -0.259 OA
BRANCH  29  31
HETATM   31  O   UNL     1      39.957 -10.474   6.990  1.00  0.00    -0.318 OA
BRANCH  31  32
HETATM   32  C   UNL     1      39.407  -9.912   8.196  1.00  0.00     0.174 C 
HETATM   33  C   UNL     1      39.419  -8.398   8.133  1.00  0.00     0.034 C 
ENDBRANCH  31  32
ENDBRANCH  29  31
ENDBRANCH   1  29
BRANCH   9  34
HETATM   34  C   UNL     1      38.973  -9.015   4.185  1.00  0.00     0.435 C 
HETATM   35  F   UNL     1      38.718  -8.356   3.028  1.00  0.00    -0.165 F 
HETATM   36  F   UNL     1      37.793  -9.101   4.846  1.00  0.00    -0.165 F 
HETATM   37  F   UNL     1      39.812  -8.246   4.916  1.00  0.00    -0.165 F 
ENDBRANCH   9  34
TORSDOF 10
ENDMDL
MODEL 4
REMARK VINA RESULT:      -6.5      5.295      9.506
REMARK  10 active torsions:
REMARK  status: ('A' for Active; 'I' for Inactive)
REMARK    1  A    between atoms: C_2  and  O_3 
REMARK    2  A    between atoms: O_3  and  C_4 
REMARK    3  A    between atoms: C_4  and  C_5 
REMARK    4  A    between atoms: C_6  and  C_7 
REMARK    5  A    between atoms: C_16  and  C_17 
REMARK    6  A    between atoms: C_17  and  C_18 
REMARK       I    between atoms: C_18  and  N_19 
REMARK    7  A    between atoms: N_19  and  C_20 
REMARK    8  A    between atoms: C_20  and  C_21 
REMARK    9  A    between atoms: C_21  and  N_22 
REMARK   10  A    between atoms: C_31  and  C_32 
ROOT
HETATM    1  C   UNL     1      41.264  -5.882  10.474  1.00  0.00     0.078 C 
HETATM    2  C   UNL     1      40.846  -7.267  10.073  1.00  0.00     0.167 C 
HETATM    3  N   UNL     1      40.721  -7.429   8.603  1.00  0.00    -0.318 N 
HETATM    4  C   UNL     1      40.291  -8.383   7.839  1.00  0.00     0.011 C 
HETATM    5  C   UNL     1      41.299  -6.256   7.776  1.00  0.00     0.170 C 
HETATM    6  S   UNL     1      41.248  -6.570   6.075  1.00  0.00    -0.086 SA
HETATM    7  C   UNL     1      40.335  -8.106   6.351  1.00  0.00     0.135 C 
HETATM    8  N   UNL     1      41.775  -5.165   8.255  1.00  0.00    -0.219 NA
HETATM    9  C   UNL     1      41.697  -4.928   9.619  1.00  0.00     0.157 C 
ENDROOT
BRANCH   4  10
HETATM   10  C   UNL     1      39.802  -9.704   8.361  1.00  0.00     0.156 C 
BRANCH  10  11
HETATM   11  C   UNL     1      39.402 -10.727   7.324  1.00  0.00     0.223 C 
HETATM   12  N   UNL     1      40.434 -11.527   6.903  1.00  0.00    -0.359 N 
HETATM   13  H   UNL     1      41.375 -11.303   7.224  1.00  0.00     0.162 HD
HETATM   14  O   UNL     1      38.244 -10.866   6.936  1.00  0.00    -0.273 OA
BRANCH  12  15
HETATM   15  C   UNL     1      40.370 -12.450   5.767  1.00  0.00     0.150 C 
BRANCH  15  16
HETATM   16  C   UNL     1      41.060 -13.816   5.969  1.00  0.00     0.253 C 
BRANCH  16  17
HETATM   17  N   UNL     1      42.326 -13.714   6.797  1.00  0.00    -0.077 N 
HETATM   18  H   UNL     1      42.132 -13.053   7.573  1.00  0.00     0.279 HD
HETATM   19  C   UNL     1      42.731 -15.017   7.435  1.00  0.00     0.269 C 
HETATM   20  C   UNL     1      43.470 -13.146   5.998  1.00  0.00     0.269 C 
ENDBRANCH  16  17
ENDBRANCH  15  16
ENDBRANCH  12  15
ENDBRANCH  10  11
ENDBRANCH   4  10
BRANCH   2  21
HETATM   21  C   UNL     1      41.770  -8.348  10.643  1.00  0.00    -0.024 A 
HETATM   22  C   UNL     1      41.340  -9.278  11.620  1.00  0.00    -0.053 A 
HETATM   23  C   UNL     1      40.000  -9.231  12.306  1.00  0.00     0.049 C 
HETATM   24  C   UNL     1      42.234 -10.270  12.060  1.00  0.00     0.008 A 
HETATM   25  C   UNL     1      43.523 -10.366  11.541  1.00  0.00     0.007 A 
HETATM   26  C   UNL     1      43.966  -9.455  10.587  1.00  0.00    -0.061 A 
HETATM   27  C   UNL     1      45.376  -9.521  10.073  1.00  0.00     0.048 C 
HETATM   28  C   UNL     1      43.101  -8.438  10.166  1.00  0.00     0.017 A 
ENDBRANCH   2  21
BRANCH   1  29
HETATM   29  C   UNL     1      41.000  -5.588  11.898  1.00  0.00     0.294 C 
HETATM   30  O   UNL     1      39.860  -5.417  12.300  1.00  0.00    -0.259 OA
BRANCH  29  31
HETATM   31  O   UNL     1      42.142  -5.610  12.607  1.00  0.00    -0.318 OA
BRANCH  31  32
HETATM   32  C   UNL     1      42.085  -6.283  13.878  1.00  0.00     0.174 C 
HETATM   33  C   UNL     1      43.263  -7.222  14.038  1.00  0.00     0.034 C 
ENDBRANCH  31  32
ENDBRANCH  29  31
ENDBRANCH   1  29
BRANCH   9  34
HETATM   34  C   UNL     1      42.025  -3.486  10.066  1.00  0.00     0.435 C 
HETATM   35  F   UNL     1      42.174  -2.659   9.002  1.00  0.00    -0.165 F 
HETATM   36  F   UNL     1      41.031  -2.959  10.824  1.00  0.00    -0.165 F 
HETATM   37  F   UNL     1      43.171  -3.441  10.781  1.00  0.00    -0.165 F 
ENDBRANCH   9  34
TORSDOF 10
ENDMDL
MODEL 5
REMARK VINA RESULT:      -6.5      2.238      3.060
REMARK  10 active torsions:
REMARK  status: ('A' for Active; 'I' for Inactive)
REMARK    1  A    between atoms: C_2  and  O_3 
REMARK    2  A    between atoms: O_3  and  C_4 
REMARK    3  A    between atoms: C_4  and  C_5 
REMARK    4  A    between atoms: C_6  and  C_7 
REMARK    5  A    between atoms: C_16  and  C_17 
REMARK    6  A    between atoms: C_17  and  C_18 
REMARK       I    between atoms: C_18  and  N_19 
REMARK    7  A    between atoms: N_19  and  C_20 
REMARK    8  A    between atoms: C_20  and  C_21 
REMARK    9  A    between atoms: C_21  and  N_22 
REMARK   10  A    between atoms: C_31  and  C_32 
ROOT
HETATM    1  C   UNL     1      41.985 -13.052   3.131  1.00  0.00     0.078 C 
HETATM    2  C   UNL     1      42.656 -12.889   4.466  1.00  0.00     0.167 C 
HETATM    3  N   UNL     1      42.365 -11.580   5.102  1.00  0.00    -0.318 N 
HETATM    4  C   UNL     1      42.805 -10.981   6.163  1.00  0.00     0.011 C 
HETATM    5  C   UNL     1      41.235 -10.772   4.420  1.00  0.00     0.170 C 
HETATM    6  S   UNL     1      40.852  -9.326   5.291  1.00  0.00    -0.086 SA
HETATM    7  C   UNL     1      42.223  -9.610   6.435  1.00  0.00     0.135 C 
HETATM    8  N   UNL     1      40.625 -11.101   3.341  1.00  0.00    -0.219 NA
HETATM    9  C   UNL     1      41.044 -12.218   2.634  1.00  0.00     0.157 C 
ENDROOT
BRANCH   4  10
HETATM   10  C   UNL     1      43.804 -11.592   7.103  1.00  0.00     0.156 C 
BRANCH  10  11
HETATM   11  C   UNL     1      44.280 -10.715   8.237  1.00  0.00     0.223 C 
HETATM   12  N   UNL     1      43.630 -10.939   9.425  1.00  0.00    -0.359 N 
HETATM   13  H   UNL     1      42.832 -11.572   9.422  1.00  0.00     0.162 HD
HETATM   14  O   UNL     1      45.204  -9.915   8.119  1.00  0.00    -0.273 OA
BRANCH  12  15
HETATM   15  C   UNL     1      43.747 -10.095  10.617  1.00  0.00     0.150 C 
BRANCH  15  16
HETATM   16  C   UNL     1      42.532 -10.101  11.569  1.00  0.00     0.253 C 
BRANCH  16  17
HETATM   17  N   UNL     1      41.219  -9.888  10.840  1.00  0.00    -0.077 N 
HETATM   18  H   UNL     1      41.161 -10.611  10.097  1.00  0.00     0.279 HD
HETATM   19  C   UNL     1      40.010 -10.081  11.719  1.00  0.00     0.269 C 
HETATM   20  C   UNL     1      41.167  -8.542  10.166  1.00  0.00     0.269 C 
ENDBRANCH  16  17
ENDBRANCH  15  16
ENDBRANCH  12  15
ENDBRANCH  10  11
ENDBRANCH   4  10
BRANCH   2  21
HETATM   21  C   UNL     1      42.323 -14.028   5.433  1.00  0.00    -0.024 A 
HETATM   22  C   UNL     1      41.012 -14.258   5.915  1.00  0.00    -0.053 A 
HETATM   23  C   UNL     1      39.839 -13.351   5.652  1.00  0.00     0.049 C 
HETATM   24  C   UNL     1      40.778 -15.353   6.766  1.00  0.00     0.008 A 
HETATM   25  C   UNL     1      41.805 -16.222   7.128  1.00  0.00     0.007 A 
HETATM   26  C   UNL     1      43.102 -16.005   6.672  1.00  0.00    -0.061 A 
HETATM   27  C   UNL     1      44.220 -16.907   7.113  1.00  0.00     0.048 C 
HETATM   28  C   UNL     1      43.359 -14.898   5.855  1.00  0.00     0.017 A 
ENDBRANCH   2  21
BRANCH   1  29
HETATM   29  C   UNL     1      42.573 -14.134   2.317  1.00  0.00     0.294 C 
HETATM   30  O   UNL     1      43.698 -14.028   1.854  1.00  0.00    -0.259 OA
BRANCH  29  31
HETATM   31  O   UNL     1      41.737 -15.185   2.249  1.00  0.00    -0.318 OA
BRANCH  31  32
HETATM   32  C   UNL     1      42.336 -16.449   1.910  1.00  0.00     0.174 C 
HETATM   33  C   UNL     1      42.725 -17.209   3.163  1.00  0.00     0.034 C 
ENDBRANCH  31  32
ENDBRANCH  29  31
ENDBRANCH   1  29
BRANCH   9  34
HETATM   34  C   UNL     1      40.452 -12.371   1.216  1.00  0.00     0.435 C 
HETATM   35  F   UNL     1      41.424 -12.552   0.289  1.00  0.00    -0.165 F 
HETATM   36  F   UNL     1      39.634 -13.449   1.129  1.00  0.00    -0.165 F 
HETATM   37  F   UNL     1      39.745 -11.276   0.857  1.00  0.00    -0.165 F 
ENDBRANCH   9  34
TORSDOF 10
ENDMDL
MODEL 6
REMARK VINA RESULT:      -6.5      6.097     10.373
REMARK  10 active torsions:
REMARK  status: ('A' for Active; 'I' for Inactive)
REMARK    1  A    between atoms: C_2  and  O_3 
REMARK    2  A    between atoms: O_3  and  C_4 
REMARK    3  A    between atoms: C_4  and  C_5 
REMARK    4  A    between atoms: C_6  and  C_7 
REMARK    5  A    between atoms: C_16  and  C_17 
REMARK    6  A    between atoms: C_17  and  C_18 
REMARK       I    between atoms: C_18  and  N_19 
REMARK    7  A    between atoms: N_19  and  C_20 
REMARK    8  A    between atoms: C_20  and  C_21 
REMARK    9  A    between atoms: C_21  and  N_22 
REMARK   10  A    between atoms: C_31  and  C_32 
ROOT
HETATM    1  C   UNL     1      41.557  -6.356  12.431  1.00  0.00     0.078 C 
HETATM    2  C   UNL     1      41.085  -7.562  11.670  1.00  0.00     0.167 C 
HETATM    3  N   UNL     1      40.233  -7.213  10.506  1.00  0.00    -0.318 N 
HETATM    4  C   UNL     1      39.536  -7.907   9.663  1.00  0.00     0.011 C 
HETATM    5  C   UNL     1      40.225  -5.708  10.145  1.00  0.00     0.170 C 
HETATM    6  S   UNL     1      39.328  -5.390   8.699  1.00  0.00    -0.086 SA
HETATM    7  C   UNL     1      38.791  -7.114   8.611  1.00  0.00     0.135 C 
HETATM    8  N   UNL     1      40.806  -4.775  10.807  1.00  0.00    -0.219 NA
HETATM    9  C   UNL     1      41.425  -5.077  12.011  1.00  0.00     0.157 C 
ENDROOT
BRANCH   4  10
HETATM   10  C   UNL     1      39.473  -9.408   9.682  1.00  0.00     0.156 C 
BRANCH  10  11
HETATM   11  C   UNL     1      39.578 -10.099   8.343  1.00  0.00     0.223 C 
HETATM   12  N   UNL     1      40.812  -9.989   7.754  1.00  0.00    -0.359 N 
HETATM   13  H   UNL     1      41.500  -9.378   8.193  1.00  0.00     0.162 HD
HETATM   14  O   UNL     1      38.657 -10.749   7.854  1.00  0.00    -0.273 OA
BRANCH  12  15
HETATM   15  C   UNL     1      41.122 -10.381   6.377  1.00  0.00     0.150 C 
BRANCH  15  16
HETATM   16  C   UNL     1      41.642 -11.822   6.187  1.00  0.00     0.253 C 
BRANCH  16  17
HETATM   17  N   UNL     1      40.534 -12.855   6.255  1.00  0.00    -0.077 N 
HETATM   18  H   UNL     1      40.016 -12.690   7.139  1.00  0.00     0.279 HD
HETATM   19  C   UNL     1      39.529 -12.728   5.139  1.00  0.00     0.269 C 
HETATM   20  C   UNL     1      41.081 -14.258   6.308  1.00  0.00     0.269 C 
ENDBRANCH  16  17
ENDBRANCH  15  16
ENDBRANCH  12  15
ENDBRANCH  10  11
ENDBRANCH   4  10
BRANCH   2  21
HETATM   21  C   UNL     1      42.239  -8.464  11.223  1.00  0.00    -0.024 A 
HETATM   22  C   UNL     1      42.468  -9.742  11.787  1.00  0.00    -0.053 A 
HETATM   23  C   UNL     1      41.710 -10.299  12.963  1.00  0.00     0.049 C 
HETATM   24  C   UNL     1      43.521 -10.530  11.291  1.00  0.00     0.008 A 
HETATM   25  C   UNL     1      44.329 -10.086  10.247  1.00  0.00     0.007 A 
HETATM   26  C   UNL     1      44.126  -8.829   9.687  1.00  0.00    -0.061 A 
HETATM   27  C   UNL     1      45.037  -8.325   8.604  1.00  0.00     0.048 C 
HETATM   28  C   UNL     1      43.106  -8.016  10.195  1.00  0.00     0.017 A 
ENDBRANCH   2  21
BRANCH   1  29
HETATM   29  C   UNL     1      42.043  -6.682  13.787  1.00  0.00     0.294 C 
HETATM   30  O   UNL     1      43.239  -6.731  14.028  1.00  0.00    -0.259 OA
BRANCH  29  31
HETATM   31  O   UNL     1      41.013  -6.832  14.637  1.00  0.00    -0.318 OA
BRANCH  31  32
HETATM   32  C   UNL     1      41.162  -7.857  15.637  1.00  0.00     0.174 C 
HETATM   33  C   UNL     1      40.795  -7.322  17.007  1.00  0.00     0.034 C 
ENDBRANCH  31  32
ENDBRANCH  29  31
ENDBRANCH   1  29
BRANCH   9  34
HETATM   34  C   UNL     1      41.839  -3.864  12.871  1.00  0.00     0.435 C 
HETATM   35  F   UNL     1      41.429  -2.698  12.315  1.00  0.00    -0.165 F 
HETATM   36  F   UNL     1      41.285  -3.915  14.108  1.00  0.00    -0.165 F 
HETATM   37  F   UNL     1      43.182  -3.797  13.013  1.00  0.00    -0.165 F 
ENDBRANCH   9  34
TORSDOF 10
ENDMDL
MODEL 7
REMARK VINA RESULT:      -6.4     18.568     20.837
REMARK  10 active torsions:
REMARK  status: ('A' for Active; 'I' for Inactive)
REMARK    1  A    between atoms: C_2  and  O_3 
REMARK    2  A    between atoms: O_3  and  C_4 
REMARK    3  A    between atoms: C_4  and  C_5 
REMARK    4  A    between atoms: C_6  and  C_7 
REMARK    5  A    between atoms: C_16  and  C_17 
REMARK    6  A    between atoms: C_17  and  C_18 
REMARK       I    between atoms: C_18  and  N_19 
REMARK    7  A    between atoms: N_19  and  C_20 
REMARK    8  A    between atoms: C_20  and  C_21 
REMARK    9  A    between atoms: C_21  and  N_22 
REMARK   10  A    between atoms: C_31  and  C_32 
ROOT
HETATM    1  C   UNL     1      47.896 -31.452  -1.433  1.00  0.00     0.078 C 
HETATM    2  C   UNL     1      46.444 -31.312  -1.078  1.00  0.00     0.167 C 
HETATM    3  N   UNL     1      46.222 -30.477   0.130  1.00  0.00    -0.318 N 
HETATM    4  C   UNL     1      45.180 -30.189   0.844  1.00  0.00     0.011 C 
HETATM    5  C   UNL     1      47.473 -29.703   0.613  1.00  0.00     0.170 C 
HETATM    6  S   UNL     1      47.113 -28.645   1.934  1.00  0.00    -0.086 SA
HETATM    7  C   UNL     1      45.424 -29.281   2.030  1.00  0.00     0.135 C 
HETATM    8  N   UNL     1      48.652 -29.800   0.117  1.00  0.00    -0.219 NA
HETATM    9  C   UNL     1      48.900 -30.739  -0.874  1.00  0.00     0.157 C 
ENDROOT
BRANCH   4  10
HETATM   10  C   UNL     1      43.798 -30.684   0.525  1.00  0.00     0.156 C 
BRANCH  10  11
HETATM   11  C   UNL     1      42.699 -30.252   1.466  1.00  0.00     0.223 C 
HETATM   12  N   UNL     1      42.614 -31.007   2.608  1.00  0.00    -0.359 N 
HETATM   13  H   UNL     1      43.200 -31.838   2.678  1.00  0.00     0.162 HD
HETATM   14  O   UNL     1      41.983 -29.276   1.253  1.00  0.00    -0.273 OA
BRANCH  12  15
HETATM   15  C   UNL     1      41.520 -30.939   3.580  1.00  0.00     0.150 C 
BRANCH  15  16
HETATM   16  C   UNL     1      40.256 -31.753   3.230  1.00  0.00     0.253 C 
BRANCH  16  17
HETATM   17  N   UNL     1      39.369 -32.000   4.434  1.00  0.00    -0.077 N 
HETATM   18  H   UNL     1      38.622 -31.279   4.418  1.00  0.00     0.279 HD
HETATM   19  C   UNL     1      38.673 -33.337   4.401  1.00  0.00     0.269 C 
HETATM   20  C   UNL     1      40.125 -31.837   5.727  1.00  0.00     0.269 C 
ENDBRANCH  16  17
ENDBRANCH  15  16
ENDBRANCH  12  15
ENDBRANCH  10  11
ENDBRANCH   4  10
BRANCH   2  21
HETATM   21  C   UNL     1      45.602 -30.782  -2.242  1.00  0.00    -0.024 A 
HETATM   22  C   UNL     1      44.638 -31.578  -2.907  1.00  0.00    -0.053 A 
HETATM   23  C   UNL     1      44.426 -33.047  -2.651  1.00  0.00     0.049 C 
HETATM   24  C   UNL     1      43.872 -31.006  -3.937  1.00  0.00     0.008 A 
HETATM   25  C   UNL     1      44.030 -29.671  -4.303  1.00  0.00     0.007 A 
HETATM   26  C   UNL     1      44.979 -28.876  -3.667  1.00  0.00    -0.061 A 
HETATM   27  C   UNL     1      45.193 -27.455  -4.104  1.00  0.00     0.048 C 
HETATM   28  C   UNL     1      45.777 -29.441  -2.665  1.00  0.00     0.017 A 
ENDBRANCH   2  21
BRANCH   1  29
HETATM   29  C   UNL     1      48.161 -32.578  -2.351  1.00  0.00     0.294 C 
HETATM   30  O   UNL     1      48.178 -33.728  -1.941  1.00  0.00    -0.259 OA
BRANCH  29  31
HETATM   31  O   UNL     1      48.298 -32.140  -3.614  1.00  0.00    -0.318 OA
BRANCH  31  32
HETATM   32  C   UNL     1      47.791 -33.008  -4.644  1.00  0.00     0.174 C 
HETATM   33  C   UNL     1      46.961 -32.225  -5.641  1.00  0.00     0.034 C 
ENDBRANCH  31  32
ENDBRANCH  29  31
ENDBRANCH   1  29
BRANCH   9  34
HETATM   34  C   UNL     1      50.389 -30.985  -1.203  1.00  0.00     0.435 C 
HETATM   35  F   UNL     1      51.202 -30.386  -0.298  1.00  0.00    -0.165 F 
HETATM   36  F   UNL     1      50.694 -32.306  -1.179  1.00  0.00    -0.165 F 
HETATM   37  F   UNL     1      50.710 -30.499  -2.423  1.00  0.00    -0.165 F 
ENDBRANCH   9  34
TORSDOF 10
ENDMDL
MODEL 8
REMARK VINA RESULT:      -6.4      3.931      5.724
REMARK  10 active torsions:
REMARK  status: ('A' for Active; 'I' for Inactive)
REMARK    1  A    between atoms: C_2  and  O_3 
REMARK    2  A    between atoms: O_3  and  C_4 
REMARK    3  A    between atoms: C_4  and  C_5 
REMARK    4  A    between atoms: C_6  and  C_7 
REMARK    5  A    between atoms: C_16  and  C_17 
REMARK    6  A    between atoms: C_17  and  C_18 
REMARK       I    between atoms: C_18  and  N_19 
REMARK    7  A    between atoms: N_19  and  C_20 
REMARK    8  A    between atoms: C_20  and  C_21 
REMARK    9  A    between atoms: C_21  and  N_22 
REMARK   10  A    between atoms: C_31  and  C_32 
ROOT
HETATM    1  C   UNL     1      41.904 -13.677   6.015  1.00  0.00     0.078 C 
HETATM    2  C   UNL     1      41.531 -12.252   6.311  1.00  0.00     0.167 C 
HETATM    3  N   UNL     1      42.668 -11.455   6.837  1.00  0.00    -0.318 N 
HETATM    4  C   UNL     1      42.778 -10.257   7.318  1.00  0.00     0.011 C 
HETATM    5  C   UNL     1      44.047 -12.149   6.718  1.00  0.00     0.170 C 
HETATM    6  S   UNL     1      45.341 -11.114   7.218  1.00  0.00    -0.086 SA
HETATM    7  C   UNL     1      44.168  -9.848   7.757  1.00  0.00     0.135 C 
HETATM    8  N   UNL     1      44.251 -13.344   6.299  1.00  0.00    -0.219 NA
HETATM    9  C   UNL     1      43.167 -14.159   6.008  1.00  0.00     0.157 C 
ENDROOT
BRANCH   4  10
HETATM   10  C   UNL     1      41.627  -9.298   7.419  1.00  0.00     0.156 C 
BRANCH  10  11
HETATM   11  C   UNL     1      41.181  -8.931   8.815  1.00  0.00     0.223 C 
HETATM   12  N   UNL     1      40.174  -9.724   9.305  1.00  0.00    -0.359 N 
HETATM   13  H   UNL     1      39.744 -10.398   8.673  1.00  0.00     0.162 HD
HETATM   14  O   UNL     1      41.713  -8.040   9.472  1.00  0.00    -0.273 OA
BRANCH  12  15
HETATM   15  C   UNL     1      39.421  -9.459  10.533  1.00  0.00     0.150 C 
BRANCH  15  16
HETATM   16  C   UNL     1      39.989 -10.093  11.822  1.00  0.00     0.253 C 
BRANCH  16  17
HETATM   17  N   UNL     1      41.136  -9.293  12.408  1.00  0.00    -0.077 N 
HETATM   18  H   UNL     1      41.227  -8.428  11.842  1.00  0.00     0.279 HD
HETATM   19  C   UNL     1      40.893  -8.852  13.828  1.00  0.00     0.269 C 
HETATM   20  C   UNL     1      42.443 -10.036  12.309  1.00  0.00     0.269 C 
ENDBRANCH  16  17
ENDBRANCH  15  16
ENDBRANCH  12  15
ENDBRANCH  10  11
ENDBRANCH   4  10
BRANCH   2  21
HETATM   21  C   UNL     1      40.909 -11.544   5.104  1.00  0.00    -0.024 A 
HETATM   22  C   UNL     1      39.606 -10.991   5.135  1.00  0.00    -0.053 A 
HETATM   23  C   UNL     1      38.643 -11.150   6.282  1.00  0.00     0.049 C 
HETATM   24  C   UNL     1      39.123 -10.316   4.001  1.00  0.00     0.008 A 
HETATM   25  C   UNL     1      39.905 -10.166   2.858  1.00  0.00     0.007 A 
HETATM   26  C   UNL     1      41.184 -10.712   2.806  1.00  0.00    -0.061 A 
HETATM   27  C   UNL     1      42.003 -10.604   1.551  1.00  0.00     0.048 C 
HETATM   28  C   UNL     1      41.667 -11.420   3.912  1.00  0.00     0.017 A 
ENDBRANCH   2  21
BRANCH   1  29
HETATM   29  C   UNL     1      40.731 -14.567   5.891  1.00  0.00     0.294 C 
HETATM   30  O   UNL     1      39.866 -14.584   6.752  1.00  0.00    -0.259 OA
BRANCH  29  31
HETATM   31  O   UNL     1      40.765 -15.237   4.727  1.00  0.00    -0.318 OA
BRANCH  31  32
HETATM   32  C   UNL     1      40.173 -14.572   3.596  1.00  0.00     0.174 C 
HETATM   33  C   UNL     1      41.093 -14.641   2.394  1.00  0.00     0.034 C 
ENDBRANCH  31  32
ENDBRANCH  29  31
ENDBRANCH   1  29
BRANCH   9  34
HETATM   34  C   UNL     1      43.494 -15.653   5.793  1.00  0.00     0.435 C 
HETATM   35  F   UNL     1      42.648 -16.451   6.489  1.00  0.00    -0.165 F 
HETATM   36  F   UNL     1      43.373 -16.009   4.490  1.00  0.00    -0.165 F 
HETATM   37  F   UNL     1      44.752 -15.944   6.196  1.00  0.00    -0.165 F 
ENDBRANCH   9  34
TORSDOF 10
ENDMDL
MODEL 9
REMARK VINA RESULT:      -6.3      4.860      7.865
REMARK  10 active torsions:
REMARK  status: ('A' for Active; 'I' for Inactive)
REMARK    1  A    between atoms: C_2  and  O_3 
REMARK    2  A    between atoms: O_3  and  C_4 
REMARK    3  A    between atoms: C_4  and  C_5 
REMARK    4  A    between atoms: C_6  and  C_7 
REMARK    5  A    between atoms: C_16  and  C_17 
REMARK    6  A    between atoms: C_17  and  C_18 
REMARK       I    between atoms: C_18  and  N_19 
REMARK    7  A    between atoms: N_19  and  C_20 
REMARK    8  A    between atoms: C_20  and  C_21 
REMARK    9  A    between atoms: C_21  and  N_22 
REMARK   10  A    between atoms: C_31  and  C_32 
ROOT
HETATM    1  C   UNL     1      40.522 -13.524   1.537  1.00  0.00     0.078 C 
HETATM    2  C   UNL     1      40.826 -12.172   0.958  1.00  0.00     0.167 C 
HETATM    3  N   UNL     1      40.873 -12.177  -0.526  1.00  0.00    -0.318 N 
HETATM    4  C   UNL     1      41.201 -11.295  -1.416  1.00  0.00     0.011 C 
HETATM    5  C   UNL     1      40.338 -13.473  -1.180  1.00  0.00     0.170 C 
HETATM    6  S   UNL     1      40.289 -13.359  -2.906  1.00  0.00    -0.086 SA
HETATM    7  C   UNL     1      41.107 -11.747  -2.858  1.00  0.00     0.135 C 
HETATM    8  N   UNL     1      39.960 -14.528  -0.555  1.00  0.00    -0.219 NA
HETATM    9  C   UNL     1      40.117 -14.597   0.822  1.00  0.00     0.157 C 
ENDROOT
BRANCH   4  10
HETATM   10  C   UNL     1      41.623  -9.894  -1.076  1.00  0.00     0.156 C 
BRANCH  10  11
HETATM   11  C   UNL     1      40.887  -8.782  -1.785  1.00  0.00     0.223 C 
HETATM   12  N   UNL     1      41.687  -8.002  -2.580  1.00  0.00    -0.359 N 
HETATM   13  H   UNL     1      42.695  -8.155  -2.543  1.00  0.00     0.162 HD
HETATM   14  O   UNL     1      39.671  -8.628  -1.701  1.00  0.00    -0.273 OA
BRANCH  12  15
HETATM   15  C   UNL     1      41.275  -6.744  -3.208  1.00  0.00     0.150 C 
BRANCH  15  16
HETATM   16  C   UNL     1      42.413  -5.871  -3.779  1.00  0.00     0.253 C 
BRANCH  16  17
HETATM   17  N   UNL     1      42.781  -4.720  -2.864  1.00  0.00    -0.077 N 
HETATM   18  H   UNL     1      43.380  -4.073  -3.412  1.00  0.00     0.279 HD
HETATM   19  C   UNL     1      41.591  -3.916  -2.406  1.00  0.00     0.269 C 
HETATM   20  C   UNL     1      43.586  -5.184  -1.678  1.00  0.00     0.269 C 
ENDBRANCH  16  17
ENDBRANCH  15  16
ENDBRANCH  12  15
ENDBRANCH  10  11
ENDBRANCH   4  10
BRANCH   2  21
HETATM   21  C   UNL     1      39.859 -11.091   1.448  1.00  0.00    -0.024 A 
HETATM   22  C   UNL     1      40.237 -10.102   2.389  1.00  0.00    -0.053 A 
HETATM   23  C   UNL     1      41.559 -10.077   3.110  1.00  0.00     0.049 C 
HETATM   24  C   UNL     1      39.305  -9.116   2.755  1.00  0.00     0.008 A 
HETATM   25  C   UNL     1      38.028  -9.081   2.199  1.00  0.00     0.007 A 
HETATM   26  C   UNL     1      37.636 -10.051   1.281  1.00  0.00    -0.061 A 
HETATM   27  C   UNL     1      36.239 -10.050   0.729  1.00  0.00     0.048 C 
HETATM   28  C   UNL     1      38.539 -11.063   0.934  1.00  0.00     0.017 A 
ENDBRANCH   2  21
BRANCH   1  29
HETATM   29  C   UNL     1      40.871 -13.631   2.969  1.00  0.00     0.294 C 
HETATM   30  O   UNL     1      42.022 -13.841   3.318  1.00  0.00    -0.259 OA
BRANCH  29  31
HETATM   31  O   UNL     1      39.792 -13.406   3.738  1.00  0.00    -0.318 OA
BRANCH  31  32
HETATM   32  C   UNL     1      40.055 -13.060   5.110  1.00  0.00     0.174 C 
HETATM   33  C   UNL     1      39.237 -11.852   5.522  1.00  0.00     0.034 C 
ENDBRANCH  31  32
ENDBRANCH  29  31
ENDBRANCH   1  29
BRANCH   9  34
HETATM   34  C   UNL     1      39.908 -15.993   1.447  1.00  0.00     0.435 C 
HETATM   35  F   UNL     1      41.081 -16.529   1.866  1.00  0.00    -0.165 F 
HETATM   36  F   UNL     1      39.102 -15.938   2.536  1.00  0.00    -0.165 F 
HETATM   37  F   UNL     1      39.361 -16.854   0.559  1.00  0.00    -0.165 F 
ENDBRANCH   9  34
TORSDOF 10
ENDMDL
MODEL 10
REMARK VINA RESULT:      -6.2      3.990      8.223
REMARK  10 active torsions:
REMARK  status: ('A' for Active; 'I' for Inactive)
REMARK    1  A    between atoms: C_2  and  O_3 
REMARK    2  A    between atoms: O_3  and  C_4 
REMARK    3  A    between atoms: C_4  and  C_5 
REMARK    4  A    between atoms: C_6  and  C_7 
REMARK    5  A    between atoms: C_16  and  C_17 
REMARK    6  A    between atoms: C_17  and  C_18 
REMARK       I    between atoms: C_18  and  N_19 
REMARK    7  A    between atoms: N_19  and  C_20 
REMARK    8  A    between atoms: C_20  and  C_21 
REMARK    9  A    between atoms: C_21  and  N_22 
REMARK   10  A    between atoms: C_31  and  C_32 
ROOT
HETATM    1  C   UNL     1      41.948 -12.372   2.883  1.00  0.00     0.078 C 
HETATM    2  C   UNL     1      40.628 -12.231   2.180  1.00  0.00     0.167 C 
HETATM    3  N   UNL     1      39.819 -11.097   2.694  1.00  0.00    -0.318 N 
HETATM    4  C   UNL     1      38.611 -10.684   2.474  1.00  0.00     0.011 C 
HETATM    5  C   UNL     1      40.585 -10.136   3.633  1.00  0.00     0.170 C 
HETATM    6  S   UNL     1      39.630  -8.765   4.083  1.00  0.00    -0.086 SA
HETATM    7  C   UNL     1      38.182  -9.455   3.248  1.00  0.00     0.135 C 
HETATM    8  N   UNL     1      41.789 -10.294   4.049  1.00  0.00    -0.219 NA
HETATM    9  C   UNL     1      42.469 -11.462   3.736  1.00  0.00     0.157 C 
ENDROOT
BRANCH   4  10
HETATM   10  C   UNL     1      37.678 -11.340   1.496  1.00  0.00     0.156 C 
BRANCH  10  11
HETATM   11  C   UNL     1      37.616 -10.728   0.117  1.00  0.00     0.223 C 
HETATM   12  N   UNL     1      37.218 -11.602  -0.864  1.00  0.00    -0.359 N 
HETATM   13  H   UNL     1      37.110 -12.585  -0.615  1.00  0.00     0.162 HD
HETATM   14  O   UNL     1      37.846  -9.540  -0.097  1.00  0.00    -0.273 OA
BRANCH  12  15
HETATM   15  C   UNL     1      37.272 -11.330  -2.302  1.00  0.00     0.150 C 
BRANCH  15  16
HETATM   16  C   UNL     1      36.129 -10.459  -2.867  1.00  0.00     0.253 C 
BRANCH  16  17
HETATM   17  N   UNL     1      35.623 -10.958  -4.206  1.00  0.00    -0.077 N 
HETATM   18  H   UNL     1      36.448 -11.297  -4.738  1.00  0.00     0.279 HD
HETATM   19  C   UNL     1      34.678 -12.126  -4.091  1.00  0.00     0.269 C 
HETATM   20  C   UNL     1      34.992  -9.852  -5.011  1.00  0.00     0.269 C 
ENDBRANCH  16  17
ENDBRANCH  15  16
ENDBRANCH  12  15
ENDBRANCH  10  11
ENDBRANCH   4  10
BRANCH   2  21
HETATM   21  C   UNL     1      40.778 -12.121   0.661  1.00  0.00    -0.024 A 
HETATM   22  C   UNL     1      40.464 -13.188  -0.214  1.00  0.00    -0.053 A 
HETATM   23  C   UNL     1      40.087 -14.574   0.238  1.00  0.00     0.049 C 
HETATM   24  C   UNL     1      40.585 -12.994  -1.601  1.00  0.00     0.008 A 
HETATM   25  C   UNL     1      40.990 -11.771  -2.130  1.00  0.00     0.007 A 
HETATM   26  C   UNL     1      41.313 -10.713  -1.284  1.00  0.00    -0.061 A 
HETATM   27  C   UNL     1      41.809  -9.414  -1.853  1.00  0.00     0.048 C 
HETATM   28  C   UNL     1      41.234 -10.901   0.100  1.00  0.00     0.017 A 
ENDBRANCH   2  21
BRANCH   1  29
HETATM   29  C   UNL     1      42.569 -13.697   2.684  1.00  0.00     0.294 C 
HETATM   30  O   UNL     1      43.569 -13.822   1.995  1.00  0.00    -0.259 OA
BRANCH  29  31
HETATM   31  O   UNL     1      41.923 -14.636   3.396  1.00  0.00    -0.318 OA
BRANCH  31  32
HETATM   32  C   UNL     1      42.575 -15.915   3.496  1.00  0.00     0.174 C 
HETATM   33  C   UNL     1      41.945 -16.911   2.542  1.00  0.00     0.034 C 
ENDBRANCH  31  32
ENDBRANCH  29  31
ENDBRANCH   1  29
BRANCH   9  34
HETATM   34  C   UNL     1      43.786 -11.694   4.509  1.00  0.00     0.435 C 
HETATM   35  F   UNL     1      44.861 -11.641   3.684  1.00  0.00    -0.165 F 
HETATM   36  F   UNL     1      43.984 -10.745   5.457  1.00  0.00    -0.165 F 
HETATM   37  F   UNL     1      43.796 -12.904   5.113  1.00  0.00    -0.165 F 
ENDBRANCH   9  34
TORSDOF 10
ENDMDL
