MODEL 1
REMARK VINA RESULT:      -9.2      0.000      0.000
REMARK  5 active torsions:
REMARK  status: ('A' for Active; 'I' for Inactive)
REMARK    1  A    between atoms: C_3  and  N_4 
REMARK       I    between atoms: N_4  and  C_5 
REMARK    2  A    between atoms: C_9  and  N_10 
REMARK       I    between atoms: N_10  and  C_11 
REMARK    3  A    between atoms: C_11  and  C_12 
REMARK    4  A    between atoms: C_17  and  C_18 
REMARK    5  A    between atoms: C_24  and  C_25 
ROOT
HETATM    1  C   UNL     1      42.322 -12.278   3.681  1.00  0.00     0.148 C 
HETATM    2  N   UNL     1      41.675 -13.426   3.998  1.00  0.00    -0.165 NA
HETATM    3  N   UNL     1      41.486 -14.008   2.801  1.00  0.00    -0.240 N 
HETATM    4  C   UNL     1      41.842 -13.229   1.738  1.00  0.00     0.123 C 
HETATM    5  N   UNL     1      41.552 -13.600   0.476  1.00  0.00    -0.364 N 
HETATM    6  C   UNL     1      40.609 -14.682   0.162  1.00  0.00     0.143 C 
HETATM    7  C   UNL     1      39.886 -15.196   1.429  1.00  0.00     0.068 C 
HETATM    8  C   UNL     1      40.814 -15.281   2.647  1.00  0.00     0.221 C 
HETATM    9  C   UNL     1      42.473 -12.139   2.272  1.00  0.00     0.089 C 
HETATM   10  H   UNL     1      41.841 -13.037  -0.322  1.00  0.00     0.162 HD
ENDROOT
BRANCH   1  11
HETATM   11  C   UNL     1      42.737 -11.304   4.707  1.00  0.00     0.276 C 
HETATM   12  N   UNL     1      43.626 -11.856   5.609  1.00  0.00    -0.322 N 
HETATM   13  H   UNL     1      43.851 -12.828   5.408  1.00  0.00     0.169 HD
HETATM   14  O   UNL     1      42.280 -10.166   4.730  1.00  0.00    -0.266 OA
BRANCH  12  15
HETATM   15  C   UNL     1      44.172 -11.273   6.764  1.00  0.00     0.037 A 
HETATM   16  C   UNL     1      43.426 -10.943   7.897  1.00  0.00     0.059 A 
HETATM   17  C   UNL     1      44.023 -10.389   9.050  1.00  0.00     0.042 A 
HETATM   18  C   UNL     1      45.397 -10.099   9.032  1.00  0.00    -0.035 A 
HETATM   19  C   UNL     1      46.143  -9.393  10.129  1.00  0.00     0.050 C 
HETATM   20  C   UNL     1      46.145 -10.453   7.892  1.00  0.00     0.011 A 
HETATM   21  C   UNL     1      45.542 -11.027   6.772  1.00  0.00     0.030 A 
BRANCH  17  22
HETATM   22  N   UNL     1      43.120 -10.131  10.109  1.00  0.00    -0.327 N 
HETATM   23  C   UNL     1      43.156 -10.604  11.405  1.00  0.00     0.218 C 
HETATM   24  C   UNL     1      42.065 -10.013  12.266  1.00  0.00     0.117 C 
HETATM   25  O   UNL     1      43.942 -11.417  11.877  1.00  0.00    -0.274 OA
HETATM   26  H   UNL     1      42.227  -9.749   9.821  1.00  0.00     0.169 HD
ENDBRANCH  17  22
ENDBRANCH  12  15
ENDBRANCH   1  11
BRANCH   8  27
HETATM   27  C   UNL     1      41.830 -16.395   2.536  1.00  0.00     0.409 C 
HETATM   28  F   UNL     1      42.194 -16.878   3.744  1.00  0.00    -0.169 F 
HETATM   29  F   UNL     1      41.291 -17.438   1.852  1.00  0.00    -0.169 F 
HETATM   30  F   UNL     1      42.953 -16.043   1.878  1.00  0.00    -0.169 F 
ENDBRANCH   8  27
BRANCH   6  31
HETATM   31  C   UNL     1      39.578 -14.267  -0.845  1.00  0.00     0.075 A 
HETATM   32  O   UNL     1      38.981 -13.056  -0.654  1.00  0.00    -0.325 OA
HETATM   33  C   UNL     1      38.109 -12.879  -1.681  1.00  0.00     0.142 A 
HETATM   34  C   UNL     1      38.142 -13.957  -2.534  1.00  0.00     0.027 A 
HETATM   35  C   UNL     1      39.091 -14.857  -1.995  1.00  0.00     0.037 A 
ENDBRANCH   6  31
TORSDOF 5
ENDMDL
MODEL 2
REMARK VINA RESULT:      -8.9      3.288      4.668
REMARK  5 active torsions:
REMARK  status: ('A' for Active; 'I' for Inactive)
REMARK    1  A    between atoms: C_3  and  N_4 
REMARK       I    between atoms: N_4  and  C_5 
REMARK    2  A    between atoms: C_9  and  N_10 
REMARK       I    between atoms: N_10  and  C_11 
REMARK    3  A    between atoms: C_11  and  C_12 
REMARK    4  A    between atoms: C_17  and  C_18 
REMARK    5  A    between atoms: C_24  and  C_25 
ROOT
HETATM    1  C   UNL     1      43.177 -12.626   6.129  1.00  0.00     0.148 C 
HETATM    2  N   UNL     1      43.445 -12.402   4.819  1.00  0.00    -0.165 NA
HETATM    3  N   UNL     1      42.939 -13.492   4.216  1.00  0.00    -0.240 N 
HETATM    4  C   UNL     1      42.500 -14.455   5.078  1.00  0.00     0.123 C 
HETATM    5  N   UNL     1      42.129 -15.671   4.631  1.00  0.00    -0.364 N 
HETATM    6  C   UNL     1      42.429 -16.146   3.274  1.00  0.00     0.143 C 
HETATM    7  C   UNL     1      43.352 -15.163   2.516  1.00  0.00     0.068 C 
HETATM    8  C   UNL     1      43.002 -13.695   2.783  1.00  0.00     0.221 C 
HETATM    9  C   UNL     1      42.553 -13.891   6.323  1.00  0.00     0.089 C 
HETATM   10  H   UNL     1      41.773 -16.383   5.267  1.00  0.00     0.162 HD
ENDROOT
BRANCH   1  11
HETATM   11  C   UNL     1      43.565 -11.669   7.181  1.00  0.00     0.276 C 
HETATM   12  N   UNL     1      42.619 -10.675   7.344  1.00  0.00    -0.322 N 
HETATM   13  H   UNL     1      41.818 -10.776   6.724  1.00  0.00     0.169 HD
HETATM   14  O   UNL     1      44.631 -11.772   7.777  1.00  0.00    -0.266 OA
BRANCH  12  15
HETATM   15  C   UNL     1      42.673  -9.547   8.181  1.00  0.00     0.037 A 
HETATM   16  C   UNL     1      42.677  -9.611   9.575  1.00  0.00     0.059 A 
HETATM   17  C   UNL     1      42.766  -8.454  10.377  1.00  0.00     0.042 A 
HETATM   18  C   UNL     1      42.785  -7.194   9.753  1.00  0.00    -0.035 A 
HETATM   19  C   UNL     1      42.747  -5.876  10.473  1.00  0.00     0.050 C 
HETATM   20  C   UNL     1      42.800  -7.141   8.346  1.00  0.00     0.011 A 
HETATM   21  C   UNL     1      42.740  -8.299   7.569  1.00  0.00     0.030 A 
BRANCH  17  22
HETATM   22  N   UNL     1      42.772  -8.706  11.769  1.00  0.00    -0.327 N 
HETATM   23  C   UNL     1      41.708  -8.701  12.649  1.00  0.00     0.218 C 
HETATM   24  C   UNL     1      42.109  -9.125  14.042  1.00  0.00     0.117 C 
HETATM   25  O   UNL     1      40.547  -8.391  12.409  1.00  0.00    -0.274 OA
HETATM   26  H   UNL     1      43.684  -8.654  12.206  1.00  0.00     0.169 HD
ENDBRANCH  17  22
ENDBRANCH  12  15
ENDBRANCH   1  11
BRANCH   8  27
HETATM   27  C   UNL     1      41.700 -13.274   2.141  1.00  0.00     0.409 C 
HETATM   28  F   UNL     1      40.652 -13.387   2.986  1.00  0.00    -0.169 F 
HETATM   29  F   UNL     1      41.769 -11.964   1.785  1.00  0.00    -0.169 F 
HETATM   30  F   UNL     1      41.400 -13.961   1.020  1.00  0.00    -0.169 F 
ENDBRANCH   8  27
BRANCH   6  31
HETATM   31  C   UNL     1      43.065 -17.503   3.271  1.00  0.00     0.075 A 
HETATM   32  O   UNL     1      43.698 -17.891   4.415  1.00  0.00    -0.325 OA
HETATM   33  C   UNL     1      44.175 -19.144   4.196  1.00  0.00     0.142 A 
HETATM   34  C   UNL     1      43.853 -19.571   2.930  1.00  0.00     0.027 A 
HETATM   35  C   UNL     1      43.134 -18.511   2.329  1.00  0.00     0.037 A 
ENDBRANCH   6  31
TORSDOF 5
ENDMDL
MODEL 3
REMARK VINA RESULT:      -8.9      3.481      4.978
REMARK  5 active torsions:
REMARK  status: ('A' for Active; 'I' for Inactive)
REMARK    1  A    between atoms: C_3  and  N_4 
REMARK       I    between atoms: N_4  and  C_5 
REMARK    2  A    between atoms: C_9  and  N_10 
REMARK       I    between atoms: N_10  and  C_11 
REMARK    3  A    between atoms: C_11  and  C_12 
REMARK    4  A    between atoms: C_17  and  C_18 
REMARK    5  A    between atoms: C_24  and  C_25 
ROOT
HETATM    1  C   UNL     1      43.653 -12.028   6.454  1.00  0.00     0.148 C 
HETATM    2  N   UNL     1      43.948 -11.700   5.172  1.00  0.00    -0.165 NA
HETATM    3  N   UNL     1      43.316 -12.653   4.463  1.00  0.00    -0.240 N 
HETATM    4  C   UNL     1      42.765 -13.643   5.224  1.00  0.00     0.123 C 
HETATM    5  N   UNL     1      42.254 -14.752   4.656  1.00  0.00    -0.364 N 
HETATM    6  C   UNL     1      42.498 -15.113   3.253  1.00  0.00     0.143 C 
HETATM    7  C   UNL     1      43.532 -14.171   2.592  1.00  0.00     0.068 C 
HETATM    8  C   UNL     1      43.358 -12.709   3.016  1.00  0.00     0.221 C 
HETATM    9  C   UNL     1      42.884 -13.224   6.521  1.00  0.00     0.089 C 
HETATM   10  H   UNL     1      41.816 -15.481   5.217  1.00  0.00     0.162 HD
ENDROOT
BRANCH   1  11
HETATM   11  C   UNL     1      44.150 -11.240   7.597  1.00  0.00     0.276 C 
HETATM   12  N   UNL     1      43.117 -10.795   8.400  1.00  0.00    -0.322 N 
HETATM   13  H   UNL     1      42.199 -11.091   8.076  1.00  0.00     0.169 HD
HETATM   14  O   UNL     1      45.344 -11.007   7.741  1.00  0.00    -0.266 OA
BRANCH  12  15
HETATM   15  C   UNL     1      43.185  -9.951   9.521  1.00  0.00     0.037 A 
HETATM   16  C   UNL     1      43.075  -8.562   9.459  1.00  0.00     0.059 A 
HETATM   17  C   UNL     1      43.115  -7.755  10.616  1.00  0.00     0.042 A 
HETATM   18  C   UNL     1      43.340  -8.364  11.862  1.00  0.00    -0.035 A 
HETATM   19  C   UNL     1      43.538  -7.629  13.158  1.00  0.00     0.050 C 
HETATM   20  C   UNL     1      43.431  -9.769  11.918  1.00  0.00     0.011 A 
HETATM   21  C   UNL     1      43.360 -10.552  10.765  1.00  0.00     0.030 A 
BRANCH  17  22
HETATM   22  N   UNL     1      42.973  -6.369  10.368  1.00  0.00    -0.327 N 
HETATM   23  C   UNL     1      41.909  -5.544  10.674  1.00  0.00     0.218 C 
HETATM   24  C   UNL     1      42.184  -4.098  10.340  1.00  0.00     0.117 C 
HETATM   25  O   UNL     1      40.830  -5.872  11.153  1.00  0.00    -0.274 OA
HETATM   26  H   UNL     1      43.620  -5.992   9.685  1.00  0.00     0.169 HD
ENDBRANCH  17  22
ENDBRANCH  12  15
ENDBRANCH   1  11
BRANCH   8  27
HETATM   27  C   UNL     1      42.116 -12.072   2.436  1.00  0.00     0.409 C 
HETATM   28  F   UNL     1      42.319 -10.784   2.082  1.00  0.00    -0.169 F 
HETATM   29  F   UNL     1      41.752 -12.729   1.304  1.00  0.00    -0.169 F 
HETATM   30  F   UNL     1      41.050 -12.108   3.262  1.00  0.00    -0.169 F 
ENDBRANCH   8  27
BRANCH   6  31
HETATM   31  C   UNL     1      42.969 -16.528   3.100  1.00  0.00     0.075 A 
HETATM   32  O   UNL     1      43.662 -17.065   4.144  1.00  0.00    -0.325 OA
HETATM   33  C   UNL     1      43.967 -18.343   3.801  1.00  0.00     0.142 A 
HETATM   34  C   UNL     1      43.474 -18.639   2.552  1.00  0.00     0.027 A 
HETATM   35  C   UNL     1      42.829 -17.467   2.096  1.00  0.00     0.037 A 
ENDBRANCH   6  31
TORSDOF 5
ENDMDL
MODEL 4
REMARK VINA RESULT:      -8.7      4.402     10.495
REMARK  5 active torsions:
REMARK  status: ('A' for Active; 'I' for Inactive)
REMARK    1  A    between atoms: C_3  and  N_4 
REMARK       I    between atoms: N_4  and  C_5 
REMARK    2  A    between atoms: C_9  and  N_10 
REMARK       I    between atoms: N_10  and  C_11 
REMARK    3  A    between atoms: C_11  and  C_12 
REMARK    4  A    between atoms: C_17  and  C_18 
REMARK    5  A    between atoms: C_24  and  C_25 
ROOT
HETATM    1  C   UNL     1      44.017 -10.710   8.037  1.00  0.00     0.148 C 
HETATM    2  N   UNL     1      42.977  -9.886   7.758  1.00  0.00    -0.165 NA
HETATM    3  N   UNL     1      42.963  -9.050   8.811  1.00  0.00    -0.240 N 
HETATM    4  C   UNL     1      43.837  -9.386   9.805  1.00  0.00     0.123 C 
HETATM    5  N   UNL     1      43.817  -8.751  10.992  1.00  0.00    -0.364 N 
HETATM    6  C   UNL     1      42.710  -7.879  11.410  1.00  0.00     0.143 C 
HETATM    7  C   UNL     1      41.531  -7.934  10.410  1.00  0.00     0.068 C 
HETATM    8  C   UNL     1      41.994  -7.982   8.949  1.00  0.00     0.221 C 
HETATM    9  C   UNL     1      44.601 -10.402   9.298  1.00  0.00     0.089 C 
HETATM   10  H   UNL     1      44.485  -8.978  11.726  1.00  0.00     0.162 HD
ENDROOT
BRANCH   1  11
HETATM   11  C   UNL     1      44.408 -11.809   7.135  1.00  0.00     0.276 C 
HETATM   12  N   UNL     1      43.377 -12.710   6.948  1.00  0.00    -0.322 N 
HETATM   13  H   UNL     1      42.528 -12.460   7.450  1.00  0.00     0.169 HD
HETATM   14  O   UNL     1      45.540 -11.883   6.671  1.00  0.00    -0.266 OA
BRANCH  12  15
HETATM   15  C   UNL     1      43.394 -13.920   6.234  1.00  0.00     0.037 A 
HETATM   16  C   UNL     1      42.814 -14.089   4.976  1.00  0.00     0.059 A 
HETATM   17  C   UNL     1      42.884 -15.315   4.279  1.00  0.00     0.042 A 
HETATM   18  C   UNL     1      43.499 -16.416   4.899  1.00  0.00    -0.035 A 
HETATM   19  C   UNL     1      43.535 -17.810   4.341  1.00  0.00     0.050 C 
HETATM   20  C   UNL     1      44.098 -16.229   6.161  1.00  0.00     0.011 A 
HETATM   21  C   UNL     1      44.043 -15.001   6.822  1.00  0.00     0.030 A 
BRANCH  17  22
HETATM   22  N   UNL     1      42.256 -15.303   3.011  1.00  0.00    -0.327 N 
HETATM   23  C   UNL     1      40.962 -15.660   2.689  1.00  0.00     0.218 C 
HETATM   24  C   UNL     1      40.638 -15.406   1.236  1.00  0.00     0.117 C 
HETATM   25  O   UNL     1      40.117 -16.142   3.434  1.00  0.00    -0.274 OA
HETATM   26  H   UNL     1      42.891 -15.251   2.223  1.00  0.00     0.169 HD
ENDBRANCH  17  22
ENDBRANCH  12  15
ENDBRANCH   1  11
BRANCH   8  27
HETATM   27  C   UNL     1      42.591  -6.675   8.478  1.00  0.00     0.409 C 
HETATM   28  F   UNL     1      43.931  -6.635   8.642  1.00  0.00    -0.169 F 
HETATM   29  F   UNL     1      42.362  -6.522   7.147  1.00  0.00    -0.169 F 
HETATM   30  F   UNL     1      42.070  -5.589   9.085  1.00  0.00    -0.169 F 
ENDBRANCH   8  27
BRANCH   6  31
HETATM   31  C   UNL     1      42.198  -8.222  12.777  1.00  0.00     0.075 A 
HETATM   32  O   UNL     1      41.090  -9.015  12.840  1.00  0.00    -0.325 OA
HETATM   33  C   UNL     1      40.820  -9.211  14.157  1.00  0.00     0.142 A 
HETATM   34  C   UNL     1      41.742  -8.560  14.942  1.00  0.00     0.027 A 
HETATM   35  C   UNL     1      42.635  -7.919  14.052  1.00  0.00     0.037 A 
ENDBRANCH   6  31
TORSDOF 5
ENDMDL
MODEL 5
REMARK VINA RESULT:      -8.6      2.593      4.073
REMARK  5 active torsions:
REMARK  status: ('A' for Active; 'I' for Inactive)
REMARK    1  A    between atoms: C_3  and  N_4 
REMARK       I    between atoms: N_4  and  C_5 
REMARK    2  A    between atoms: C_9  and  N_10 
REMARK       I    between atoms: N_10  and  C_11 
REMARK    3  A    between atoms: C_11  and  C_12 
REMARK    4  A    between atoms: C_17  and  C_18 
REMARK    5  A    between atoms: C_24  and  C_25 
ROOT
HETATM    1  C   UNL     1      42.702 -13.273   4.452  1.00  0.00     0.148 C 
HETATM    2  N   UNL     1      42.792 -13.284   3.100  1.00  0.00    -0.165 NA
HETATM    3  N   UNL     1      42.355 -14.514   2.778  1.00  0.00    -0.240 N 
HETATM    4  C   UNL     1      42.135 -15.329   3.851  1.00  0.00     0.123 C 
HETATM    5  N   UNL     1      41.865 -16.638   3.685  1.00  0.00    -0.364 N 
HETATM    6  C   UNL     1      42.065 -17.337   2.409  1.00  0.00     0.143 C 
HETATM    7  C   UNL     1      42.773 -16.436   1.369  1.00  0.00     0.068 C 
HETATM    8  C   UNL     1      42.282 -14.985   1.410  1.00  0.00     0.221 C 
HETATM    9  C   UNL     1      42.260 -14.530   4.954  1.00  0.00     0.089 C 
HETATM   10  H   UNL     1      41.671 -17.244   4.481  1.00  0.00     0.162 HD
ENDROOT
BRANCH   1  11
HETATM   11  C   UNL     1      43.088 -12.097   5.253  1.00  0.00     0.276 C 
HETATM   12  N   UNL     1      43.716 -12.460   6.429  1.00  0.00    -0.322 N 
HETATM   13  H   UNL     1      43.815 -13.467   6.538  1.00  0.00     0.169 HD
HETATM   14  O   UNL     1      42.818 -10.958   4.887  1.00  0.00    -0.266 OA
BRANCH  12  15
HETATM   15  C   UNL     1      44.147 -11.633   7.480  1.00  0.00     0.037 A 
HETATM   16  C   UNL     1      43.419 -11.420   8.652  1.00  0.00     0.059 A 
HETATM   17  C   UNL     1      43.906 -10.607   9.697  1.00  0.00     0.042 A 
HETATM   18  C   UNL     1      45.129  -9.938   9.525  1.00  0.00    -0.035 A 
HETATM   19  C   UNL     1      45.710  -8.942  10.489  1.00  0.00     0.050 C 
HETATM   20  C   UNL     1      45.866 -10.174   8.347  1.00  0.00     0.011 A 
HETATM   21  C   UNL     1      45.380 -11.005   7.336  1.00  0.00     0.030 A 
BRANCH  17  22
HETATM   22  N   UNL     1      43.044 -10.515  10.816  1.00  0.00    -0.327 N 
HETATM   23  C   UNL     1      42.065  -9.577  11.074  1.00  0.00     0.218 C 
HETATM   24  C   UNL     1      41.287  -9.885  12.330  1.00  0.00     0.117 C 
HETATM   25  O   UNL     1      41.802  -8.578  10.415  1.00  0.00    -0.274 OA
HETATM   26  H   UNL     1      43.335 -11.057  11.621  1.00  0.00     0.169 HD
ENDBRANCH  17  22
ENDBRANCH  12  15
ENDBRANCH   1  11
BRANCH   8  27
HETATM   27  C   UNL     1      40.875 -14.826   0.880  1.00  0.00     0.409 C 
HETATM   28  F   UNL     1      40.228 -13.785   1.452  1.00  0.00    -0.169 F 
HETATM   29  F   UNL     1      40.914 -14.568  -0.453  1.00  0.00    -0.169 F 
HETATM   30  F   UNL     1      40.106 -15.923   1.038  1.00  0.00    -0.169 F 
ENDBRANCH   8  27
BRANCH   6  31
HETATM   31  C   UNL     1      42.856 -18.602   2.567  1.00  0.00     0.075 A 
HETATM   32  O   UNL     1      43.662 -18.692   3.663  1.00  0.00    -0.325 OA
HETATM   33  C   UNL     1      44.257 -19.913   3.615  1.00  0.00     0.142 A 
HETATM   34  C   UNL     1      43.841 -20.611   2.506  1.00  0.00     0.027 A 
HETATM   35  C   UNL     1      42.934 -19.765   1.826  1.00  0.00     0.037 A 
ENDBRANCH   6  31
TORSDOF 5
ENDMDL
MODEL 6
REMARK VINA RESULT:      -8.5      4.556      9.481
REMARK  5 active torsions:
REMARK  status: ('A' for Active; 'I' for Inactive)
REMARK    1  A    between atoms: C_3  and  N_4 
REMARK       I    between atoms: N_4  and  C_5 
REMARK    2  A    between atoms: C_9  and  N_10 
REMARK       I    between atoms: N_10  and  C_11 
REMARK    3  A    between atoms: C_11  and  C_12 
REMARK    4  A    between atoms: C_17  and  C_18 
REMARK    5  A    between atoms: C_24  and  C_25 
ROOT
HETATM    1  C   UNL     1      40.838 -13.701   1.983  1.00  0.00     0.148 C 
HETATM    2  N   UNL     1      40.634 -13.970   3.296  1.00  0.00    -0.165 NA
HETATM    3  N   UNL     1      41.665 -14.777   3.602  1.00  0.00    -0.240 N 
HETATM    4  C   UNL     1      42.421 -15.151   2.529  1.00  0.00     0.123 C 
HETATM    5  N   UNL     1      43.378 -16.092   2.648  1.00  0.00    -0.364 N 
HETATM    6  C   UNL     1      43.489 -16.971   3.820  1.00  0.00     0.143 C 
HETATM    7  C   UNL     1      42.291 -16.794   4.782  1.00  0.00     0.068 C 
HETATM    8  C   UNL     1      41.858 -15.331   4.927  1.00  0.00     0.221 C 
HETATM    9  C   UNL     1      41.971 -14.400   1.479  1.00  0.00     0.089 C 
HETATM   10  H   UNL     1      43.964 -16.353   1.857  1.00  0.00     0.162 HD
ENDROOT
BRANCH   1  11
HETATM   11  C   UNL     1      39.928 -12.835   1.211  1.00  0.00     0.276 C 
HETATM   12  N   UNL     1      40.319 -12.728  -0.110  1.00  0.00    -0.322 N 
HETATM   13  H   UNL     1      41.153 -13.268  -0.328  1.00  0.00     0.169 HD
HETATM   14  O   UNL     1      38.979 -12.270   1.743  1.00  0.00    -0.266 OA
BRANCH  12  15
HETATM   15  C   UNL     1      39.760 -11.931  -1.124  1.00  0.00     0.037 A 
HETATM   16  C   UNL     1      38.566 -12.232  -1.781  1.00  0.00     0.059 A 
HETATM   17  C   UNL     1      38.023 -11.385  -2.771  1.00  0.00     0.042 A 
HETATM   18  C   UNL     1      38.742 -10.239  -3.154  1.00  0.00    -0.035 A 
HETATM   19  C   UNL     1      38.359  -9.317  -4.277  1.00  0.00     0.050 C 
HETATM   20  C   UNL     1      39.936  -9.934  -2.471  1.00  0.00     0.011 A 
HETATM   21  C   UNL     1      40.441 -10.769  -1.474  1.00  0.00     0.030 A 
BRANCH  17  22
HETATM   22  N   UNL     1      36.800 -11.837  -3.321  1.00  0.00    -0.327 N 
HETATM   23  C   UNL     1      35.563 -11.225  -3.285  1.00  0.00     0.218 C 
HETATM   24  C   UNL     1      34.525 -11.978  -4.082  1.00  0.00     0.117 C 
HETATM   25  O   UNL     1      35.260 -10.197  -2.691  1.00  0.00    -0.274 OA
HETATM   26  H   UNL     1      36.781 -12.820  -3.561  1.00  0.00     0.169 HD
ENDBRANCH  17  22
ENDBRANCH  12  15
ENDBRANCH   1  11
BRANCH   8  27
HETATM   27  C   UNL     1      42.853 -14.496   5.699  1.00  0.00     0.409 C 
HETATM   28  F   UNL     1      43.451 -13.565   4.923  1.00  0.00    -0.169 F 
HETATM   29  F   UNL     1      42.212 -13.819   6.688  1.00  0.00    -0.169 F 
HETATM   30  F   UNL     1      43.824 -15.219   6.295  1.00  0.00    -0.169 F 
ENDBRANCH   8  27
BRANCH   6  31
HETATM   31  C   UNL     1      43.593 -18.418   3.441  1.00  0.00     0.075 A 
HETATM   32  O   UNL     1      43.981 -19.285   4.419  1.00  0.00    -0.325 OA
HETATM   33  C   UNL     1      43.987 -20.527   3.866  1.00  0.00     0.142 A 
HETATM   34  C   UNL     1      43.602 -20.470   2.547  1.00  0.00     0.027 A 
HETATM   35  C   UNL     1      43.348 -19.107   2.269  1.00  0.00     0.037 A 
ENDBRANCH   6  31
TORSDOF 5
ENDMDL
MODEL 7
REMARK VINA RESULT:      -8.5      4.556     10.474
REMARK  5 active torsions:
REMARK  status: ('A' for Active; 'I' for Inactive)
REMARK    1  A    between atoms: C_3  and  N_4 
REMARK       I    between atoms: N_4  and  C_5 
REMARK    2  A    between atoms: C_9  and  N_10 
REMARK       I    between atoms: N_10  and  C_11 
REMARK    3  A    between atoms: C_11  and  C_12 
REMARK    4  A    between atoms: C_17  and  C_18 
REMARK    5  A    between atoms: C_24  and  C_25 
ROOT
HETATM    1  C   UNL     1      43.422 -10.803   8.322  1.00  0.00     0.148 C 
HETATM    2  N   UNL     1      44.034 -10.824   9.532  1.00  0.00    -0.165 NA
HETATM    3  N   UNL     1      43.354  -9.899  10.231  1.00  0.00    -0.240 N 
HETATM    4  C   UNL     1      42.449  -9.192   9.492  1.00  0.00     0.123 C 
HETATM    5  N   UNL     1      41.819  -8.119  10.007  1.00  0.00    -0.364 N 
HETATM    6  C   UNL     1      42.247  -7.465  11.250  1.00  0.00     0.143 C 
HETATM    7  C   UNL     1      43.581  -8.048  11.772  1.00  0.00     0.068 C 
HETATM    8  C   UNL     1      43.668  -9.569  11.606  1.00  0.00     0.221 C 
HETATM    9  C   UNL     1      42.400  -9.813   8.274  1.00  0.00     0.089 C 
HETATM   10  H   UNL     1      41.122  -7.606   9.469  1.00  0.00     0.162 HD
ENDROOT
BRANCH   1  11
HETATM   11  C   UNL     1      43.850 -11.676   7.214  1.00  0.00     0.276 C 
HETATM   12  N   UNL     1      42.980 -12.735   7.031  1.00  0.00    -0.322 N 
HETATM   13  H   UNL     1      42.195 -12.727   7.678  1.00  0.00     0.169 HD
HETATM   14  O   UNL     1      44.884 -11.461   6.593  1.00  0.00    -0.266 OA
BRANCH  12  15
HETATM   15  C   UNL     1      43.096 -13.815   6.140  1.00  0.00     0.037 A 
HETATM   16  C   UNL     1      42.600 -13.805   4.836  1.00  0.00     0.059 A 
HETATM   17  C   UNL     1      42.768 -14.901   3.962  1.00  0.00     0.042 A 
HETATM   18  C   UNL     1      43.395 -16.063   4.443  1.00  0.00    -0.035 A 
HETATM   19  C   UNL     1      43.530 -17.349   3.678  1.00  0.00     0.050 C 
HETATM   20  C   UNL     1      43.910 -16.056   5.755  1.00  0.00     0.011 A 
HETATM   21  C   UNL     1      43.759 -14.951   6.594  1.00  0.00     0.030 A 
BRANCH  17  22
HETATM   22  N   UNL     1      42.215 -14.712   2.674  1.00  0.00    -0.327 N 
HETATM   23  C   UNL     1      40.992 -15.134   2.192  1.00  0.00     0.218 C 
HETATM   24  C   UNL     1      40.724 -14.642   0.790  1.00  0.00     0.117 C 
HETATM   25  O   UNL     1      40.170 -15.837   2.767  1.00  0.00    -0.274 OA
HETATM   26  H   UNL     1      42.883 -14.444   1.961  1.00  0.00     0.169 HD
ENDBRANCH  17  22
ENDBRANCH  12  15
ENDBRANCH   1  11
BRANCH   8  27
HETATM   27  C   UNL     1      42.748 -10.317  12.543  1.00  0.00     0.409 C 
HETATM   28  F   UNL     1      41.531 -10.537  11.998  1.00  0.00    -0.169 F 
HETATM   29  F   UNL     1      43.272 -11.540  12.819  1.00  0.00    -0.169 F 
HETATM   30  F   UNL     1      42.562  -9.703  13.729  1.00  0.00    -0.169 F 
ENDBRANCH   8  27
BRANCH   6  31
HETATM   31  C   UNL     1      42.399  -5.981  11.093  1.00  0.00     0.075 A 
HETATM   32  O   UNL     1      42.271  -5.224  12.220  1.00  0.00    -0.325 OA
HETATM   33  C   UNL     1      42.465  -3.931  11.851  1.00  0.00     0.142 A 
HETATM   34  C   UNL     1      42.722  -3.846  10.503  1.00  0.00     0.027 A 
HETATM   35  C   UNL     1      42.680  -5.171  10.010  1.00  0.00     0.037 A 
ENDBRANCH   6  31
TORSDOF 5
ENDMDL
MODEL 8
REMARK VINA RESULT:      -8.4      4.523      6.296
REMARK  5 active torsions:
REMARK  status: ('A' for Active; 'I' for Inactive)
REMARK    1  A    between atoms: C_3  and  N_4 
REMARK       I    between atoms: N_4  and  C_5 
REMARK    2  A    between atoms: C_9  and  N_10 
REMARK       I    between atoms: N_10  and  C_11 
REMARK    3  A    between atoms: C_11  and  C_12 
REMARK    4  A    between atoms: C_17  and  C_18 
REMARK    5  A    between atoms: C_24  and  C_25 
ROOT
HETATM    1  C   UNL     1      40.508 -13.418   1.294  1.00  0.00     0.148 C 
HETATM    2  N   UNL     1      39.427 -13.858   0.606  1.00  0.00    -0.165 NA
HETATM    3  N   UNL     1      39.589 -13.295  -0.604  1.00  0.00    -0.240 N 
HETATM    4  C   UNL     1      40.627 -12.411  -0.676  1.00  0.00     0.123 C 
HETATM    5  N   UNL     1      40.809 -11.640  -1.766  1.00  0.00    -0.364 N 
HETATM    6  C   UNL     1      39.784 -11.476  -2.805  1.00  0.00     0.143 C 
HETATM    7  C   UNL     1      38.449 -12.144  -2.400  1.00  0.00     0.068 C 
HETATM    8  C   UNL     1      38.648 -13.487  -1.689  1.00  0.00     0.221 C 
HETATM    9  C   UNL     1      41.301 -12.535   0.508  1.00  0.00     0.089 C 
HETATM   10  H   UNL     1      41.599 -11.000  -1.835  1.00  0.00     0.162 HD
ENDROOT
BRANCH   1  11
HETATM   11  C   UNL     1      40.746 -13.792   2.700  1.00  0.00     0.276 C 
HETATM   12  N   UNL     1      41.953 -14.447   2.860  1.00  0.00    -0.322 N 
HETATM   13  H   UNL     1      42.473 -14.549   1.991  1.00  0.00     0.169 HD
HETATM   14  O   UNL     1      39.917 -13.561   3.572  1.00  0.00    -0.266 OA
BRANCH  12  15
HETATM   15  C   UNL     1      42.484 -15.028   4.023  1.00  0.00     0.037 A 
HETATM   16  C   UNL     1      42.614 -16.404   4.217  1.00  0.00     0.059 A 
HETATM   17  C   UNL     1      43.185 -16.943   5.390  1.00  0.00     0.042 A 
HETATM   18  C   UNL     1      43.572 -16.071   6.421  1.00  0.00    -0.035 A 
HETATM   19  C   UNL     1      44.071 -16.501   7.772  1.00  0.00     0.050 C 
HETATM   20  C   UNL     1      43.455 -14.683   6.208  1.00  0.00     0.011 A 
HETATM   21  C   UNL     1      42.914 -14.168   5.030  1.00  0.00     0.030 A 
BRANCH  17  22
HETATM   22  N   UNL     1      43.252 -18.357   5.410  1.00  0.00    -0.327 N 
HETATM   23  C   UNL     1      44.161 -19.184   4.783  1.00  0.00     0.218 C 
HETATM   24  C   UNL     1      43.958 -20.638   5.137  1.00  0.00     0.117 C 
HETATM   25  O   UNL     1      45.050 -18.857   4.006  1.00  0.00    -0.274 OA
HETATM   26  H   UNL     1      42.406 -18.816   5.727  1.00  0.00     0.169 HD
ENDBRANCH  17  22
ENDBRANCH  12  15
ENDBRANCH   1  11
BRANCH   8  27
HETATM   27  C   UNL     1      39.139 -14.576  -2.616  1.00  0.00     0.409 C 
HETATM   28  F   UNL     1      38.782 -15.808  -2.191  1.00  0.00    -0.169 F 
HETATM   29  F   UNL     1      38.581 -14.416  -3.845  1.00  0.00    -0.169 F 
HETATM   30  F   UNL     1      40.475 -14.575  -2.797  1.00  0.00    -0.169 F 
ENDBRANCH   8  27
BRANCH   6  31
HETATM   31  C   UNL     1      39.523 -10.035  -3.128  1.00  0.00     0.075 A 
HETATM   32  O   UNL     1      40.061  -9.107  -2.287  1.00  0.00    -0.325 OA
HETATM   33  C   UNL     1      39.721  -7.886  -2.776  1.00  0.00     0.142 A 
HETATM   34  C   UNL     1      38.976  -8.016  -3.925  1.00  0.00     0.027 A 
HETATM   35  C   UNL     1      38.847  -9.406  -4.154  1.00  0.00     0.037 A 
ENDBRANCH   6  31
TORSDOF 5
ENDMDL
MODEL 9
REMARK VINA RESULT:      -8.4      2.929      4.366
REMARK  5 active torsions:
REMARK  status: ('A' for Active; 'I' for Inactive)
REMARK    1  A    between atoms: C_3  and  N_4 
REMARK       I    between atoms: N_4  and  C_5 
REMARK    2  A    between atoms: C_9  and  N_10 
REMARK       I    between atoms: N_10  and  C_11 
REMARK    3  A    between atoms: C_11  and  C_12 
REMARK    4  A    between atoms: C_17  and  C_18 
REMARK    5  A    between atoms: C_24  and  C_25 
ROOT
HETATM    1  C   UNL     1      42.113 -12.367   4.288  1.00  0.00     0.148 C 
HETATM    2  N   UNL     1      42.059 -12.517   2.942  1.00  0.00    -0.165 NA
HETATM    3  N   UNL     1      41.764 -13.821   2.794  1.00  0.00    -0.240 N 
HETATM    4  C   UNL     1      41.774 -14.532   3.959  1.00  0.00     0.123 C 
HETATM    5  N   UNL     1      41.671 -15.875   3.954  1.00  0.00    -0.364 N 
HETATM    6  C   UNL     1      41.829 -16.681   2.736  1.00  0.00     0.143 C 
HETATM    7  C   UNL     1      42.290 -15.819   1.537  1.00  0.00     0.068 C 
HETATM    8  C   UNL     1      41.610 -14.446   1.496  1.00  0.00     0.221 C 
HETATM    9  C   UNL     1      41.905 -13.606   4.957  1.00  0.00     0.089 C 
HETATM   10  H   UNL     1      41.649 -16.408   4.822  1.00  0.00     0.162 HD
ENDROOT
BRANCH   1  11
HETATM   11  C   UNL     1      42.416 -11.070   4.919  1.00  0.00     0.276 C 
HETATM   12  N   UNL     1      42.327 -11.136   6.297  1.00  0.00    -0.322 N 
HETATM   13  H   UNL     1      42.081 -12.062   6.639  1.00  0.00     0.169 HD
HETATM   14  O   UNL     1      42.668 -10.076   4.248  1.00  0.00    -0.266 OA
BRANCH  12  15
HETATM   15  C   UNL     1      42.459 -10.096   7.231  1.00  0.00     0.037 A 
HETATM   16  C   UNL     1      41.380  -9.459   7.846  1.00  0.00     0.059 A 
HETATM   17  C   UNL     1      41.559  -8.440   8.805  1.00  0.00     0.042 A 
HETATM   18  C   UNL     1      42.863  -8.007   9.100  1.00  0.00    -0.035 A 
HETATM   19  C   UNL     1      43.204  -6.850   9.997  1.00  0.00     0.050 C 
HETATM   20  C   UNL     1      43.947  -8.668   8.489  1.00  0.00     0.011 A 
HETATM   21  C   UNL     1      43.749  -9.694   7.564  1.00  0.00     0.030 A 
BRANCH  17  22
HETATM   22  N   UNL     1      40.356  -7.918   9.336  1.00  0.00    -0.327 N 
HETATM   23  C   UNL     1      39.677  -8.307  10.473  1.00  0.00     0.218 C 
HETATM   24  C   UNL     1      38.482  -7.430  10.760  1.00  0.00     0.117 C 
HETATM   25  O   UNL     1      39.942  -9.249  11.210  1.00  0.00    -0.274 OA
HETATM   26  H   UNL     1      39.815  -7.359   8.688  1.00  0.00     0.169 HD
ENDBRANCH  17  22
ENDBRANCH  12  15
ENDBRANCH   1  11
BRANCH   8  27
HETATM   27  C   UNL     1      40.146 -14.525   1.128  1.00  0.00     0.409 C 
HETATM   28  F   UNL     1      39.822 -15.713   0.572  1.00  0.00    -0.169 F 
HETATM   29  F   UNL     1      39.386 -14.404   2.248  1.00  0.00    -0.169 F 
HETATM   30  F   UNL     1      39.745 -13.553   0.284  1.00  0.00    -0.169 F 
ENDBRANCH   8  27
BRANCH   6  31
HETATM   31  C   UNL     1      42.798 -17.810   2.918  1.00  0.00     0.075 A 
HETATM   32  O   UNL     1      43.591 -17.769   4.027  1.00  0.00    -0.325 OA
HETATM   33  C   UNL     1      44.365 -18.886   4.000  1.00  0.00     0.142 A 
HETATM   34  C   UNL     1      44.076 -19.648   2.892  1.00  0.00     0.027 A 
HETATM   35  C   UNL     1      43.063 -18.954   2.191  1.00  0.00     0.037 A 
ENDBRANCH   6  31
TORSDOF 5
ENDMDL
MODEL 10
REMARK VINA RESULT:      -8.3      4.553      9.188
REMARK  5 active torsions:
REMARK  status: ('A' for Active; 'I' for Inactive)
REMARK    1  A    between atoms: C_3  and  N_4 
REMARK       I    between atoms: N_4  and  C_5 
REMARK    2  A    between atoms: C_9  and  N_10 
REMARK       I    between atoms: N_10  and  C_11 
REMARK    3  A    between atoms: C_11  and  C_12 
REMARK    4  A    between atoms: C_17  and  C_18 
REMARK    5  A    between atoms: C_24  and  C_25 
ROOT
HETATM    1  C   UNL     1      41.015 -13.571   1.976  1.00  0.00     0.148 C 
HETATM    2  N   UNL     1      40.754 -13.860   3.275  1.00  0.00    -0.165 NA
HETATM    3  N   UNL     1      41.746 -14.705   3.602  1.00  0.00    -0.240 N 
HETATM    4  C   UNL     1      42.531 -15.081   2.550  1.00  0.00     0.123 C 
HETATM    5  N   UNL     1      43.453 -16.054   2.684  1.00  0.00    -0.364 N 
HETATM    6  C   UNL     1      43.493 -16.960   3.840  1.00  0.00     0.143 C 
HETATM    7  C   UNL     1      42.265 -16.765   4.760  1.00  0.00     0.068 C 
HETATM    8  C   UNL     1      41.872 -15.293   4.921  1.00  0.00     0.221 C 
HETATM    9  C   UNL     1      42.145 -14.295   1.500  1.00  0.00     0.089 C 
HETATM   10  H   UNL     1      44.061 -16.318   1.911  1.00  0.00     0.162 HD
ENDROOT
BRANCH   1  11
HETATM   11  C   UNL     1      40.162 -12.660   1.190  1.00  0.00     0.276 C 
HETATM   12  N   UNL     1      40.522 -12.645  -0.144  1.00  0.00    -0.322 N 
HETATM   13  H   UNL     1      41.299 -13.266  -0.358  1.00  0.00     0.169 HD
HETATM   14  O   UNL     1      39.283 -11.992   1.721  1.00  0.00    -0.266 OA
BRANCH  12  15
HETATM   15  C   UNL     1      40.006 -11.846  -1.178  1.00  0.00     0.037 A 
HETATM   16  C   UNL     1      40.762 -10.920  -1.898  1.00  0.00     0.059 A 
HETATM   17  C   UNL     1      40.210 -10.162  -2.953  1.00  0.00     0.042 A 
HETATM   18  C   UNL     1      38.841 -10.294  -3.241  1.00  0.00    -0.035 A 
HETATM   19  C   UNL     1      38.087  -9.464  -4.241  1.00  0.00     0.050 C 
HETATM   20  C   UNL     1      38.091 -11.245  -2.521  1.00  0.00     0.011 A 
HETATM   21  C   UNL     1      38.662 -12.007  -1.501  1.00  0.00     0.030 A 
BRANCH  17  22
HETATM   22  N   UNL     1      41.124  -9.284  -3.583  1.00  0.00    -0.327 N 
HETATM   23  C   UNL     1      41.356  -7.949  -3.320  1.00  0.00     0.218 C 
HETATM   24  C   UNL     1      42.491  -7.388  -4.141  1.00  0.00     0.117 C 
HETATM   25  O   UNL     1      40.748  -7.231  -2.535  1.00  0.00    -0.274 OA
HETATM   26  H   UNL     1      41.477  -9.609  -4.475  1.00  0.00     0.169 HD
ENDBRANCH  17  22
ENDBRANCH  12  15
ENDBRANCH   1  11
BRANCH   8  27
HETATM   27  C   UNL     1      42.862 -14.505   5.748  1.00  0.00     0.409 C 
HETATM   28  F   UNL     1      43.471 -13.535   5.030  1.00  0.00    -0.169 F 
HETATM   29  F   UNL     1      42.214 -13.882   6.766  1.00  0.00    -0.169 F 
HETATM   30  F   UNL     1      43.825 -15.264   6.311  1.00  0.00    -0.169 F 
ENDBRANCH   8  27
BRANCH   6  31
HETATM   31  C   UNL     1      43.566 -18.402   3.434  1.00  0.00     0.075 A 
HETATM   32  O   UNL     1      43.951 -19.293   4.391  1.00  0.00    -0.325 OA
HETATM   33  C   UNL     1      43.928 -20.524   3.816  1.00  0.00     0.142 A 
HETATM   34  C   UNL     1      43.527 -20.437   2.503  1.00  0.00     0.027 A 
HETATM   35  C   UNL     1      43.294 -19.065   2.254  1.00  0.00     0.037 A 
ENDBRANCH   6  31
TORSDOF 5
ENDMDL
