MODEL 1
REMARK VINA RESULT:      -9.5      0.000      0.000
REMARK  5 active torsions:
REMARK  status: ('A' for Active; 'I' for Inactive)
REMARK    1  A    between atoms: C_5  and  C_6 
REMARK    2  A    between atoms: C_6  and  O_7 
REMARK    3  A    between atoms: O_7  and  C_8 
REMARK    4  A    between atoms: C_12  and  C_13 
REMARK    5  A    between atoms: C_30  and  O_31 
ROOT
HETATM    1  C   UNL     1      42.740 -12.081   5.683  1.00  0.00     0.130 A 
HETATM    2  C   UNL     1      42.559 -10.696   5.766  1.00  0.00     0.048 A 
HETATM    3 BR   UNL     1      41.436  -9.744   4.564  1.00  0.00    -0.048 Br
HETATM    4  C   UNL     1      43.259  -9.951   6.718  1.00  0.00     0.033 A 
HETATM    5  C   UNL     1      44.191 -10.559   7.576  1.00  0.00    -0.012 A 
HETATM    6  C   UNL     1      44.345 -11.956   7.484  1.00  0.00     0.050 A 
HETATM    7  C   UNL     1      43.654 -12.716   6.529  1.00  0.00     0.104 A 
ENDROOT
BRANCH   5   8
HETATM    8  C   UNL     1      45.087  -9.770   8.531  1.00  0.00     0.219 C 
HETATM    9  N   UNL     1      44.734  -8.367   8.515  1.00  0.00    -0.332 N 
HETATM   10  C   UNL     1      43.651  -7.882   9.202  1.00  0.00     0.256 C 
HETATM   11  H   UNL     1      44.998  -7.818   7.711  1.00  0.00     0.165 HD
HETATM   12  O   UNL     1      43.118  -6.816   8.914  1.00  0.00    -0.267 OA
HETATM   13  C   UNL     1      43.200  -8.716  10.304  1.00  0.00     0.073 A 
HETATM   14  C   UNL     1      43.946  -9.823  10.640  1.00  0.00     0.088 A 
HETATM   15  C   UNL     1      42.031  -8.599  11.117  1.00  0.00    -0.023 A 
HETATM   16  S   UNL     1      43.322 -10.652  11.985  1.00  0.00    -0.074 SA
HETATM   17  N   UNL     1      45.019 -10.222   9.915  1.00  0.00    -0.358 N 
HETATM   18  C   UNL     1      41.974  -9.612  12.059  1.00  0.00     0.018 A 
HETATM   19  C   UNL     1      40.851  -9.838  13.010  1.00  0.00     0.281 C 
HETATM   20  N   UNL     1      39.914  -8.636  13.072  1.00  0.00    -0.070 N 
HETATM   21  C   UNL     1      39.655  -8.044  11.687  1.00  0.00     0.239 C 
HETATM   22  H   UNL     1      39.012  -9.000  13.406  1.00  0.00     0.279 HD
HETATM   23  C   UNL     1      40.352  -7.617  14.081  1.00  0.00     0.270 C 
HETATM   24  C   UNL     1      40.950  -7.567  11.007  1.00  0.00     0.068 C 
HETATM   25  H   UNL     1      45.417 -11.143  10.075  1.00  0.00     0.162 HD
ENDBRANCH   5   8
BRANCH   7  26
HETATM   26  O   UNL     1      43.947 -14.051   6.555  1.00  0.00    -0.353 OA
HETATM   27  C   UNL     1      43.147 -14.844   7.425  1.00  0.00     0.210 C 
ENDBRANCH   7  26
BRANCH   1  28
HETATM   28  O   UNL     1      42.050 -12.806   4.709  1.00  0.00    -0.271 OA
BRANCH  28  29
HETATM   29  C   UNL     1      42.794 -13.005   3.560  1.00  0.00     0.298 C 
HETATM   30  O   UNL     1      43.465 -12.177   2.965  1.00  0.00    -0.259 OA
BRANCH  29  31
HETATM   31  C   UNL     1      42.755 -14.450   3.212  1.00  0.00     0.040 A 
HETATM   32  C   UNL     1      43.367 -14.856   2.020  1.00  0.00     0.018 A 
HETATM   33  C   UNL     1      43.421 -16.211   1.683  1.00  0.00     0.007 A 
HETATM   34  C   UNL     1      42.866 -17.175   2.531  1.00  0.00    -0.062 A 
HETATM   35  C   UNL     1      42.910 -18.630   2.167  1.00  0.00     0.048 C 
HETATM   36  C   UNL     1      42.223 -16.764   3.706  1.00  0.00     0.007 A 
HETATM   37  C   UNL     1      42.170 -15.410   4.048  1.00  0.00     0.018 A 
ENDBRANCH  29  31
ENDBRANCH  28  29
ENDBRANCH   1  28
TORSDOF 5
ENDMDL
MODEL 2
REMARK VINA RESULT:      -9.3      1.910      2.456
REMARK  5 active torsions:
REMARK  status: ('A' for Active; 'I' for Inactive)
REMARK    1  A    between atoms: C_5  and  C_6 
REMARK    2  A    between atoms: C_6  and  O_7 
REMARK    3  A    between atoms: O_7  and  C_8 
REMARK    4  A    between atoms: C_12  and  C_13 
REMARK    5  A    between atoms: C_30  and  O_31 
ROOT
HETATM    1  C   UNL     1      42.444 -12.652   5.813  1.00  0.00     0.130 A 
HETATM    2  C   UNL     1      41.181 -12.087   5.601  1.00  0.00     0.048 A 
HETATM    3 BR   UNL     1      39.783 -13.026   4.721  1.00  0.00    -0.048 Br
HETATM    4  C   UNL     1      40.927 -10.768   5.986  1.00  0.00     0.033 A 
HETATM    5  C   UNL     1      41.936  -9.966   6.546  1.00  0.00    -0.012 A 
HETATM    6  C   UNL     1      43.194 -10.562   6.763  1.00  0.00     0.050 A 
HETATM    7  C   UNL     1      43.466 -11.882   6.376  1.00  0.00     0.104 A 
ENDROOT
BRANCH   5   8
HETATM    8  C   UNL     1      41.751  -8.479   6.847  1.00  0.00     0.219 C 
HETATM    9  N   UNL     1      40.395  -8.213   7.273  1.00  0.00    -0.332 N 
HETATM   10  C   UNL     1      39.968  -8.478   8.549  1.00  0.00     0.256 C 
HETATM   11  H   UNL     1      39.664  -8.229   6.578  1.00  0.00     0.165 HD
HETATM   12  O   UNL     1      38.782  -8.623   8.826  1.00  0.00    -0.267 OA
HETATM   13  C   UNL     1      41.025  -8.555   9.545  1.00  0.00     0.073 A 
HETATM   14  C   UNL     1      42.310  -8.240   9.166  1.00  0.00     0.088 A 
HETATM   15  C   UNL     1      40.960  -8.960  10.914  1.00  0.00    -0.023 A 
HETATM   16  S   UNL     1      43.412  -8.317  10.458  1.00  0.00    -0.074 SA
HETATM   17  N   UNL     1      42.643  -7.970   7.881  1.00  0.00    -0.358 N 
HETATM   18  C   UNL     1      42.206  -8.894  11.513  1.00  0.00     0.018 A 
HETATM   19  C   UNL     1      42.512  -9.323  12.906  1.00  0.00     0.281 C 
HETATM   20  N   UNL     1      41.242  -9.535  13.723  1.00  0.00    -0.070 N 
HETATM   21  C   UNL     1      40.153 -10.236  12.913  1.00  0.00     0.239 C 
HETATM   22  H   UNL     1      41.499 -10.177  14.483  1.00  0.00     0.279 HD
HETATM   23  C   UNL     1      40.769  -8.274  14.386  1.00  0.00     0.270 C 
HETATM   24  C   UNL     1      39.752  -9.436  11.662  1.00  0.00     0.068 C 
HETATM   25  H   UNL     1      43.622  -7.940   7.613  1.00  0.00     0.162 HD
ENDBRANCH   5   8
BRANCH   7  26
HETATM   26  O   UNL     1      44.746 -12.288   6.628  1.00  0.00    -0.353 OA
HETATM   27  C   UNL     1      45.694 -11.249   6.848  1.00  0.00     0.210 C 
ENDBRANCH   7  26
BRANCH   1  28
HETATM   28  O   UNL     1      42.687 -13.963   5.400  1.00  0.00    -0.271 OA
BRANCH  28  29
HETATM   29  C   UNL     1      43.006 -14.053   4.057  1.00  0.00     0.298 C 
HETATM   30  O   UNL     1      43.274 -13.133   3.301  1.00  0.00    -0.259 OA
BRANCH  29  31
HETATM   31  C   UNL     1      43.098 -15.490   3.684  1.00  0.00     0.040 A 
HETATM   32  C   UNL     1      42.880 -15.836   2.345  1.00  0.00     0.018 A 
HETATM   33  C   UNL     1      43.025 -17.162   1.929  1.00  0.00     0.007 A 
HETATM   34  C   UNL     1      43.391 -18.156   2.844  1.00  0.00    -0.062 A 
HETATM   35  C   UNL     1      43.535 -19.583   2.405  1.00  0.00     0.048 C 
HETATM   36  C   UNL     1      43.574 -17.813   4.189  1.00  0.00     0.007 A 
HETATM   37  C   UNL     1      43.433 -16.487   4.609  1.00  0.00     0.018 A 
ENDBRANCH  29  31
ENDBRANCH  28  29
ENDBRANCH   1  28
TORSDOF 5
ENDMDL
MODEL 3
REMARK VINA RESULT:      -9.1      2.454      3.282
REMARK  5 active torsions:
REMARK  status: ('A' for Active; 'I' for Inactive)
REMARK    1  A    between atoms: C_5  and  C_6 
REMARK    2  A    between atoms: C_6  and  O_7 
REMARK    3  A    between atoms: O_7  and  C_8 
REMARK    4  A    between atoms: C_12  and  C_13 
REMARK    5  A    between atoms: C_30  and  O_31 
ROOT
HETATM    1  C   UNL     1      41.963 -12.659   5.403  1.00  0.00     0.130 A 
HETATM    2  C   UNL     1      42.811 -11.736   6.025  1.00  0.00     0.048 A 
HETATM    3 BR   UNL     1      44.554 -12.200   6.627  1.00  0.00    -0.048 Br
HETATM    4  C   UNL     1      42.369 -10.435   6.278  1.00  0.00     0.033 A 
HETATM    5  C   UNL     1      41.059 -10.037   5.965  1.00  0.00    -0.012 A 
HETATM    6  C   UNL     1      40.229 -10.980   5.326  1.00  0.00     0.050 A 
HETATM    7  C   UNL     1      40.657 -12.291   5.071  1.00  0.00     0.104 A 
ENDROOT
BRANCH   5   8
HETATM    8  C   UNL     1      40.482  -8.677   6.354  1.00  0.00     0.219 C 
HETATM    9  N   UNL     1      39.369  -8.840   7.264  1.00  0.00    -0.332 N 
HETATM   10  C   UNL     1      39.552  -9.093   8.599  1.00  0.00     0.256 C 
HETATM   11  H   UNL     1      38.494  -9.177   6.893  1.00  0.00     0.165 HD
HETATM   12  O   UNL     1      38.679  -9.598   9.295  1.00  0.00    -0.267 OA
HETATM   13  C   UNL     1      40.850  -8.701   9.126  1.00  0.00     0.073 A 
HETATM   14  C   UNL     1      41.713  -8.014   8.302  1.00  0.00     0.088 A 
HETATM   15  C   UNL     1      41.429  -8.953  10.407  1.00  0.00    -0.023 A 
HETATM   16  S   UNL     1      43.156  -7.574   9.085  1.00  0.00    -0.074 SA
HETATM   17  N   UNL     1      41.444  -7.788   6.994  1.00  0.00    -0.358 N 
HETATM   18  C   UNL     1      42.697  -8.406  10.499  1.00  0.00     0.018 A 
HETATM   19  C   UNL     1      43.613  -8.554  11.663  1.00  0.00     0.281 C 
HETATM   20  N   UNL     1      42.884  -9.091  12.890  1.00  0.00    -0.070 N 
HETATM   21  C   UNL     1      41.901 -10.202  12.527  1.00  0.00     0.239 C 
HETATM   22  H   UNL     1      43.606  -9.523  13.480  1.00  0.00     0.279 HD
HETATM   23  C   UNL     1      42.269  -8.000  13.717  1.00  0.00     0.270 C 
HETATM   24  C   UNL     1      40.822  -9.725  11.539  1.00  0.00     0.068 C 
HETATM   25  H   UNL     1      42.183  -7.458   6.380  1.00  0.00     0.162 HD
ENDBRANCH   5   8
BRANCH   7  26
HETATM   26  O   UNL     1      39.714 -13.083   4.477  1.00  0.00    -0.353 OA
HETATM   27  C   UNL     1      39.437 -12.798   3.111  1.00  0.00     0.210 C 
ENDBRANCH   7  26
BRANCH   1  28
HETATM   28  O   UNL     1      42.415 -13.962   5.179  1.00  0.00    -0.271 OA
BRANCH  28  29
HETATM   29  C   UNL     1      42.913 -14.145   3.903  1.00  0.00     0.298 C 
HETATM   30  O   UNL     1      43.254 -13.279   3.113  1.00  0.00    -0.259 OA
BRANCH  29  31
HETATM   31  C   UNL     1      43.096 -15.603   3.667  1.00  0.00     0.040 A 
HETATM   32  C   UNL     1      42.810 -16.103   2.391  1.00  0.00     0.018 A 
HETATM   33  C   UNL     1      43.033 -17.451   2.099  1.00  0.00     0.007 A 
HETATM   34  C   UNL     1      43.546 -18.313   3.075  1.00  0.00    -0.062 A 
HETATM   35  C   UNL     1      43.775 -19.764   2.768  1.00  0.00     0.048 C 
HETATM   36  C   UNL     1      43.798 -17.818   4.360  1.00  0.00     0.007 A 
HETATM   37  C   UNL     1      43.579 -16.470   4.656  1.00  0.00     0.018 A 
ENDBRANCH  29  31
ENDBRANCH  28  29
ENDBRANCH   1  28
TORSDOF 5
ENDMDL
MODEL 4
REMARK VINA RESULT:      -8.7      5.760      8.840
REMARK  5 active torsions:
REMARK  status: ('A' for Active; 'I' for Inactive)
REMARK    1  A    between atoms: C_5  and  C_6 
REMARK    2  A    between atoms: C_6  and  O_7 
REMARK    3  A    between atoms: O_7  and  C_8 
REMARK    4  A    between atoms: C_12  and  C_13 
REMARK    5  A    between atoms: C_30  and  O_31 
ROOT
HETATM    1  C   UNL     1      42.154 -13.467   3.171  1.00  0.00     0.130 A 
HETATM    2  C   UNL     1      40.783 -13.643   2.952  1.00  0.00     0.048 A 
HETATM    3 BR   UNL     1      40.046 -15.310   2.412  1.00  0.00    -0.048 Br
HETATM    4  C   UNL     1      39.907 -12.561   3.071  1.00  0.00     0.033 A 
HETATM    5  C   UNL     1      40.380 -11.270   3.361  1.00  0.00    -0.012 A 
HETATM    6  C   UNL     1      41.762 -11.121   3.591  1.00  0.00     0.050 A 
HETATM    7  C   UNL     1      42.654 -12.197   3.470  1.00  0.00     0.104 A 
ENDROOT
BRANCH   5   8
HETATM    8  C   UNL     1      39.485 -10.031   3.356  1.00  0.00     0.219 C 
HETATM    9  N   UNL     1      40.111  -8.957   2.617  1.00  0.00    -0.332 N 
HETATM   10  C   UNL     1      40.100  -8.914   1.246  1.00  0.00     0.256 C 
HETATM   11  H   UNL     1      40.888  -8.473   3.042  1.00  0.00     0.165 HD
HETATM   12  O   UNL     1      40.914  -8.258   0.606  1.00  0.00    -0.267 OA
HETATM   13  C   UNL     1      39.042  -9.688   0.617  1.00  0.00     0.073 A 
HETATM   14  C   UNL     1      38.092 -10.278   1.420  1.00  0.00     0.088 A 
HETATM   15  C   UNL     1      38.831  -9.991  -0.763  1.00  0.00    -0.023 A 
HETATM   16  S   UNL     1      36.894 -11.090   0.530  1.00  0.00    -0.074 SA
HETATM   17  N   UNL     1      38.169 -10.255   2.772  1.00  0.00    -0.358 N 
HETATM   18  C   UNL     1      37.700 -10.769  -0.936  1.00  0.00     0.018 A 
HETATM   19  C   UNL     1      37.236 -11.332  -2.234  1.00  0.00     0.281 C 
HETATM   20  N   UNL     1      37.950 -10.686  -3.417  1.00  0.00    -0.070 N 
HETATM   21  C   UNL     1      39.439 -10.486  -3.143  1.00  0.00     0.239 C 
HETATM   22  H   UNL     1      37.884 -11.362  -4.189  1.00  0.00     0.279 HD
HETATM   23  C   UNL     1      37.261  -9.441  -3.894  1.00  0.00     0.270 C 
HETATM   24  C   UNL     1      39.690  -9.584  -1.922  1.00  0.00     0.068 C 
HETATM   25  H   UNL     1      37.566 -10.864   3.318  1.00  0.00     0.162 HD
ENDBRANCH   5   8
BRANCH   7  26
HETATM   26  O   UNL     1      43.962 -11.868   3.693  1.00  0.00    -0.353 OA
HETATM   27  C   UNL     1      44.306 -11.578   5.044  1.00  0.00     0.210 C 
ENDBRANCH   7  26
BRANCH   1  28
HETATM   28  O   UNL     1      43.017 -14.555   3.025  1.00  0.00    -0.271 OA
BRANCH  28  29
HETATM   29  C   UNL     1      43.133 -15.307   4.180  1.00  0.00     0.298 C 
HETATM   30  O   UNL     1      42.967 -14.926   5.327  1.00  0.00    -0.259 OA
BRANCH  29  31
HETATM   31  C   UNL     1      43.376 -16.725   3.802  1.00  0.00     0.040 A 
HETATM   32  C   UNL     1      43.937 -17.575   4.764  1.00  0.00     0.018 A 
HETATM   33  C   UNL     1      44.120 -18.931   4.483  1.00  0.00     0.007 A 
HETATM   34  C   UNL     1      43.744 -19.455   3.241  1.00  0.00    -0.062 A 
HETATM   35  C   UNL     1      43.950 -20.908   2.931  1.00  0.00     0.048 C 
HETATM   36  C   UNL     1      43.215 -18.597   2.269  1.00  0.00     0.007 A 
HETATM   37  C   UNL     1      43.028 -17.240   2.546  1.00  0.00     0.018 A 
ENDBRANCH  29  31
ENDBRANCH  28  29
ENDBRANCH   1  28
TORSDOF 5
ENDMDL
MODEL 5
REMARK VINA RESULT:      -8.3      2.864      4.077
REMARK  5 active torsions:
REMARK  status: ('A' for Active; 'I' for Inactive)
REMARK    1  A    between atoms: C_5  and  C_6 
REMARK    2  A    between atoms: C_6  and  O_7 
REMARK    3  A    between atoms: O_7  and  C_8 
REMARK    4  A    between atoms: C_12  and  C_13 
REMARK    5  A    between atoms: C_30  and  O_31 
ROOT
HETATM    1  C   UNL     1      42.151 -13.287   4.273  1.00  0.00     0.130 A 
HETATM    2  C   UNL     1      42.839 -12.379   5.085  1.00  0.00     0.048 A 
HETATM    3 BR   UNL     1      44.177 -12.930   6.318  1.00  0.00    -0.048 Br
HETATM    4  C   UNL     1      42.514 -11.021   5.054  1.00  0.00     0.033 A 
HETATM    5  C   UNL     1      41.465 -10.542   4.251  1.00  0.00    -0.012 A 
HETATM    6  C   UNL     1      40.797 -11.473   3.431  1.00  0.00     0.050 A 
HETATM    7  C   UNL     1      41.109 -12.840   3.457  1.00  0.00     0.104 A 
ENDROOT
BRANCH   5   8
HETATM    8  C   UNL     1      40.975  -9.094   4.291  1.00  0.00     0.219 C 
HETATM    9  N   UNL     1      39.580  -9.042   4.671  1.00  0.00    -0.332 N 
HETATM   10  C   UNL     1      39.176  -9.167   5.975  1.00  0.00     0.256 C 
HETATM   11  H   UNL     1      38.890  -9.325   3.991  1.00  0.00     0.165 HD
HETATM   12  O   UNL     1      38.035  -9.501   6.277  1.00  0.00    -0.267 OA
HETATM   13  C   UNL     1      40.194  -8.856   6.965  1.00  0.00     0.073 A 
HETATM   14  C   UNL     1      41.401  -8.356   6.532  1.00  0.00     0.088 A 
HETATM   15  C   UNL     1      40.170  -9.028   8.383  1.00  0.00    -0.023 A 
HETATM   16  S   UNL     1      42.456  -7.986   7.813  1.00  0.00    -0.074 SA
HETATM   17  N   UNL     1      41.713  -8.246   5.218  1.00  0.00    -0.358 N 
HETATM   18  C   UNL     1      41.358  -8.608   8.957  1.00  0.00     0.018 A 
HETATM   19  C   UNL     1      41.700  -8.723  10.402  1.00  0.00     0.281 C 
HETATM   20  N   UNL     1      40.473  -9.046  11.249  1.00  0.00    -0.070 N 
HETATM   21  C   UNL     1      39.574 -10.082  10.577  1.00  0.00     0.239 C 
HETATM   22  H   UNL     1      40.831  -9.485  12.107  1.00  0.00     0.279 HD
HETATM   23  C   UNL     1      39.736  -7.815  11.686  1.00  0.00     0.270 C 
HETATM   24  C   UNL     1      39.060  -9.606   9.208  1.00  0.00     0.068 C 
HETATM   25  H   UNL     1      42.674  -8.063   4.945  1.00  0.00     0.162 HD
ENDBRANCH   5   8
BRANCH   7  26
HETATM   26  O   UNL     1      40.340 -13.605   2.625  1.00  0.00    -0.353 OA
HETATM   27  C   UNL     1      39.809 -12.939   1.484  1.00  0.00     0.210 C 
ENDBRANCH   7  26
BRANCH   1  28
HETATM   28  O   UNL     1      42.473 -14.644   4.335  1.00  0.00    -0.271 OA
BRANCH  28  29
HETATM   29  C   UNL     1      43.142 -15.089   3.210  1.00  0.00     0.298 C 
HETATM   30  O   UNL     1      43.563 -14.411   2.286  1.00  0.00    -0.259 OA
BRANCH  29  31
HETATM   31  C   UNL     1      43.392 -16.549   3.350  1.00  0.00     0.040 A 
HETATM   32  C   UNL     1      43.780 -17.032   4.605  1.00  0.00     0.018 A 
HETATM   33  C   UNL     1      43.958 -18.403   4.807  1.00  0.00     0.007 A 
HETATM   34  C   UNL     1      43.748 -19.307   3.759  1.00  0.00    -0.062 A 
HETATM   35  C   UNL     1      43.950 -20.779   3.968  1.00  0.00     0.048 C 
HETATM   36  C   UNL     1      43.394 -18.818   2.495  1.00  0.00     0.007 A 
HETATM   37  C   UNL     1      43.213 -17.448   2.290  1.00  0.00     0.018 A 
ENDBRANCH  29  31
ENDBRANCH  28  29
ENDBRANCH   1  28
TORSDOF 5
ENDMDL
MODEL 6
REMARK VINA RESULT:      -8.3      3.172      8.875
REMARK  5 active torsions:
REMARK  status: ('A' for Active; 'I' for Inactive)
REMARK    1  A    between atoms: C_5  and  C_6 
REMARK    2  A    between atoms: C_6  and  O_7 
REMARK    3  A    between atoms: O_7  and  C_8 
REMARK    4  A    between atoms: C_12  and  C_13 
REMARK    5  A    between atoms: C_30  and  O_31 
ROOT
HETATM    1  C   UNL     1      43.497  -9.003   8.935  1.00  0.00     0.130 A 
HETATM    2  C   UNL     1      42.556  -7.995   8.696  1.00  0.00     0.048 A 
HETATM    3 BR   UNL     1      42.122  -6.680   9.999  1.00  0.00    -0.048 Br
HETATM    4  C   UNL     1      41.852  -7.962   7.490  1.00  0.00     0.033 A 
HETATM    5  C   UNL     1      42.032  -8.957   6.515  1.00  0.00    -0.012 A 
HETATM    6  C   UNL     1      42.995  -9.952   6.772  1.00  0.00     0.050 A 
HETATM    7  C   UNL     1      43.705 -10.001   7.981  1.00  0.00     0.104 A 
ENDROOT
BRANCH   5   8
HETATM    8  C   UNL     1      41.183  -9.049   5.247  1.00  0.00     0.219 C 
HETATM    9  N   UNL     1      42.005  -9.404   4.111  1.00  0.00    -0.332 N 
HETATM   10  C   UNL     1      42.408 -10.694   3.880  1.00  0.00     0.256 C 
HETATM   11  H   UNL     1      42.619  -8.701   3.728  1.00  0.00     0.165 HD
HETATM   12  O   UNL     1      43.379 -10.961   3.180  1.00  0.00    -0.267 OA
HETATM   13  C   UNL     1      41.588 -11.715   4.511  1.00  0.00     0.073 A 
HETATM   14  C   UNL     1      40.438 -11.327   5.161  1.00  0.00     0.088 A 
HETATM   15  C   UNL     1      41.801 -13.125   4.610  1.00  0.00    -0.023 A 
HETATM   16  S   UNL     1      39.562 -12.641   5.787  1.00  0.00    -0.074 SA
HETATM   17  N   UNL     1      40.104 -10.024   5.328  1.00  0.00    -0.358 N 
HETATM   18  C   UNL     1      40.773 -13.738   5.305  1.00  0.00     0.018 A 
HETATM   19  C   UNL     1      40.721 -15.182   5.662  1.00  0.00     0.281 C 
HETATM   20  N   UNL     1      41.760 -15.992   4.892  1.00  0.00    -0.070 N 
HETATM   21  C   UNL     1      43.098 -15.260   4.800  1.00  0.00     0.239 C 
HETATM   22  H   UNL     1      41.928 -16.837   5.452  1.00  0.00     0.279 HD
HETATM   23  C   UNL     1      41.250 -16.466   3.563  1.00  0.00     0.270 C 
HETATM   24  C   UNL     1      42.971 -13.903   4.088  1.00  0.00     0.068 C 
HETATM   25  H   UNL     1      39.362  -9.777   5.977  1.00  0.00     0.162 HD
ENDBRANCH   5   8
BRANCH   7  26
HETATM   26  O   UNL     1      44.575 -11.052   8.078  1.00  0.00    -0.353 OA
HETATM   27  C   UNL     1      45.896 -10.808   7.610  1.00  0.00     0.210 C 
ENDBRANCH   7  26
BRANCH   1  28
HETATM   28  O   UNL     1      44.174  -9.033  10.156  1.00  0.00    -0.271 OA
BRANCH  28  29
HETATM   29  C   UNL     1      43.681  -9.994  11.020  1.00  0.00     0.298 C 
HETATM   30  O   UNL     1      43.822 -11.204  10.935  1.00  0.00    -0.259 OA
BRANCH  29  31
HETATM   31  C   UNL     1      43.034  -9.312  12.173  1.00  0.00     0.040 A 
HETATM   32  C   UNL     1      41.842  -9.852  12.672  1.00  0.00     0.018 A 
HETATM   33  C   UNL     1      41.234  -9.291  13.798  1.00  0.00     0.007 A 
HETATM   34  C   UNL     1      41.808  -8.187  14.439  1.00  0.00    -0.062 A 
HETATM   35  C   UNL     1      41.151  -7.575  15.640  1.00  0.00     0.048 C 
HETATM   36  C   UNL     1      42.981  -7.628  13.916  1.00  0.00     0.007 A 
HETATM   37  C   UNL     1      43.594  -8.187  12.792  1.00  0.00     0.018 A 
ENDBRANCH  29  31
ENDBRANCH  28  29
ENDBRANCH   1  28
TORSDOF 5
ENDMDL
MODEL 7
REMARK VINA RESULT:      -8.3      3.364      8.944
REMARK  5 active torsions:
REMARK  status: ('A' for Active; 'I' for Inactive)
REMARK    1  A    between atoms: C_5  and  C_6 
REMARK    2  A    between atoms: C_6  and  O_7 
REMARK    3  A    between atoms: O_7  and  C_8 
REMARK    4  A    between atoms: C_12  and  C_13 
REMARK    5  A    between atoms: C_30  and  O_31 
ROOT
HETATM    1  C   UNL     1      42.547  -9.542   8.331  1.00  0.00     0.130 A 
HETATM    2  C   UNL     1      41.154  -9.509   8.191  1.00  0.00     0.048 A 
HETATM    3 BR   UNL     1      40.013  -8.827   9.550  1.00  0.00    -0.048 Br
HETATM    4  C   UNL     1      40.549 -10.041   7.051  1.00  0.00     0.033 A 
HETATM    5  C   UNL     1      41.309 -10.663   6.046  1.00  0.00    -0.012 A 
HETATM    6  C   UNL     1      42.709 -10.671   6.202  1.00  0.00     0.050 A 
HETATM    7  C   UNL     1      43.330 -10.146   7.344  1.00  0.00     0.104 A 
ENDROOT
BRANCH   5   8
HETATM    8  C   UNL     1      40.685 -11.388   4.854  1.00  0.00     0.219 C 
HETATM    9  N   UNL     1      41.696 -11.708   3.870  1.00  0.00    -0.332 N 
HETATM   10  C   UNL     1      42.544 -12.776   4.018  1.00  0.00     0.256 C 
HETATM   11  H   UNL     1      42.065 -10.959   3.303  1.00  0.00     0.165 HD
HETATM   12  O   UNL     1      43.616 -12.847   3.427  1.00  0.00    -0.267 OA
HETATM   13  C   UNL     1      42.066 -13.819   4.911  1.00  0.00     0.073 A 
HETATM   14  C   UNL     1      40.790 -13.716   5.419  1.00  0.00     0.088 A 
HETATM   15  C   UNL     1      42.743 -14.974   5.410  1.00  0.00    -0.023 A 
HETATM   16  S   UNL     1      40.362 -15.043   6.391  1.00  0.00    -0.074 SA
HETATM   17  N   UNL     1      40.009 -12.630   5.206  1.00  0.00    -0.358 N 
HETATM   18  C   UNL     1      41.923 -15.711   6.246  1.00  0.00     0.018 A 
HETATM   19  C   UNL     1      42.337 -16.926   7.001  1.00  0.00     0.281 C 
HETATM   20  N   UNL     1      43.668 -17.476   6.499  1.00  0.00    -0.070 N 
HETATM   21  C   UNL     1      44.671 -16.361   6.207  1.00  0.00     0.239 C 
HETATM   22  H   UNL     1      44.059 -18.022   7.277  1.00  0.00     0.279 HD
HETATM   23  C   UNL     1      43.500 -18.437   5.358  1.00  0.00     0.270 C 
HETATM   24  C   UNL     1      44.158 -15.383   5.136  1.00  0.00     0.068 C 
HETATM   25  H   UNL     1      39.163 -12.506   5.755  1.00  0.00     0.162 HD
ENDBRANCH   5   8
BRANCH   7  26
HETATM   26  O   UNL     1      44.692 -10.267   7.347  1.00  0.00    -0.353 OA
HETATM   27  C   UNL     1      45.232 -11.214   6.431  1.00  0.00     0.210 C 
ENDBRANCH   7  26
BRANCH   1  28
HETATM   28  O   UNL     1      43.132  -9.027   9.489  1.00  0.00    -0.271 OA
BRANCH  28  29
HETATM   29  C   UNL     1      43.340  -9.990  10.460  1.00  0.00     0.298 C 
HETATM   30  O   UNL     1      43.849 -11.089  10.310  1.00  0.00    -0.259 OA
BRANCH  29  31
HETATM   31  C   UNL     1      42.951  -9.426  11.780  1.00  0.00     0.040 A 
HETATM   32  C   UNL     1      43.605  -8.268  12.219  1.00  0.00     0.018 A 
HETATM   33  C   UNL     1      43.227  -7.660  13.418  1.00  0.00     0.007 A 
HETATM   34  C   UNL     1      42.192  -8.198  14.192  1.00  0.00    -0.062 A 
HETATM   35  C   UNL     1      41.792  -7.555  15.487  1.00  0.00     0.048 C 
HETATM   36  C   UNL     1      41.564  -9.376  13.769  1.00  0.00     0.007 A 
HETATM   37  C   UNL     1      41.937  -9.986  12.568  1.00  0.00     0.018 A 
ENDBRANCH  29  31
ENDBRANCH  28  29
ENDBRANCH   1  28
TORSDOF 5
ENDMDL
MODEL 8
REMARK VINA RESULT:      -8.2      7.234      9.430
REMARK  5 active torsions:
REMARK  status: ('A' for Active; 'I' for Inactive)
REMARK    1  A    between atoms: C_5  and  C_6 
REMARK    2  A    between atoms: C_6  and  O_7 
REMARK    3  A    between atoms: O_7  and  C_8 
REMARK    4  A    between atoms: C_12  and  C_13 
REMARK    5  A    between atoms: C_30  and  O_31 
ROOT
HETATM    1  C   UNL     1      40.488 -14.071   1.791  1.00  0.00     0.130 A 
HETATM    2  C   UNL     1      40.117 -13.356   2.936  1.00  0.00     0.048 A 
HETATM    3 BR   UNL     1      40.425 -14.016   4.692  1.00  0.00    -0.048 Br
HETATM    4  C   UNL     1      39.442 -12.139   2.816  1.00  0.00     0.033 A 
HETATM    5  C   UNL     1      39.078 -11.629   1.558  1.00  0.00    -0.012 A 
HETATM    6  C   UNL     1      39.476 -12.359   0.421  1.00  0.00     0.050 A 
HETATM    7  C   UNL     1      40.148 -13.585   0.526  1.00  0.00     0.104 A 
ENDROOT
BRANCH   5   8
HETATM    8  C   UNL     1      38.214 -10.381   1.381  1.00  0.00     0.219 C 
HETATM    9  N   UNL     1      38.849  -9.234   1.992  1.00  0.00    -0.332 N 
HETATM   10  C   UNL     1      39.872  -8.556   1.380  1.00  0.00     0.256 C 
HETATM   11  H   UNL     1      38.849  -9.168   2.998  1.00  0.00     0.165 HD
HETATM   12  O   UNL     1      40.658  -7.853   2.006  1.00  0.00    -0.267 OA
HETATM   13  C   UNL     1      39.941  -8.722  -0.063  1.00  0.00     0.073 A 
HETATM   14  C   UNL     1      38.934  -9.417  -0.694  1.00  0.00     0.088 A 
HETATM   15  C   UNL     1      40.949  -8.299  -0.983  1.00  0.00    -0.023 A 
HETATM   16  S   UNL     1      39.128  -9.466  -2.382  1.00  0.00    -0.074 SA
HETATM   17  N   UNL     1      37.945 -10.042  -0.011  1.00  0.00    -0.358 N 
HETATM   18  C   UNL     1      40.629  -8.667  -2.279  1.00  0.00     0.018 A 
HETATM   19  C   UNL     1      41.497  -8.456  -3.470  1.00  0.00     0.281 C 
HETATM   20  N   UNL     1      42.639  -7.489  -3.172  1.00  0.00    -0.070 N 
HETATM   21  C   UNL     1      43.252  -7.739  -1.795  1.00  0.00     0.239 C 
HETATM   22  H   UNL     1      43.372  -7.700  -3.860  1.00  0.00     0.279 HD
HETATM   23  C   UNL     1      42.253  -6.057  -3.400  1.00  0.00     0.270 C 
HETATM   24  C   UNL     1      42.223  -7.579  -0.663  1.00  0.00     0.068 C 
HETATM   25  H   UNL     1      37.342 -10.702  -0.494  1.00  0.00     0.162 HD
ENDBRANCH   5   8
BRANCH   7  26
HETATM   26  O   UNL     1      40.428 -14.176  -0.674  1.00  0.00    -0.353 OA
HETATM   27  C   UNL     1      39.323 -14.776  -1.342  1.00  0.00     0.210 C 
ENDBRANCH   7  26
BRANCH   1  28
HETATM   28  O   UNL     1      41.141 -15.298   1.931  1.00  0.00    -0.271 OA
BRANCH  28  29
HETATM   29  C   UNL     1      42.511 -15.165   2.064  1.00  0.00     0.298 C 
HETATM   30  O   UNL     1      43.187 -14.188   1.782  1.00  0.00    -0.259 OA
BRANCH  29  31
HETATM   31  C   UNL     1      43.045 -16.379   2.737  1.00  0.00     0.040 A 
HETATM   32  C   UNL     1      43.459 -16.264   4.069  1.00  0.00     0.018 A 
HETATM   33  C   UNL     1      43.901 -17.390   4.768  1.00  0.00     0.007 A 
HETATM   34  C   UNL     1      43.933 -18.644   4.145  1.00  0.00    -0.062 A 
HETATM   35  C   UNL     1      44.419 -19.853   4.888  1.00  0.00     0.048 C 
HETATM   36  C   UNL     1      43.552 -18.749   2.802  1.00  0.00     0.007 A 
HETATM   37  C   UNL     1      43.106 -17.626   2.101  1.00  0.00     0.018 A 
ENDBRANCH  29  31
ENDBRANCH  28  29
ENDBRANCH   1  28
TORSDOF 5
ENDMDL
MODEL 9
REMARK VINA RESULT:      -8.1      5.902      8.715
REMARK  5 active torsions:
REMARK  status: ('A' for Active; 'I' for Inactive)
REMARK    1  A    between atoms: C_5  and  C_6 
REMARK    2  A    between atoms: C_6  and  O_7 
REMARK    3  A    between atoms: O_7  and  C_8 
REMARK    4  A    between atoms: C_12  and  C_13 
REMARK    5  A    between atoms: C_30  and  O_31 
ROOT
HETATM    1  C   UNL     1      41.962 -14.054   4.038  1.00  0.00     0.130 A 
HETATM    2  C   UNL     1      41.012 -14.660   3.208  1.00  0.00     0.048 A 
HETATM    3 BR   UNL     1      41.303 -16.353   2.395  1.00  0.00    -0.048 Br
HETATM    4  C   UNL     1      39.822 -13.996   2.901  1.00  0.00     0.033 A 
HETATM    5  C   UNL     1      39.571 -12.695   3.371  1.00  0.00    -0.012 A 
HETATM    6  C   UNL     1      40.536 -12.113   4.217  1.00  0.00     0.050 A 
HETATM    7  C   UNL     1      41.738 -12.766   4.529  1.00  0.00     0.104 A 
ENDROOT
BRANCH   5   8
HETATM    8  C   UNL     1      38.356 -11.872   2.945  1.00  0.00     0.219 C 
HETATM    9  N   UNL     1      38.602 -10.461   3.153  1.00  0.00    -0.332 N 
HETATM   10  C   UNL     1      39.355  -9.718   2.281  1.00  0.00     0.256 C 
HETATM   11  H   UNL     1      38.590 -10.109   4.098  1.00  0.00     0.165 HD
HETATM   12  O   UNL     1      39.884  -8.661   2.610  1.00  0.00    -0.267 OA
HETATM   13  C   UNL     1      39.461 -10.267   0.939  1.00  0.00     0.073 A 
HETATM   14  C   UNL     1      38.719 -11.384   0.625  1.00  0.00     0.088 A 
HETATM   15  C   UNL     1      40.277  -9.849  -0.157  1.00  0.00    -0.023 A 
HETATM   16  S   UNL     1      38.906 -11.861  -0.995  1.00  0.00    -0.074 SA
HETATM   17  N   UNL     1      37.983 -12.049   1.548  1.00  0.00    -0.358 N 
HETATM   18  C   UNL     1      40.078 -10.655  -1.264  1.00  0.00     0.018 A 
HETATM   19  C   UNL     1      40.827 -10.551  -2.547  1.00  0.00     0.281 C 
HETATM   20  N   UNL     1      41.608  -9.243  -2.640  1.00  0.00    -0.070 N 
HETATM   21  C   UNL     1      42.279  -8.886  -1.315  1.00  0.00     0.239 C 
HETATM   22  H   UNL     1      42.365  -9.416  -3.312  1.00  0.00     0.279 HD
HETATM   23  C   UNL     1      40.788  -8.124  -3.211  1.00  0.00     0.270 C 
HETATM   24  C   UNL     1      41.262  -8.719  -0.173  1.00  0.00     0.068 C 
HETATM   25  H   UNL     1      37.615 -12.970   1.325  1.00  0.00     0.162 HD
ENDBRANCH   5   8
BRANCH   7  26
HETATM   26  O   UNL     1      42.575 -12.044   5.333  1.00  0.00    -0.353 OA
HETATM   27  C   UNL     1      43.535 -11.235   4.662  1.00  0.00     0.210 C 
ENDBRANCH   7  26
BRANCH   1  28
HETATM   28  O   UNL     1      43.156 -14.724   4.315  1.00  0.00    -0.271 OA
BRANCH  28  29
HETATM   29  C   UNL     1      43.185 -15.265   5.587  1.00  0.00     0.298 C 
HETATM   30  O   UNL     1      42.961 -14.688   6.639  1.00  0.00    -0.259 OA
BRANCH  29  31
HETATM   31  C   UNL     1      43.416 -16.731   5.476  1.00  0.00     0.040 A 
HETATM   32  C   UNL     1      44.020 -17.214   4.309  1.00  0.00     0.018 A 
HETATM   33  C   UNL     1      44.323 -18.572   4.185  1.00  0.00     0.007 A 
HETATM   34  C   UNL     1      44.030 -19.462   5.225  1.00  0.00    -0.062 A 
HETATM   35  C   UNL     1      44.342 -20.923   5.091  1.00  0.00     0.048 C 
HETATM   36  C   UNL     1      43.394 -18.982   6.377  1.00  0.00     0.007 A 
HETATM   37  C   UNL     1      43.091 -17.624   6.505  1.00  0.00     0.018 A 
ENDBRANCH  29  31
ENDBRANCH  28  29
ENDBRANCH   1  28
TORSDOF 5
ENDMDL
MODEL 10
REMARK VINA RESULT:      -8.1      3.412      8.923
REMARK  5 active torsions:
REMARK  status: ('A' for Active; 'I' for Inactive)
REMARK    1  A    between atoms: C_5  and  C_6 
REMARK    2  A    between atoms: C_6  and  O_7 
REMARK    3  A    between atoms: O_7  and  C_8 
REMARK    4  A    between atoms: C_12  and  C_13 
REMARK    5  A    between atoms: C_30  and  O_31 
ROOT
HETATM    1  C   UNL     1      43.096 -10.116   7.273  1.00  0.00     0.130 A 
HETATM    2  C   UNL     1      41.859  -9.462   7.224  1.00  0.00     0.048 A 
HETATM    3 BR   UNL     1      41.608  -7.711   7.921  1.00  0.00    -0.048 Br
HETATM    4  C   UNL     1      40.739 -10.113   6.703  1.00  0.00     0.033 A 
HETATM    5  C   UNL     1      40.810 -11.446   6.265  1.00  0.00    -0.012 A 
HETATM    6  C   UNL     1      42.069 -12.078   6.310  1.00  0.00     0.050 A 
HETATM    7  C   UNL     1      43.201 -11.439   6.836  1.00  0.00     0.104 A 
ENDROOT
BRANCH   5   8
HETATM    8  C   UNL     1      39.586 -12.249   5.825  1.00  0.00     0.219 C 
HETATM    9  N   UNL     1      39.444 -12.209   4.386  1.00  0.00    -0.332 N 
HETATM   10  C   UNL     1      40.201 -12.998   3.559  1.00  0.00     0.256 C 
HETATM   11  H   UNL     1      39.116 -11.355   3.962  1.00  0.00     0.165 HD
HETATM   12  O   UNL     1      40.376 -12.727   2.376  1.00  0.00    -0.267 OA
HETATM   13  C   UNL     1      40.761 -14.185   4.186  1.00  0.00     0.073 A 
HETATM   14  C   UNL     1      40.396 -14.479   5.480  1.00  0.00     0.088 A 
HETATM   15  C   UNL     1      41.708 -15.126   3.676  1.00  0.00    -0.023 A 
HETATM   16  S   UNL     1      41.085 -15.927   6.044  1.00  0.00    -0.074 SA
HETATM   17  N   UNL     1      39.624 -13.650   6.223  1.00  0.00    -0.358 N 
HETATM   18  C   UNL     1      41.981 -16.113   4.607  1.00  0.00     0.018 A 
HETATM   19  C   UNL     1      42.982 -17.202   4.434  1.00  0.00     0.281 C 
HETATM   20  N   UNL     1      43.443 -17.320   2.984  1.00  0.00    -0.070 N 
HETATM   21  C   UNL     1      43.662 -15.951   2.343  1.00  0.00     0.239 C 
HETATM   22  H   UNL     1      44.363 -17.776   3.018  1.00  0.00     0.279 HD
HETATM   23  C   UNL     1      42.559 -18.221   2.172  1.00  0.00     0.270 C 
HETATM   24  C   UNL     1      42.382 -15.099   2.338  1.00  0.00     0.068 C 
HETATM   25  H   UNL     1      39.543 -13.804   7.224  1.00  0.00     0.162 HD
ENDBRANCH   5   8
BRANCH   7  26
HETATM   26  O   UNL     1      44.330 -12.209   6.836  1.00  0.00    -0.353 OA
HETATM   27  C   UNL     1      44.136 -13.593   6.565  1.00  0.00     0.210 C 
ENDBRANCH   7  26
BRANCH   1  28
HETATM   28  O   UNL     1      44.199  -9.457   7.819  1.00  0.00    -0.271 OA
BRANCH  28  29
HETATM   29  C   UNL     1      44.769 -10.147   8.873  1.00  0.00     0.298 C 
HETATM   30  O   UNL     1      45.746 -10.879   8.833  1.00  0.00    -0.259 OA
BRANCH  29  31
HETATM   31  C   UNL     1      44.070  -9.761  10.129  1.00  0.00     0.040 A 
HETATM   32  C   UNL     1      43.626 -10.784  10.975  1.00  0.00     0.018 A 
HETATM   33  C   UNL     1      43.028 -10.474  12.199  1.00  0.00     0.007 A 
HETATM   34  C   UNL     1      42.869  -9.140  12.593  1.00  0.00    -0.062 A 
HETATM   35  C   UNL     1      42.217  -8.803  13.901  1.00  0.00     0.048 C 
HETATM   36  C   UNL     1      43.283  -8.119  11.729  1.00  0.00     0.007 A 
HETATM   37  C   UNL     1      43.884  -8.425  10.505  1.00  0.00     0.018 A 
ENDBRANCH  29  31
ENDBRANCH  28  29
ENDBRANCH   1  28
TORSDOF 5
ENDMDL
