MODEL 1
REMARK VINA RESULT:      -9.2      0.000      0.000
REMARK  5 active torsions:
REMARK  status: ('A' for Active; 'I' for Inactive)
REMARK    1  A    between atoms: C_3  and  O_4 
REMARK    2  A    between atoms: C_6  and  N_7 
REMARK       I    between atoms: N_7  and  C_8 
REMARK    3  A    between atoms: C_8  and  C_9 
REMARK    4  A    between atoms: C_12  and  C_13 
REMARK    5  A    between atoms: C_18  and  C_19 
ROOT
HETATM    1  C   UNL     1      40.394 -12.449   2.862  1.00  0.00     0.096 A 
HETATM    2  C   UNL     1      40.591 -13.375   3.870  1.00  0.00     0.138 A 
HETATM    3  N   UNL     1      41.372 -12.746   4.808  1.00  0.00    -0.240 N 
HETATM    4  C   UNL     1      41.832 -13.347   6.044  1.00  0.00     0.221 C 
HETATM    5  C   UNL     1      41.024 -14.620   6.354  1.00  0.00     0.066 C 
HETATM    6  C   UNL     1      40.707 -15.489   5.124  1.00  0.00     0.118 C 
HETATM    7  N   UNL     1      40.185 -14.663   4.033  1.00  0.00    -0.365 N 
HETATM    8  N   UNL     1      41.669 -11.474   4.501  1.00  0.00    -0.181 NA
HETATM    9  C   UNL     1      41.117 -11.311   3.294  1.00  0.00     0.160 A 
HETATM   10  H   UNL     1      39.938 -15.213   3.207  1.00  0.00     0.161 HD
ENDROOT
BRANCH   1  11
HETATM   11  C   UNL     1      39.635 -12.583   1.629  1.00  0.00     0.261 C 
HETATM   12  N   UNL     1      40.281 -13.357   0.683  1.00  0.00    -0.323 N 
HETATM   13  H   UNL     1      41.103 -13.847   1.017  1.00  0.00     0.169 HD
HETATM   14  O   UNL     1      38.525 -12.078   1.518  1.00  0.00    -0.267 OA
BRANCH  12  15
HETATM   15  C   UNL     1      39.888 -13.611  -0.645  1.00  0.00     0.037 A 
HETATM   16  C   UNL     1      39.292 -14.799  -1.066  1.00  0.00     0.066 A 
HETATM   17  C   UNL     1      38.908 -14.948  -2.399  1.00  0.00     0.067 A 
HETATM   18  C   UNL     1      39.113 -13.932  -3.326  1.00  0.00     0.036 A 
HETATM   19  C   UNL     1      39.708 -12.744  -2.910  1.00  0.00     0.005 A 
HETATM   20  C   UNL     1      40.088 -12.582  -1.575  1.00  0.00     0.029 A 
BRANCH  17  21
HETATM   21  O   UNL     1      38.316 -16.123  -2.762  1.00  0.00    -0.361 OA
HETATM   22  H   UNL     1      37.441 -16.176  -2.346  1.00  0.00     0.217 HD
ENDBRANCH  17  21
ENDBRANCH  12  15
ENDBRANCH   1  11
BRANCH   4  23
HETATM   23  C   UNL     1      43.329 -13.566   6.006  1.00  0.00     0.409 C 
HETATM   24  F   UNL     1      44.047 -12.462   6.288  1.00  0.00    -0.169 F 
HETATM   25  F   UNL     1      43.726 -14.539   6.857  1.00  0.00    -0.169 F 
HETATM   26  F   UNL     1      43.704 -13.975   4.765  1.00  0.00    -0.169 F 
ENDBRANCH   4  23
BRANCH   6  27
HETATM   27  C   UNL     1      41.819 -16.428   4.686  1.00  0.00    -0.035 A 
HETATM   28  C   UNL     1      42.087 -16.566   3.309  1.00  0.00     0.012 A 
HETATM   29  C   UNL     1      43.112 -17.400   2.855  1.00  0.00     0.043 A 
HETATM   30  C   UNL     1      43.880 -18.104   3.772  1.00  0.00     0.116 A 
HETATM   31  F   UNL     1      44.863 -18.902   3.336  1.00  0.00    -0.206 F 
HETATM   32  C   UNL     1      43.642 -17.989   5.133  1.00  0.00     0.043 A 
HETATM   33  C   UNL     1      42.620 -17.152   5.589  1.00  0.00     0.012 A 
ENDBRANCH   6  27
TORSDOF 5
ENDMDL
MODEL 2
REMARK VINA RESULT:      -9.1      3.992      7.260
REMARK  5 active torsions:
REMARK  status: ('A' for Active; 'I' for Inactive)
REMARK    1  A    between atoms: C_3  and  O_4 
REMARK    2  A    between atoms: C_6  and  N_7 
REMARK       I    between atoms: N_7  and  C_8 
REMARK    3  A    between atoms: C_8  and  C_9 
REMARK    4  A    between atoms: C_12  and  C_13 
REMARK    5  A    between atoms: C_18  and  C_19 
ROOT
HETATM    1  C   UNL     1      42.099 -13.107   5.441  1.00  0.00     0.096 A 
HETATM    2  C   UNL     1      42.334 -13.790   4.261  1.00  0.00     0.138 A 
HETATM    3  N   UNL     1      41.113 -13.902   3.644  1.00  0.00    -0.240 N 
HETATM    4  C   UNL     1      40.882 -14.554   2.370  1.00  0.00     0.221 C 
HETATM    5  C   UNL     1      42.212 -14.753   1.622  1.00  0.00     0.066 C 
HETATM    6  C   UNL     1      43.392 -15.168   2.519  1.00  0.00     0.118 C 
HETATM    7  N   UNL     1      43.460 -14.312   3.706  1.00  0.00    -0.365 N 
HETATM    8  N   UNL     1      40.109 -13.318   4.317  1.00  0.00    -0.181 NA
HETATM    9  C   UNL     1      40.701 -12.880   5.433  1.00  0.00     0.160 A 
HETATM   10  H   UNL     1      44.251 -14.544   4.312  1.00  0.00     0.161 HD
ENDROOT
BRANCH   1  11
HETATM   11  C   UNL     1      43.042 -12.709   6.473  1.00  0.00     0.261 C 
HETATM   12  N   UNL     1      43.210 -11.339   6.547  1.00  0.00    -0.323 N 
HETATM   13  H   UNL     1      42.555 -10.795   5.994  1.00  0.00     0.169 HD
HETATM   14  O   UNL     1      43.565 -13.544   7.200  1.00  0.00    -0.267 OA
BRANCH  12  15
HETATM   15  C   UNL     1      44.111 -10.618   7.352  1.00  0.00     0.037 A 
HETATM   16  C   UNL     1      45.476 -10.510   7.088  1.00  0.00     0.066 A 
HETATM   17  C   UNL     1      46.287  -9.746   7.928  1.00  0.00     0.067 A 
HETATM   18  C   UNL     1      45.763  -9.090   9.035  1.00  0.00     0.036 A 
HETATM   19  C   UNL     1      44.400  -9.195   9.304  1.00  0.00     0.005 A 
HETATM   20  C   UNL     1      43.578  -9.951   8.464  1.00  0.00     0.029 A 
BRANCH  17  21
HETATM   21  O   UNL     1      47.614  -9.657   7.620  1.00  0.00    -0.361 OA
HETATM   22  H   UNL     1      47.718  -9.098   6.834  1.00  0.00     0.217 HD
ENDBRANCH  17  21
ENDBRANCH  12  15
ENDBRANCH   1  11
BRANCH   4  23
HETATM   23  C   UNL     1      40.089 -15.829   2.559  1.00  0.00     0.409 C 
HETATM   24  F   UNL     1      40.240 -16.716   1.558  1.00  0.00    -0.169 F 
HETATM   25  F   UNL     1      40.400 -16.460   3.714  1.00  0.00    -0.169 F 
HETATM   26  F   UNL     1      38.762 -15.540   2.635  1.00  0.00    -0.169 F 
ENDBRANCH   4  23
BRANCH   6  27
HETATM   27  C   UNL     1      43.474 -16.651   2.844  1.00  0.00    -0.035 A 
HETATM   28  C   UNL     1      43.813 -17.040   4.156  1.00  0.00     0.012 A 
HETATM   29  C   UNL     1      43.881 -18.389   4.511  1.00  0.00     0.043 A 
HETATM   30  C   UNL     1      43.611 -19.363   3.561  1.00  0.00     0.116 A 
HETATM   31  F   UNL     1      43.675 -20.657   3.903  1.00  0.00    -0.206 F 
HETATM   32  C   UNL     1      43.273 -19.013   2.262  1.00  0.00     0.043 A 
HETATM   33  C   UNL     1      43.200 -17.664   1.906  1.00  0.00     0.012 A 
ENDBRANCH   6  27
TORSDOF 5
ENDMDL
MODEL 3
REMARK VINA RESULT:      -8.9      3.807      6.659
REMARK  5 active torsions:
REMARK  status: ('A' for Active; 'I' for Inactive)
REMARK    1  A    between atoms: C_3  and  O_4 
REMARK    2  A    between atoms: C_6  and  N_7 
REMARK       I    between atoms: N_7  and  C_8 
REMARK    3  A    between atoms: C_8  and  C_9 
REMARK    4  A    between atoms: C_12  and  C_13 
REMARK    5  A    between atoms: C_18  and  C_19 
ROOT
HETATM    1  C   UNL     1      42.624 -14.920   5.079  1.00  0.00     0.096 A 
HETATM    2  C   UNL     1      42.479 -13.934   4.118  1.00  0.00     0.138 A 
HETATM    3  N   UNL     1      41.684 -12.971   4.688  1.00  0.00    -0.240 N 
HETATM    4  C   UNL     1      41.266 -11.747   4.035  1.00  0.00     0.221 C 
HETATM    5  C   UNL     1      42.131 -11.480   2.791  1.00  0.00     0.066 C 
HETATM    6  C   UNL     1      42.470 -12.737   1.969  1.00  0.00     0.118 C 
HETATM    7  N   UNL     1      42.942 -13.811   2.845  1.00  0.00    -0.365 N 
HETATM    8  N   UNL     1      41.328 -13.241   5.954  1.00  0.00    -0.181 NA
HETATM    9  C   UNL     1      41.858 -14.448   6.172  1.00  0.00     0.160 A 
HETATM   10  H   UNL     1      43.202 -14.655   2.328  1.00  0.00     0.161 HD
ENDROOT
BRANCH   1  11
HETATM   11  C   UNL     1      43.373 -16.164   5.010  1.00  0.00     0.261 C 
HETATM   12  N   UNL     1      42.899 -17.022   4.035  1.00  0.00    -0.323 N 
HETATM   13  H   UNL     1      42.212 -16.621   3.406  1.00  0.00     0.169 HD
HETATM   14  O   UNL     1      44.340 -16.354   5.736  1.00  0.00    -0.267 OA
BRANCH  12  15
HETATM   15  C   UNL     1      43.316 -18.338   3.761  1.00  0.00     0.037 A 
HETATM   16  C   UNL     1      43.813 -19.213   4.726  1.00  0.00     0.066 A 
HETATM   17  C   UNL     1      44.173 -20.512   4.366  1.00  0.00     0.067 A 
HETATM   18  C   UNL     1      44.053 -20.956   3.054  1.00  0.00     0.036 A 
HETATM   19  C   UNL     1      43.558 -20.086   2.086  1.00  0.00     0.005 A 
HETATM   20  C   UNL     1      43.186 -18.785   2.439  1.00  0.00     0.029 A 
BRANCH  17  21
HETATM   21  O   UNL     1      44.640 -21.337   5.348  1.00  0.00    -0.361 OA
HETATM   22  H   UNL     1      44.072 -21.250   6.129  1.00  0.00     0.217 HD
ENDBRANCH  17  21
ENDBRANCH  12  15
ENDBRANCH   1  11
BRANCH   4  23
HETATM   23  C   UNL     1      39.779 -11.774   3.753  1.00  0.00     0.409 C 
HETATM   24  F   UNL     1      39.295 -13.006   3.506  1.00  0.00    -0.169 F 
HETATM   25  F   UNL     1      39.055 -11.246   4.766  1.00  0.00    -0.169 F 
HETATM   26  F   UNL     1      39.503 -11.014   2.659  1.00  0.00    -0.169 F 
ENDBRANCH   4  23
BRANCH   6  27
HETATM   27  C   UNL     1      41.394 -13.188   0.994  1.00  0.00    -0.035 A 
HETATM   28  C   UNL     1      40.891 -12.259   0.061  1.00  0.00     0.012 A 
HETATM   29  C   UNL     1      39.917 -12.630  -0.870  1.00  0.00     0.043 A 
HETATM   30  C   UNL     1      39.437 -13.932  -0.879  1.00  0.00     0.116 A 
HETATM   31  F   UNL     1      38.505 -14.286  -1.772  1.00  0.00    -0.206 F 
HETATM   32  C   UNL     1      39.913 -14.870   0.025  1.00  0.00     0.043 A 
HETATM   33  C   UNL     1      40.890 -14.502   0.954  1.00  0.00     0.012 A 
ENDBRANCH   6  27
TORSDOF 5
ENDMDL
MODEL 4
REMARK VINA RESULT:      -8.8      3.663      6.210
REMARK  5 active torsions:
REMARK  status: ('A' for Active; 'I' for Inactive)
REMARK    1  A    between atoms: C_3  and  O_4 
REMARK    2  A    between atoms: C_6  and  N_7 
REMARK       I    between atoms: N_7  and  C_8 
REMARK    3  A    between atoms: C_8  and  C_9 
REMARK    4  A    between atoms: C_12  and  C_13 
REMARK    5  A    between atoms: C_18  and  C_19 
ROOT
HETATM    1  C   UNL     1      42.326 -14.135   2.651  1.00  0.00     0.096 A 
HETATM    2  C   UNL     1      42.111 -13.500   3.861  1.00  0.00     0.138 A 
HETATM    3  N   UNL     1      41.410 -12.357   3.565  1.00  0.00    -0.240 N 
HETATM    4  C   UNL     1      40.969 -11.378   4.538  1.00  0.00     0.221 C 
HETATM    5  C   UNL     1      41.038 -11.965   5.959  1.00  0.00     0.066 C 
HETATM    6  C   UNL     1      42.274 -12.841   6.226  1.00  0.00     0.118 C 
HETATM    7  N   UNL     1      42.467 -13.803   5.138  1.00  0.00    -0.365 N 
HETATM    8  N   UNL     1      41.126 -12.219   2.260  1.00  0.00    -0.181 NA
HETATM    9  C   UNL     1      41.727 -13.273   1.701  1.00  0.00     0.160 A 
HETATM   10  H   UNL     1      43.267 -14.421   5.297  1.00  0.00     0.161 HD
ENDROOT
BRANCH   1  11
HETATM   11  C   UNL     1      43.010 -15.389   2.382  1.00  0.00     0.261 C 
HETATM   12  N   UNL     1      42.535 -16.435   3.152  1.00  0.00    -0.323 N 
HETATM   13  H   UNL     1      41.690 -16.234   3.675  1.00  0.00     0.169 HD
HETATM   14  O   UNL     1      43.877 -15.458   1.521  1.00  0.00    -0.267 OA
BRANCH  12  15
HETATM   15  C   UNL     1      43.028 -17.751   3.226  1.00  0.00     0.037 A 
HETATM   16  C   UNL     1      42.900 -18.689   2.202  1.00  0.00     0.066 A 
HETATM   17  C   UNL     1      43.450 -19.962   2.354  1.00  0.00     0.067 A 
HETATM   18  C   UNL     1      44.122 -20.323   3.516  1.00  0.00     0.036 A 
HETATM   19  C   UNL     1      44.252 -19.391   4.543  1.00  0.00     0.005 A 
HETATM   20  C   UNL     1      43.713 -18.109   4.396  1.00  0.00     0.029 A 
BRANCH  17  21
HETATM   21  O   UNL     1      43.313 -20.841   1.318  1.00  0.00    -0.361 OA
HETATM   22  H   UNL     1      43.192 -21.733   1.677  1.00  0.00     0.217 HD
ENDBRANCH  17  21
ENDBRANCH  12  15
ENDBRANCH   1  11
BRANCH   4  23
HETATM   23  C   UNL     1      41.731 -10.081   4.373  1.00  0.00     0.409 C 
HETATM   24  F   UNL     1      41.908  -9.405   5.524  1.00  0.00    -0.169 F 
HETATM   25  F   UNL     1      42.950 -10.270   3.819  1.00  0.00    -0.169 F 
HETATM   26  F   UNL     1      41.059  -9.255   3.528  1.00  0.00    -0.169 F 
ENDBRANCH   4  23
BRANCH   6  27
HETATM   27  C   UNL     1      43.543 -12.086   6.590  1.00  0.00    -0.035 A 
HETATM   28  C   UNL     1      43.590 -11.389   7.814  1.00  0.00     0.012 A 
HETATM   29  C   UNL     1      44.739 -10.697   8.204  1.00  0.00     0.043 A 
HETATM   30  C   UNL     1      45.853 -10.696   7.377  1.00  0.00     0.116 A 
HETATM   31  F   UNL     1      46.955 -10.034   7.753  1.00  0.00    -0.206 F 
HETATM   32  C   UNL     1      45.840 -11.374   6.167  1.00  0.00     0.043 A 
HETATM   33  C   UNL     1      44.692 -12.070   5.777  1.00  0.00     0.012 A 
ENDBRANCH   6  27
TORSDOF 5
ENDMDL
MODEL 5
REMARK VINA RESULT:      -8.8      3.953      7.152
REMARK  5 active torsions:
REMARK  status: ('A' for Active; 'I' for Inactive)
REMARK    1  A    between atoms: C_3  and  O_4 
REMARK    2  A    between atoms: C_6  and  N_7 
REMARK       I    between atoms: N_7  and  C_8 
REMARK    3  A    between atoms: C_8  and  C_9 
REMARK    4  A    between atoms: C_12  and  C_13 
REMARK    5  A    between atoms: C_18  and  C_19 
ROOT
HETATM    1  C   UNL     1      42.051 -12.045   4.552  1.00  0.00     0.096 A 
HETATM    2  C   UNL     1      42.258 -13.005   3.577  1.00  0.00     0.138 A 
HETATM    3  N   UNL     1      41.013 -13.313   3.086  1.00  0.00    -0.240 N 
HETATM    4  C   UNL     1      40.749 -14.282   2.042  1.00  0.00     0.221 C 
HETATM    5  C   UNL     1      42.047 -14.629   1.292  1.00  0.00     0.066 C 
HETATM    6  C   UNL     1      43.288 -14.758   2.192  1.00  0.00     0.118 C 
HETATM    7  N   UNL     1      43.377 -13.620   3.110  1.00  0.00    -0.365 N 
HETATM    8  N   UNL     1      40.020 -12.603   3.644  1.00  0.00    -0.181 NA
HETATM    9  C   UNL     1      40.647 -11.871   4.570  1.00  0.00     0.160 A 
HETATM   10  H   UNL     1      44.207 -13.660   3.707  1.00  0.00     0.161 HD
ENDROOT
BRANCH   1  11
HETATM   11  C   UNL     1      43.026 -11.362   5.386  1.00  0.00     0.261 C 
HETATM   12  N   UNL     1      42.547 -11.084   6.653  1.00  0.00    -0.323 N 
HETATM   13  H   UNL     1      41.661 -11.520   6.883  1.00  0.00     0.169 HD
HETATM   14  O   UNL     1      44.152 -11.125   4.969  1.00  0.00    -0.267 OA
BRANCH  12  15
HETATM   15  C   UNL     1      43.177 -10.351   7.677  1.00  0.00     0.037 A 
HETATM   16  C   UNL     1      44.009 -10.919   8.641  1.00  0.00     0.066 A 
HETATM   17  C   UNL     1      44.615 -10.106   9.600  1.00  0.00     0.067 A 
HETATM   18  C   UNL     1      44.400  -8.733   9.621  1.00  0.00     0.036 A 
HETATM   19  C   UNL     1      43.569  -8.161   8.661  1.00  0.00     0.005 A 
HETATM   20  C   UNL     1      42.965  -8.966   7.690  1.00  0.00     0.029 A 
BRANCH  17  21
HETATM   21  O   UNL     1      45.434 -10.705  10.514  1.00  0.00    -0.361 OA
HETATM   22  H   UNL     1      45.510 -10.130  11.291  1.00  0.00     0.217 HD
ENDBRANCH  17  21
ENDBRANCH  12  15
ENDBRANCH   1  11
BRANCH   4  23
HETATM   23  C   UNL     1      40.025 -15.487   2.603  1.00  0.00     0.409 C 
HETATM   24  F   UNL     1      40.388 -15.802   3.861  1.00  0.00    -0.169 F 
HETATM   25  F   UNL     1      38.682 -15.328   2.594  1.00  0.00    -0.169 F 
HETATM   26  F   UNL     1      40.280 -16.579   1.833  1.00  0.00    -0.169 F 
ENDBRANCH   4  23
BRANCH   6  27
HETATM   27  C   UNL     1      43.454 -16.101   2.886  1.00  0.00    -0.035 A 
HETATM   28  C   UNL     1      43.442 -17.274   2.105  1.00  0.00     0.012 A 
HETATM   29  C   UNL     1      43.612 -18.531   2.691  1.00  0.00     0.043 A 
HETATM   30  C   UNL     1      43.797 -18.628   4.063  1.00  0.00     0.116 A 
HETATM   31  F   UNL     1      43.961 -19.833   4.624  1.00  0.00    -0.206 F 
HETATM   32  C   UNL     1      43.816 -17.493   4.859  1.00  0.00     0.043 A 
HETATM   33  C   UNL     1      43.651 -16.235   4.273  1.00  0.00     0.012 A 
ENDBRANCH   6  27
TORSDOF 5
ENDMDL
MODEL 6
REMARK VINA RESULT:      -8.7      3.826      6.797
REMARK  5 active torsions:
REMARK  status: ('A' for Active; 'I' for Inactive)
REMARK    1  A    between atoms: C_3  and  O_4 
REMARK    2  A    between atoms: C_6  and  N_7 
REMARK       I    between atoms: N_7  and  C_8 
REMARK    3  A    between atoms: C_8  and  C_9 
REMARK    4  A    between atoms: C_12  and  C_13 
REMARK    5  A    between atoms: C_18  and  C_19 
ROOT
HETATM    1  C   UNL     1      43.080 -15.021   5.704  1.00  0.00     0.096 A 
HETATM    2  C   UNL     1      43.097 -13.991   4.782  1.00  0.00     0.138 A 
HETATM    3  N   UNL     1      43.462 -12.868   5.483  1.00  0.00    -0.240 N 
HETATM    4  C   UNL     1      43.606 -11.543   4.912  1.00  0.00     0.221 C 
HETATM    5  C   UNL     1      43.683 -11.626   3.377  1.00  0.00     0.066 C 
HETATM    6  C   UNL     1      42.731 -12.657   2.747  1.00  0.00     0.118 C 
HETATM    7  N   UNL     1      42.822 -13.938   3.451  1.00  0.00    -0.365 N 
HETATM    8  N   UNL     1      43.714 -13.097   6.781  1.00  0.00    -0.181 NA
HETATM    9  C   UNL     1      43.431 -14.396   6.925  1.00  0.00     0.160 A 
HETATM   10  H   UNL     1      42.221 -14.657   3.040  1.00  0.00     0.161 HD
ENDROOT
BRANCH   1  11
HETATM   11  C   UNL     1      42.769 -16.427   5.503  1.00  0.00     0.261 C 
HETATM   12  N   UNL     1      43.804 -17.126   4.909  1.00  0.00    -0.323 N 
HETATM   13  H   UNL     1      44.679 -16.618   4.837  1.00  0.00     0.169 HD
HETATM   14  O   UNL     1      41.703 -16.894   5.881  1.00  0.00    -0.267 OA
BRANCH  12  15
HETATM   15  C   UNL     1      43.811 -18.466   4.479  1.00  0.00     0.037 A 
HETATM   16  C   UNL     1      43.691 -18.856   3.146  1.00  0.00     0.066 A 
HETATM   17  C   UNL     1      43.740 -20.210   2.812  1.00  0.00     0.067 A 
HETATM   18  C   UNL     1      43.901 -21.188   3.787  1.00  0.00     0.036 A 
HETATM   19  C   UNL     1      44.020 -20.803   5.120  1.00  0.00     0.005 A 
HETATM   20  C   UNL     1      43.981 -19.449   5.464  1.00  0.00     0.029 A 
BRANCH  17  21
HETATM   21  O   UNL     1      43.634 -20.542   1.492  1.00  0.00    -0.361 OA
HETATM   22  H   UNL     1      42.701 -20.499   1.231  1.00  0.00     0.217 HD
ENDBRANCH  17  21
ENDBRANCH  12  15
ENDBRANCH   1  11
BRANCH   4  23
HETATM   23  C   UNL     1      42.520 -10.622   5.422  1.00  0.00     0.409 C 
HETATM   24  F   UNL     1      42.831 -10.001   6.576  1.00  0.00    -0.169 F 
HETATM   25  F   UNL     1      42.192  -9.668   4.522  1.00  0.00    -0.169 F 
HETATM   26  F   UNL     1      41.382 -11.331   5.649  1.00  0.00    -0.169 F 
ENDBRANCH   4  23
BRANCH   6  27
HETATM   27  C   UNL     1      41.300 -12.186   2.544  1.00  0.00    -0.035 A 
HETATM   28  C   UNL     1      41.072 -11.003   1.812  1.00  0.00     0.012 A 
HETATM   29  C   UNL     1      39.775 -10.539   1.581  1.00  0.00     0.043 A 
HETATM   30  C   UNL     1      38.693 -11.252   2.076  1.00  0.00     0.116 A 
HETATM   31  F   UNL     1      37.449 -10.806   1.852  1.00  0.00    -0.206 F 
HETATM   32  C   UNL     1      38.883 -12.420   2.798  1.00  0.00     0.043 A 
HETATM   33  C   UNL     1      40.179 -12.888   3.027  1.00  0.00     0.012 A 
ENDBRANCH   6  27
TORSDOF 5
ENDMDL
MODEL 7
REMARK VINA RESULT:      -8.6      3.983      7.934
REMARK  5 active torsions:
REMARK  status: ('A' for Active; 'I' for Inactive)
REMARK    1  A    between atoms: C_3  and  O_4 
REMARK    2  A    between atoms: C_6  and  N_7 
REMARK       I    between atoms: N_7  and  C_8 
REMARK    3  A    between atoms: C_8  and  C_9 
REMARK    4  A    between atoms: C_12  and  C_13 
REMARK    5  A    between atoms: C_18  and  C_19 
ROOT
HETATM    1  C   UNL     1      43.218 -13.491   6.390  1.00  0.00     0.096 A 
HETATM    2  C   UNL     1      42.296 -14.226   5.667  1.00  0.00     0.138 A 
HETATM    3  N   UNL     1      42.864 -15.463   5.486  1.00  0.00    -0.240 N 
HETATM    4  C   UNL     1      42.247 -16.563   4.773  1.00  0.00     0.221 C 
HETATM    5  C   UNL     1      40.741 -16.305   4.588  1.00  0.00     0.066 C 
HETATM    6  C   UNL     1      40.381 -14.847   4.253  1.00  0.00     0.118 C 
HETATM    7  N   UNL     1      41.070 -13.927   5.160  1.00  0.00    -0.365 N 
HETATM    8  N   UNL     1      44.068 -15.597   6.064  1.00  0.00    -0.181 NA
HETATM    9  C   UNL     1      44.303 -14.381   6.568  1.00  0.00     0.160 A 
HETATM   10  H   UNL     1      40.832 -12.948   4.982  1.00  0.00     0.161 HD
ENDROOT
BRANCH   1  11
HETATM   11  C   UNL     1      43.127 -12.119   6.864  1.00  0.00     0.261 C 
HETATM   12  N   UNL     1      43.900 -11.888   7.988  1.00  0.00    -0.323 N 
HETATM   13  H   UNL     1      44.533 -12.640   8.236  1.00  0.00     0.169 HD
HETATM   14  O   UNL     1      42.457 -11.291   6.262  1.00  0.00    -0.267 OA
BRANCH  12  15
HETATM   15  C   UNL     1      43.972 -10.716   8.764  1.00  0.00     0.037 A 
HETATM   16  C   UNL     1      44.373  -9.477   8.266  1.00  0.00     0.066 A 
HETATM   17  C   UNL     1      44.383  -8.363   9.106  1.00  0.00     0.067 A 
HETATM   18  C   UNL     1      44.007  -8.462  10.441  1.00  0.00     0.036 A 
HETATM   19  C   UNL     1      43.607  -9.697  10.943  1.00  0.00     0.005 A 
HETATM   20  C   UNL     1      43.584 -10.818  10.107  1.00  0.00     0.029 A 
BRANCH  17  21
HETATM   21  O   UNL     1      44.768  -7.168   8.570  1.00  0.00    -0.361 OA
HETATM   22  H   UNL     1      45.614  -7.286   8.111  1.00  0.00     0.217 HD
ENDBRANCH  17  21
ENDBRANCH  12  15
ENDBRANCH   1  11
BRANCH   4  23
HETATM   23  C   UNL     1      42.984 -16.841   3.480  1.00  0.00     0.409 C 
HETATM   24  F   UNL     1      43.493 -15.740   2.898  1.00  0.00    -0.169 F 
HETATM   25  F   UNL     1      43.997 -17.721   3.647  1.00  0.00    -0.169 F 
HETATM   26  F   UNL     1      42.137 -17.410   2.580  1.00  0.00    -0.169 F 
ENDBRANCH   4  23
BRANCH   6  27
HETATM   27  C   UNL     1      40.519 -14.461   2.789  1.00  0.00    -0.035 A 
HETATM   28  C   UNL     1      39.919 -15.280   1.811  1.00  0.00     0.012 A 
HETATM   29  C   UNL     1      39.999 -14.958   0.454  1.00  0.00     0.043 A 
HETATM   30  C   UNL     1      40.678 -13.814   0.060  1.00  0.00     0.116 A 
HETATM   31  F   UNL     1      40.753 -13.505  -1.241  1.00  0.00    -0.206 F 
HETATM   32  C   UNL     1      41.277 -12.985   0.998  1.00  0.00     0.043 A 
HETATM   33  C   UNL     1      41.195 -13.305   2.355  1.00  0.00     0.012 A 
ENDBRANCH   6  27
TORSDOF 5
ENDMDL
MODEL 8
REMARK VINA RESULT:      -8.4      3.731      7.199
REMARK  5 active torsions:
REMARK  status: ('A' for Active; 'I' for Inactive)
REMARK    1  A    between atoms: C_3  and  O_4 
REMARK    2  A    between atoms: C_6  and  N_7 
REMARK       I    between atoms: N_7  and  C_8 
REMARK    3  A    between atoms: C_8  and  C_9 
REMARK    4  A    between atoms: C_12  and  C_13 
REMARK    5  A    between atoms: C_18  and  C_19 
ROOT
HETATM    1  C   UNL     1      41.950 -14.236   2.723  1.00  0.00     0.096 A 
HETATM    2  C   UNL     1      41.616 -13.177   1.899  1.00  0.00     0.138 A 
HETATM    3  N   UNL     1      40.907 -12.302   2.684  1.00  0.00    -0.240 N 
HETATM    4  C   UNL     1      40.350 -11.043   2.230  1.00  0.00     0.221 C 
HETATM    5  C   UNL     1      40.980 -10.631   0.888  1.00  0.00     0.066 C 
HETATM    6  C   UNL     1      41.203 -11.794  -0.094  1.00  0.00     0.118 C 
HETATM    7  N   UNL     1      41.848 -12.921   0.583  1.00  0.00    -0.365 N 
HETATM    8  N   UNL     1      40.783 -12.697   3.961  1.00  0.00    -0.181 NA
HETATM    9  C   UNL     1      41.374 -13.896   3.970  1.00  0.00     0.160 A 
HETATM   10  H   UNL     1      42.036 -13.704  -0.048  1.00  0.00     0.161 HD
ENDROOT
BRANCH   1  11
HETATM   11  C   UNL     1      42.708 -15.437   2.410  1.00  0.00     0.261 C 
HETATM   12  N   UNL     1      42.357 -16.514   3.203  1.00  0.00    -0.323 N 
HETATM   13  H   UNL     1      41.532 -16.376   3.776  1.00  0.00     0.169 HD
HETATM   14  O   UNL     1      43.525 -15.443   1.499  1.00  0.00    -0.267 OA
BRANCH  12  15
HETATM   15  C   UNL     1      42.950 -17.790   3.243  1.00  0.00     0.037 A 
HETATM   16  C   UNL     1      42.833 -18.735   2.224  1.00  0.00     0.066 A 
HETATM   17  C   UNL     1      43.483 -19.964   2.340  1.00  0.00     0.067 A 
HETATM   18  C   UNL     1      44.245 -20.274   3.460  1.00  0.00     0.036 A 
HETATM   19  C   UNL     1      44.364 -19.335   4.481  1.00  0.00     0.005 A 
HETATM   20  C   UNL     1      43.725 -18.097   4.371  1.00  0.00     0.029 A 
BRANCH  17  21
HETATM   21  O   UNL     1      43.352 -20.851   1.310  1.00  0.00    -0.361 OA
HETATM   22  H   UNL     1      42.920 -21.654   1.640  1.00  0.00     0.217 HD
ENDBRANCH  17  21
ENDBRANCH  12  15
ENDBRANCH   1  11
BRANCH   4  23
HETATM   23  C   UNL     1      38.839 -11.106   2.204  1.00  0.00     0.409 C 
HETATM   24  F   UNL     1      38.274 -10.260   1.322  1.00  0.00    -0.169 F 
HETATM   25  F   UNL     1      38.382 -12.348   1.926  1.00  0.00    -0.169 F 
HETATM   26  F   UNL     1      38.342 -10.789   3.430  1.00  0.00    -0.169 F 
ENDBRANCH   4  23
BRANCH   6  27
HETATM   27  C   UNL     1      39.987 -12.202  -0.910  1.00  0.00    -0.035 A 
HETATM   28  C   UNL     1      39.711 -13.574  -1.077  1.00  0.00     0.012 A 
HETATM   29  C   UNL     1      38.594 -14.000  -1.800  1.00  0.00     0.043 A 
HETATM   30  C   UNL     1      37.741 -13.061  -2.361  1.00  0.00     0.116 A 
HETATM   31  F   UNL     1      36.669 -13.470  -3.053  1.00  0.00    -0.206 F 
HETATM   32  C   UNL     1      37.983 -11.703  -2.213  1.00  0.00     0.043 A 
HETATM   33  C   UNL     1      39.098 -11.275  -1.487  1.00  0.00     0.012 A 
ENDBRANCH   6  27
TORSDOF 5
ENDMDL
MODEL 9
REMARK VINA RESULT:      -8.3      4.948      7.667
REMARK  5 active torsions:
REMARK  status: ('A' for Active; 'I' for Inactive)
REMARK    1  A    between atoms: C_3  and  O_4 
REMARK    2  A    between atoms: C_6  and  N_7 
REMARK       I    between atoms: N_7  and  C_8 
REMARK    3  A    between atoms: C_8  and  C_9 
REMARK    4  A    between atoms: C_12  and  C_13 
REMARK    5  A    between atoms: C_18  and  C_19 
ROOT
HETATM    1  C   UNL     1      43.462 -11.347   6.462  1.00  0.00     0.096 A 
HETATM    2  C   UNL     1      43.437 -10.195   7.228  1.00  0.00     0.138 A 
HETATM    3  N   UNL     1      44.521 -10.280   8.065  1.00  0.00    -0.240 N 
HETATM    4  C   UNL     1      44.888  -9.284   9.052  1.00  0.00     0.221 C 
HETATM    5  C   UNL     1      44.151  -7.961   8.778  1.00  0.00     0.066 C 
HETATM    6  C   UNL     1      42.689  -8.127   8.330  1.00  0.00     0.118 C 
HETATM    7  N   UNL     1      42.587  -9.135   7.272  1.00  0.00    -0.365 N 
HETATM    8  N   UNL     1      45.265 -11.382   7.880  1.00  0.00    -0.181 NA
HETATM    9  C   UNL     1      44.591 -12.053   6.940  1.00  0.00     0.160 A 
HETATM   10  H   UNL     1      41.629  -9.252   6.931  1.00  0.00     0.161 HD
ENDROOT
BRANCH   1  11
HETATM   11  C   UNL     1      42.551 -11.768   5.409  1.00  0.00     0.261 C 
HETATM   12  N   UNL     1      42.841 -13.029   4.921  1.00  0.00    -0.323 N 
HETATM   13  H   UNL     1      43.533 -13.546   5.452  1.00  0.00     0.169 HD
HETATM   14  O   UNL     1      41.617 -11.055   5.067  1.00  0.00    -0.267 OA
BRANCH  12  15
HETATM   15  C   UNL     1      42.236 -13.701   3.843  1.00  0.00     0.037 A 
HETATM   16  C   UNL     1      40.869 -13.962   3.757  1.00  0.00     0.066 A 
HETATM   17  C   UNL     1      40.356 -14.609   2.633  1.00  0.00     0.067 A 
HETATM   18  C   UNL     1      41.183 -15.009   1.590  1.00  0.00     0.036 A 
HETATM   19  C   UNL     1      42.550 -14.752   1.671  1.00  0.00     0.005 A 
HETATM   20  C   UNL     1      43.073 -14.096   2.789  1.00  0.00     0.029 A 
BRANCH  17  21
HETATM   21  O   UNL     1      39.009 -14.829   2.587  1.00  0.00    -0.361 OA
HETATM   22  H   UNL     1      38.566 -14.193   3.169  1.00  0.00     0.217 HD
ENDBRANCH  17  21
ENDBRANCH  12  15
ENDBRANCH   1  11
BRANCH   4  23
HETATM   23  C   UNL     1      44.682  -9.821  10.453  1.00  0.00     0.409 C 
HETATM   24  F   UNL     1      45.717 -10.549  10.913  1.00  0.00    -0.169 F 
HETATM   25  F   UNL     1      44.445  -8.837  11.349  1.00  0.00    -0.169 F 
HETATM   26  F   UNL     1      43.588 -10.628  10.482  1.00  0.00    -0.169 F 
ENDBRANCH   4  23
BRANCH   6  27
HETATM   27  C   UNL     1      41.682  -8.332   9.451  1.00  0.00    -0.035 A 
HETATM   28  C   UNL     1      41.713  -7.460  10.559  1.00  0.00     0.012 A 
HETATM   29  C   UNL     1      40.796  -7.594  11.604  1.00  0.00     0.043 A 
HETATM   30  C   UNL     1      39.840  -8.598  11.555  1.00  0.00     0.116 A 
HETATM   31  F   UNL     1      38.961  -8.724  12.558  1.00  0.00    -0.206 F 
HETATM   32  C   UNL     1      39.782  -9.470  10.478  1.00  0.00     0.043 A 
HETATM   33  C   UNL     1      40.695  -9.336   9.429  1.00  0.00     0.012 A 
ENDBRANCH   6  27
TORSDOF 5
ENDMDL
MODEL 10
REMARK VINA RESULT:      -8.1      3.412      6.532
REMARK  5 active torsions:
REMARK  status: ('A' for Active; 'I' for Inactive)
REMARK    1  A    between atoms: C_3  and  O_4 
REMARK    2  A    between atoms: C_6  and  N_7 
REMARK       I    between atoms: N_7  and  C_8 
REMARK    3  A    between atoms: C_8  and  C_9 
REMARK    4  A    between atoms: C_12  and  C_13 
REMARK    5  A    between atoms: C_18  and  C_19 
ROOT
HETATM    1  C   UNL     1      41.176 -14.555   2.621  1.00  0.00     0.096 A 
HETATM    2  C   UNL     1      40.660 -13.415   3.211  1.00  0.00     0.138 A 
HETATM    3  N   UNL     1      40.682 -12.447   2.238  1.00  0.00    -0.240 N 
HETATM    4  C   UNL     1      40.232 -11.081   2.416  1.00  0.00     0.221 C 
HETATM    5  C   UNL     1      39.376 -10.960   3.689  1.00  0.00     0.066 C 
HETATM    6  C   UNL     1      39.891 -11.782   4.883  1.00  0.00     0.118 C 
HETATM    7  N   UNL     1      40.208 -13.150   4.466  1.00  0.00    -0.365 N 
HETATM    8  N   UNL     1      41.142 -12.879   1.054  1.00  0.00    -0.181 NA
HETATM    9  C   UNL     1      41.489 -14.146   1.302  1.00  0.00     0.160 A 
HETATM   10  H   UNL     1      40.528 -13.734   5.243  1.00  0.00     0.161 HD
ENDROOT
BRANCH   1  11
HETATM   11  C   UNL     1      41.372 -15.876   3.194  1.00  0.00     0.261 C 
HETATM   12  N   UNL     1      42.609 -16.415   2.890  1.00  0.00    -0.323 N 
HETATM   13  H   UNL     1      43.260 -15.774   2.451  1.00  0.00     0.169 HD
HETATM   14  O   UNL     1      40.513 -16.386   3.902  1.00  0.00    -0.267 OA
BRANCH  12  15
HETATM   15  C   UNL     1      43.091 -17.703   3.191  1.00  0.00     0.037 A 
HETATM   16  C   UNL     1      43.118 -18.757   2.278  1.00  0.00     0.066 A 
HETATM   17  C   UNL     1      43.644 -19.991   2.659  1.00  0.00     0.067 A 
HETATM   18  C   UNL     1      44.141 -20.199   3.941  1.00  0.00     0.036 A 
HETATM   19  C   UNL     1      44.116 -19.149   4.856  1.00  0.00     0.005 A 
HETATM   20  C   UNL     1      43.599 -17.906   4.482  1.00  0.00     0.029 A 
BRANCH  17  21
HETATM   21  O   UNL     1      43.663 -20.988   1.727  1.00  0.00    -0.361 OA
HETATM   22  H   UNL     1      43.669 -20.592   0.842  1.00  0.00     0.217 HD
ENDBRANCH  17  21
ENDBRANCH  12  15
ENDBRANCH   1  11
BRANCH   4  23
HETATM   23  C   UNL     1      41.403 -10.124   2.371  1.00  0.00     0.409 C 
HETATM   24  F   UNL     1      41.722  -9.712   1.129  1.00  0.00    -0.169 F 
HETATM   25  F   UNL     1      41.193  -9.021   3.124  1.00  0.00    -0.169 F 
HETATM   26  F   UNL     1      42.510 -10.725   2.885  1.00  0.00    -0.169 F 
ENDBRANCH   4  23
BRANCH   6  27
HETATM   27  C   UNL     1      41.001 -11.132   5.694  1.00  0.00    -0.035 A 
HETATM   28  C   UNL     1      42.184 -11.860   5.932  1.00  0.00     0.012 A 
HETATM   29  C   UNL     1      43.241 -11.300   6.652  1.00  0.00     0.043 A 
HETATM   30  C   UNL     1      43.129 -10.006   7.141  1.00  0.00     0.116 A 
HETATM   31  F   UNL     1      44.144  -9.469   7.830  1.00  0.00    -0.206 F 
HETATM   32  C   UNL     1      41.979  -9.262   6.921  1.00  0.00     0.043 A 
HETATM   33  C   UNL     1      40.922  -9.820   6.198  1.00  0.00     0.012 A 
ENDBRANCH   6  27
TORSDOF 5
ENDMDL
