MODEL 1
REMARK VINA RESULT:      -8.1      0.000      0.000
REMARK  5 active torsions:
REMARK  status: ('A' for Active; 'I' for Inactive)
REMARK    1  A    between atoms: C_2  and  C_3 
REMARK    2  A    between atoms: C_7  and  N_8 
REMARK    3  A    between atoms: N_8  and  C_9 
REMARK    4  A    between atoms: C_11  and  N_12 
REMARK    5  A    between atoms: C_14  and  N_15 
ROOT
HETATM    1  C   UNL     1      40.909 -15.214   1.672  1.00  0.00     0.111 A 
HETATM    2  N   UNL     1      41.528 -14.078   2.028  1.00  0.00    -0.206 NA
HETATM    3  C   UNL     1      41.291 -12.982   1.304  1.00  0.00     0.202 A 
HETATM    4  N   UNL     1      40.530 -12.936   0.215  1.00  0.00    -0.199 NA
HETATM    5  C   UNL     1      39.936 -14.095  -0.146  1.00  0.00     0.156 A 
HETATM    6  C   UNL     1      40.092 -15.269   0.563  1.00  0.00     0.096 A 
ENDROOT
BRANCH   1   7
HETATM    7  N   UNL     1      41.132 -16.403   2.383  1.00  0.00    -0.265 NA
HETATM    8  H   UNL     1      40.724 -16.323   3.316  1.00  0.00     0.130 HD
BRANCH   7   9
HETATM    9  C   UNL     1      42.525 -16.851   2.494  1.00  0.00     0.133 C 
HETATM   10  C   UNL     1      43.073 -16.632   3.877  1.00  0.00     0.142 A 
HETATM   11  N   UNL     1      43.878 -17.545   4.491  1.00  0.00    -0.253 N 
HETATM   12  N   UNL     1      42.929 -15.588   4.670  1.00  0.00    -0.215 NA
HETATM   13  N   UNL     1      44.284 -17.122   5.696  1.00  0.00    -0.155 NA
HETATM   14  C   UNL     1      44.223 -18.853   3.983  1.00  0.00     0.153 C 
HETATM   15  C   UNL     1      43.690 -15.922   5.767  1.00  0.00     0.151 A 
HETATM   16  C   UNL     1      43.966 -18.952   2.481  1.00  0.00     0.024 C 
HETATM   17  C   UNL     1      42.605 -18.350   2.119  1.00  0.00     0.029 C 
BRANCH  15  18
HETATM   18  C   UNL     1      43.861 -15.010   6.938  1.00  0.00     0.051 C 
HETATM   19  C   UNL     1      43.060 -15.493   8.146  1.00  0.00     0.018 C 
HETATM   20  C   UNL     1      43.478 -13.574   6.578  1.00  0.00     0.018 C 
ENDBRANCH  15  18
ENDBRANCH   7   9
ENDBRANCH   1   7
BRANCH   3  21
HETATM   21  N   UNL     1      41.921 -11.817   1.688  1.00  0.00    -0.271 NA
HETATM   22  H   UNL     1      42.760 -12.033   2.207  1.00  0.00     0.127 HD
HETATM   23  H   UNL     1      42.011 -11.195   0.897  1.00  0.00     0.127 HD
ENDBRANCH   3  21
BRANCH   5  24
HETATM   24  N   UNL     1      39.130 -14.098  -1.321  1.00  0.00    -0.227 N 
HETATM   25  N   UNL     1      38.219 -13.120  -1.587  1.00  0.00    -0.179 NA
HETATM   26  C   UNL     1      37.666 -13.490  -2.743  1.00  0.00     0.141 A 
HETATM   27  C   UNL     1      38.200 -14.687  -3.243  1.00  0.00     0.040 A 
HETATM   28  C   UNL     1      39.139 -15.057  -2.313  1.00  0.00     0.122 A 
ENDBRANCH   5  24
TORSDOF 5
ENDMDL
MODEL 2
REMARK VINA RESULT:      -8.0      4.530      7.253
REMARK  5 active torsions:
REMARK  status: ('A' for Active; 'I' for Inactive)
REMARK    1  A    between atoms: C_2  and  C_3 
REMARK    2  A    between atoms: C_7  and  N_8 
REMARK    3  A    between atoms: N_8  and  C_9 
REMARK    4  A    between atoms: C_11  and  N_12 
REMARK    5  A    between atoms: C_14  and  N_15 
ROOT
HETATM    1  C   UNL     1      43.402 -15.094   5.538  1.00  0.00     0.111 A 
HETATM    2  N   UNL     1      43.553 -15.425   6.830  1.00  0.00    -0.206 NA
HETATM    3  C   UNL     1      43.764 -16.709   7.127  1.00  0.00     0.202 A 
HETATM    4  N   UNL     1      43.780 -17.704   6.246  1.00  0.00    -0.199 NA
HETATM    5  C   UNL     1      43.599 -17.357   4.952  1.00  0.00     0.156 A 
HETATM    6  C   UNL     1      43.412 -16.051   4.546  1.00  0.00     0.096 A 
ENDROOT
BRANCH   1   7
HETATM    7  N   UNL     1      43.160 -13.764   5.165  1.00  0.00    -0.265 NA
HETATM    8  H   UNL     1      44.049 -13.277   5.043  1.00  0.00     0.130 HD
BRANCH   7   9
HETATM    9  C   UNL     1      42.290 -12.980   6.051  1.00  0.00     0.133 C 
HETATM   10  C   UNL     1      43.056 -11.914   6.785  1.00  0.00     0.142 A 
HETATM   11  N   UNL     1      42.548 -10.666   6.987  1.00  0.00    -0.253 N 
HETATM   12  N   UNL     1      44.239 -11.993   7.361  1.00  0.00    -0.215 NA
HETATM   13  N   UNL     1      43.380  -9.898   7.701  1.00  0.00    -0.155 NA
HETATM   14  C   UNL     1      41.303 -10.158   6.457  1.00  0.00     0.153 C 
HETATM   15  C   UNL     1      44.399 -10.743   7.917  1.00  0.00     0.151 A 
HETATM   16  C   UNL     1      40.382 -11.292   6.013  1.00  0.00     0.024 C 
HETATM   17  C   UNL     1      41.157 -12.342   5.212  1.00  0.00     0.029 C 
BRANCH  15  18
HETATM   18  C   UNL     1      45.602 -10.364   8.717  1.00  0.00     0.051 C 
HETATM   19  C   UNL     1      45.217  -9.904  10.123  1.00  0.00     0.018 C 
HETATM   20  C   UNL     1      46.421  -9.287   8.004  1.00  0.00     0.018 C 
ENDBRANCH  15  18
ENDBRANCH   7   9
ENDBRANCH   1   7
BRANCH   3  21
HETATM   21  N   UNL     1      43.933 -17.036   8.456  1.00  0.00    -0.271 NA
HETATM   22  H   UNL     1      43.707 -18.009   8.603  1.00  0.00     0.127 HD
HETATM   23  H   UNL     1      44.833 -16.713   8.781  1.00  0.00     0.127 HD
ENDBRANCH   3  21
BRANCH   5  24
HETATM   24  N   UNL     1      43.585 -18.394   3.975  1.00  0.00    -0.227 N 
HETATM   25  N   UNL     1      43.986 -19.667   4.251  1.00  0.00    -0.179 NA
HETATM   26  C   UNL     1      43.847 -20.316   3.094  1.00  0.00     0.141 A 
HETATM   27  C   UNL     1      43.358 -19.496   2.066  1.00  0.00     0.040 A 
HETATM   28  C   UNL     1      43.195 -18.267   2.657  1.00  0.00     0.122 A 
ENDBRANCH   5  24
TORSDOF 5
ENDMDL
MODEL 3
REMARK VINA RESULT:      -7.9      1.498      3.490
REMARK  5 active torsions:
REMARK  status: ('A' for Active; 'I' for Inactive)
REMARK    1  A    between atoms: C_2  and  C_3 
REMARK    2  A    between atoms: C_7  and  N_8 
REMARK    3  A    between atoms: N_8  and  C_9 
REMARK    4  A    between atoms: C_11  and  N_12 
REMARK    5  A    between atoms: C_14  and  N_15 
ROOT
HETATM    1  C   UNL     1      42.445 -13.403   2.257  1.00  0.00     0.111 A 
HETATM    2  N   UNL     1      42.462 -12.088   2.529  1.00  0.00    -0.206 NA
HETATM    3  C   UNL     1      41.739 -11.279   1.753  1.00  0.00     0.202 A 
HETATM    4  N   UNL     1      41.045 -11.663   0.687  1.00  0.00    -0.199 NA
HETATM    5  C   UNL     1      41.060 -12.985   0.411  1.00  0.00     0.156 A 
HETATM    6  C   UNL     1      41.747 -13.903   1.180  1.00  0.00     0.096 A 
ENDROOT
BRANCH   1   7
HETATM    7  N   UNL     1      43.198 -14.301   3.028  1.00  0.00    -0.265 NA
HETATM    8  H   UNL     1      43.672 -14.963   2.412  1.00  0.00     0.130 HD
BRANCH   7   9
HETATM    9  C   UNL     1      42.476 -15.036   4.074  1.00  0.00     0.133 C 
HETATM   10  C   UNL     1      42.991 -16.440   4.227  1.00  0.00     0.142 A 
HETATM   11  N   UNL     1      43.144 -17.028   5.447  1.00  0.00    -0.253 N 
HETATM   12  N   UNL     1      43.321 -17.308   3.290  1.00  0.00    -0.215 NA
HETATM   13  N   UNL     1      43.571 -18.293   5.341  1.00  0.00    -0.155 NA
HETATM   14  C   UNL     1      42.952 -16.390   6.729  1.00  0.00     0.153 C 
HETATM   15  C   UNL     1      43.662 -18.430   4.011  1.00  0.00     0.151 A 
HETATM   16  C   UNL     1      42.126 -15.113   6.597  1.00  0.00     0.024 C 
HETATM   17  C   UNL     1      42.609 -14.270   5.412  1.00  0.00     0.029 C 
BRANCH  15  18
HETATM   18  C   UNL     1      44.080 -19.710   3.361  1.00  0.00     0.051 C 
HETATM   19  C   UNL     1      43.270 -19.985   2.094  1.00  0.00     0.018 C 
HETATM   20  C   UNL     1      43.968 -20.883   4.335  1.00  0.00     0.018 C 
ENDBRANCH  15  18
ENDBRANCH   7   9
ENDBRANCH   1   7
BRANCH   3  21
HETATM   21  N   UNL     1      41.753  -9.932   2.050  1.00  0.00    -0.271 NA
HETATM   22  H   UNL     1      40.977  -9.705   2.656  1.00  0.00     0.127 HD
HETATM   23  H   UNL     1      42.676  -9.652   2.351  1.00  0.00     0.127 HD
ENDBRANCH   3  21
BRANCH   5  24
HETATM   24  N   UNL     1      40.347 -13.439  -0.737  1.00  0.00    -0.227 N 
HETATM   25  N   UNL     1      40.317 -12.739  -1.905  1.00  0.00    -0.179 NA
HETATM   26  C   UNL     1      39.543 -13.469  -2.709  1.00  0.00     0.141 A 
HETATM   27  C   UNL     1      39.070 -14.638  -2.094  1.00  0.00     0.040 A 
HETATM   28  C   UNL     1      39.602 -14.597  -0.828  1.00  0.00     0.122 A 
ENDBRANCH   5  24
TORSDOF 5
ENDMDL
MODEL 4
REMARK VINA RESULT:      -7.7      3.884      7.087
REMARK  5 active torsions:
REMARK  status: ('A' for Active; 'I' for Inactive)
REMARK    1  A    between atoms: C_2  and  C_3 
REMARK    2  A    between atoms: C_7  and  N_8 
REMARK    3  A    between atoms: N_8  and  C_9 
REMARK    4  A    between atoms: C_11  and  N_12 
REMARK    5  A    between atoms: C_14  and  N_15 
ROOT
HETATM    1  C   UNL     1      41.991 -13.272   5.689  1.00  0.00     0.111 A 
HETATM    2  N   UNL     1      40.821 -12.613   5.720  1.00  0.00    -0.206 NA
HETATM    3  C   UNL     1      40.820 -11.362   6.183  1.00  0.00     0.202 A 
HETATM    4  N   UNL     1      41.880 -10.728   6.673  1.00  0.00    -0.199 NA
HETATM    5  C   UNL     1      43.044 -11.414   6.659  1.00  0.00     0.156 A 
HETATM    6  C   UNL     1      43.150 -12.698   6.165  1.00  0.00     0.096 A 
ENDROOT
BRANCH   1   7
HETATM    7  N   UNL     1      42.053 -14.596   5.229  1.00  0.00    -0.265 NA
HETATM    8  H   UNL     1      42.226 -15.222   6.017  1.00  0.00     0.130 HD
BRANCH   7   9
HETATM    9  C   UNL     1      43.018 -14.876   4.159  1.00  0.00     0.133 C 
HETATM   10  C   UNL     1      43.322 -16.345   4.052  1.00  0.00     0.142 A 
HETATM   11  N   UNL     1      43.462 -16.971   2.850  1.00  0.00    -0.253 N 
HETATM   12  N   UNL     1      43.535 -17.219   5.017  1.00  0.00    -0.215 NA
HETATM   13  N   UNL     1      43.775 -18.265   2.994  1.00  0.00    -0.155 NA
HETATM   14  C   UNL     1      43.242 -16.377   1.551  1.00  0.00     0.153 C 
HETATM   15  C   UNL     1      43.816 -18.379   4.329  1.00  0.00     0.151 A 
HETATM   16  C   UNL     1      43.269 -14.852   1.624  1.00  0.00     0.024 C 
HETATM   17  C   UNL     1      42.454 -14.348   2.818  1.00  0.00     0.029 C 
BRANCH  15  18
HETATM   18  C   UNL     1      44.164 -19.659   5.017  1.00  0.00     0.051 C 
HETATM   19  C   UNL     1      43.837 -20.870   4.144  1.00  0.00     0.018 C 
HETATM   20  C   UNL     1      43.461 -19.767   6.370  1.00  0.00     0.018 C 
ENDBRANCH  15  18
ENDBRANCH   7   9
ENDBRANCH   1   7
BRANCH   3  21
HETATM   21  N   UNL     1      39.616 -10.690   6.197  1.00  0.00    -0.271 NA
HETATM   22  H   UNL     1      38.853 -11.347   6.110  1.00  0.00     0.127 HD
HETATM   23  H   UNL     1      39.587 -10.045   6.974  1.00  0.00     0.127 HD
ENDBRANCH   3  21
BRANCH   5  24
HETATM   24  N   UNL     1      44.202 -10.781   7.198  1.00  0.00    -0.227 N 
HETATM   25  N   UNL     1      45.464 -11.232   6.951  1.00  0.00    -0.179 NA
HETATM   26  C   UNL     1      46.251 -10.402   7.638  1.00  0.00     0.141 A 
HETATM   27  C   UNL     1      45.531  -9.414   8.326  1.00  0.00     0.040 A 
HETATM   28  C   UNL     1      44.217  -9.677   8.026  1.00  0.00     0.122 A 
ENDBRANCH   5  24
TORSDOF 5
ENDMDL
MODEL 5
REMARK VINA RESULT:      -7.6      1.948      7.750
REMARK  5 active torsions:
REMARK  status: ('A' for Active; 'I' for Inactive)
REMARK    1  A    between atoms: C_2  and  C_3 
REMARK    2  A    between atoms: C_7  and  N_8 
REMARK    3  A    between atoms: N_8  and  C_9 
REMARK    4  A    between atoms: C_11  and  N_12 
REMARK    5  A    between atoms: C_14  and  N_15 
ROOT
HETATM    1  C   UNL     1      40.922 -14.721   4.201  1.00  0.00     0.111 A 
HETATM    2  N   UNL     1      41.343 -14.126   5.329  1.00  0.00    -0.206 NA
HETATM    3  C   UNL     1      42.395 -14.652   5.958  1.00  0.00     0.202 A 
HETATM    4  N   UNL     1      43.030 -15.759   5.590  1.00  0.00    -0.199 NA
HETATM    5  C   UNL     1      42.577 -16.361   4.468  1.00  0.00     0.156 A 
HETATM    6  C   UNL     1      41.520 -15.869   3.730  1.00  0.00     0.096 A 
ENDROOT
BRANCH   1   7
HETATM    7  N   UNL     1      39.810 -14.225   3.505  1.00  0.00    -0.265 NA
HETATM    8  H   UNL     1      39.505 -14.913   2.815  1.00  0.00     0.130 HD
BRANCH   7   9
HETATM    9  C   UNL     1      39.970 -12.918   2.855  1.00  0.00     0.133 C 
HETATM   10  C   UNL     1      39.739 -13.000   1.371  1.00  0.00     0.142 A 
HETATM   11  N   UNL     1      39.064 -12.034   0.688  1.00  0.00    -0.253 N 
HETATM   12  N   UNL     1      40.151 -13.919   0.519  1.00  0.00    -0.215 NA
HETATM   13  N   UNL     1      39.018 -12.291  -0.626  1.00  0.00    -0.155 NA
HETATM   14  C   UNL     1      38.397 -10.890   1.267  1.00  0.00     0.153 C 
HETATM   15  C   UNL     1      39.697 -13.446  -0.692  1.00  0.00     0.151 A 
HETATM   16  C   UNL     1      38.894 -10.615   2.684  1.00  0.00     0.024 C 
HETATM   17  C   UNL     1      38.983 -11.912   3.494  1.00  0.00     0.029 C 
BRANCH  15  18
HETATM   18  C   UNL     1      39.960 -14.151  -1.983  1.00  0.00     0.051 C 
HETATM   19  C   UNL     1      40.693 -13.249  -2.974  1.00  0.00     0.018 C 
HETATM   20  C   UNL     1      38.662 -14.679  -2.596  1.00  0.00     0.018 C 
ENDBRANCH  15  18
ENDBRANCH   7   9
ENDBRANCH   1   7
BRANCH   3  21
HETATM   21  N   UNL     1      42.828 -14.024   7.107  1.00  0.00    -0.271 NA
HETATM   22  H   UNL     1      43.773 -13.690   6.983  1.00  0.00     0.127 HD
HETATM   23  H   UNL     1      42.137 -13.357   7.420  1.00  0.00     0.127 HD
ENDBRANCH   3  21
BRANCH   5  24
HETATM   24  N   UNL     1      43.213 -17.566   4.049  1.00  0.00    -0.227 N 
HETATM   25  N   UNL     1      43.897 -18.371   4.909  1.00  0.00    -0.179 NA
HETATM   26  C   UNL     1      44.354 -19.362   4.142  1.00  0.00     0.141 A 
HETATM   27  C   UNL     1      43.977 -19.226   2.797  1.00  0.00     0.040 A 
HETATM   28  C   UNL     1      43.244 -18.065   2.763  1.00  0.00     0.122 A 
ENDBRANCH   5  24
TORSDOF 5
ENDMDL
MODEL 6
REMARK VINA RESULT:      -7.5      4.144      8.683
REMARK  5 active torsions:
REMARK  status: ('A' for Active; 'I' for Inactive)
REMARK    1  A    between atoms: C_2  and  C_3 
REMARK    2  A    between atoms: C_7  and  N_8 
REMARK    3  A    between atoms: N_8  and  C_9 
REMARK    4  A    between atoms: C_11  and  N_12 
REMARK    5  A    between atoms: C_14  and  N_15 
ROOT
HETATM    1  C   UNL     1      44.304 -12.029   6.724  1.00  0.00     0.111 A 
HETATM    2  N   UNL     1      45.572 -11.633   6.527  1.00  0.00    -0.206 NA
HETATM    3  C   UNL     1      46.168 -10.937   7.497  1.00  0.00     0.202 A 
HETATM    4  N   UNL     1      45.586 -10.549   8.627  1.00  0.00    -0.199 NA
HETATM    5  C   UNL     1      44.301 -10.932   8.798  1.00  0.00     0.156 A 
HETATM    6  C   UNL     1      43.615 -11.686   7.867  1.00  0.00     0.096 A 
ENDROOT
BRANCH   1   7
HETATM    7  N   UNL     1      43.618 -12.749   5.734  1.00  0.00    -0.265 NA
HETATM    8  H   UNL     1      42.988 -12.121   5.232  1.00  0.00     0.130 HD
BRANCH   7   9
HETATM    9  C   UNL     1      42.877 -13.936   6.178  1.00  0.00     0.133 C 
HETATM   10  C   UNL     1      42.028 -14.508   5.076  1.00  0.00     0.142 A 
HETATM   11  N   UNL     1      41.905 -15.851   4.880  1.00  0.00    -0.253 N 
HETATM   12  N   UNL     1      41.274 -13.876   4.199  1.00  0.00    -0.215 NA
HETATM   13  N   UNL     1      41.066 -16.133   3.875  1.00  0.00    -0.155 NA
HETATM   14  C   UNL     1      42.622 -16.885   5.591  1.00  0.00     0.153 C 
HETATM   15  C   UNL     1      40.696 -14.904   3.487  1.00  0.00     0.151 A 
HETATM   16  C   UNL     1      43.208 -16.357   6.898  1.00  0.00     0.024 C 
HETATM   17  C   UNL     1      43.882 -14.998   6.686  1.00  0.00     0.029 C 
BRANCH  15  18
HETATM   18  C   UNL     1      39.715 -14.669   2.385  1.00  0.00     0.051 C 
HETATM   19  C   UNL     1      40.132 -15.388   1.102  1.00  0.00     0.018 C 
HETATM   20  C   UNL     1      39.525 -13.174   2.125  1.00  0.00     0.018 C 
ENDBRANCH  15  18
ENDBRANCH   7   9
ENDBRANCH   1   7
BRANCH   3  21
HETATM   21  N   UNL     1      47.475 -10.549   7.290  1.00  0.00    -0.271 NA
HETATM   22  H   UNL     1      48.032 -11.344   7.012  1.00  0.00     0.127 HD
HETATM   23  H   UNL     1      47.504  -9.731   6.696  1.00  0.00     0.127 HD
ENDBRANCH   3  21
BRANCH   5  24
HETATM   24  N   UNL     1      43.630 -10.519   9.985  1.00  0.00    -0.227 N 
HETATM   25  N   UNL     1      43.904 -11.056  11.206  1.00  0.00    -0.179 NA
HETATM   26  C   UNL     1      43.066 -10.433  12.037  1.00  0.00     0.141 A 
HETATM   27  C   UNL     1      42.253  -9.494  11.385  1.00  0.00     0.040 A 
HETATM   28  C   UNL     1      42.634  -9.566  10.068  1.00  0.00     0.122 A 
ENDBRANCH   5  24
TORSDOF 5
ENDMDL
MODEL 7
REMARK VINA RESULT:      -7.5      4.743      8.830
REMARK  5 active torsions:
REMARK  status: ('A' for Active; 'I' for Inactive)
REMARK    1  A    between atoms: C_2  and  C_3 
REMARK    2  A    between atoms: C_7  and  N_8 
REMARK    3  A    between atoms: N_8  and  C_9 
REMARK    4  A    between atoms: C_11  and  N_12 
REMARK    5  A    between atoms: C_14  and  N_15 
ROOT
HETATM    1  C   UNL     1      43.937 -11.569   7.480  1.00  0.00     0.111 A 
HETATM    2  N   UNL     1      45.242 -11.603   7.163  1.00  0.00    -0.206 NA
HETATM    3  C   UNL     1      46.008 -10.586   7.563  1.00  0.00     0.202 A 
HETATM    4  N   UNL     1      45.573  -9.506   8.202  1.00  0.00    -0.199 NA
HETATM    5  C   UNL     1      44.252  -9.475   8.489  1.00  0.00     0.156 A 
HETATM    6  C   UNL     1      43.389 -10.497   8.150  1.00  0.00     0.096 A 
ENDROOT
BRANCH   1   7
HETATM    7  N   UNL     1      43.077 -12.600   7.073  1.00  0.00    -0.265 NA
HETATM    8  H   UNL     1      43.531 -13.503   7.225  1.00  0.00     0.130 HD
BRANCH   7   9
HETATM    9  C   UNL     1      42.572 -12.531   5.697  1.00  0.00     0.133 C 
HETATM   10  C   UNL     1      42.380 -13.900   5.104  1.00  0.00     0.142 A 
HETATM   11  N   UNL     1      41.308 -14.207   4.321  1.00  0.00    -0.253 N 
HETATM   12  N   UNL     1      43.167 -14.956   5.184  1.00  0.00    -0.215 NA
HETATM   13  N   UNL     1      41.365 -15.466   3.866  1.00  0.00    -0.155 NA
HETATM   14  C   UNL     1      40.183 -13.343   4.041  1.00  0.00     0.153 C 
HETATM   15  C   UNL     1      42.516 -15.889   4.409  1.00  0.00     0.151 A 
HETATM   16  C   UNL     1      40.514 -11.883   4.342  1.00  0.00     0.024 C 
HETATM   17  C   UNL     1      41.235 -11.753   5.687  1.00  0.00     0.029 C 
BRANCH  15  18
HETATM   18  C   UNL     1      43.060 -17.260   4.170  1.00  0.00     0.051 C 
HETATM   19  C   UNL     1      44.322 -17.513   4.994  1.00  0.00     0.018 C 
HETATM   20  C   UNL     1      43.334 -17.492   2.683  1.00  0.00     0.018 C 
ENDBRANCH  15  18
ENDBRANCH   7   9
ENDBRANCH   1   7
BRANCH   3  21
HETATM   21  N   UNL     1      47.349 -10.638   7.245  1.00  0.00    -0.271 NA
HETATM   22  H   UNL     1      47.906 -10.454   8.067  1.00  0.00     0.127 HD
HETATM   23  H   UNL     1      47.551 -11.482   6.726  1.00  0.00     0.127 HD
ENDBRANCH   3  21
BRANCH   5  24
HETATM   24  N   UNL     1      43.736  -8.325   9.153  1.00  0.00    -0.227 N 
HETATM   25  N   UNL     1      43.756  -7.084   8.591  1.00  0.00    -0.179 NA
HETATM   26  C   UNL     1      43.215  -6.292   9.518  1.00  0.00     0.141 A 
HETATM   27  C   UNL     1      42.836  -6.990  10.675  1.00  0.00     0.040 A 
HETATM   28  C   UNL     1      43.180  -8.294  10.416  1.00  0.00     0.122 A 
ENDBRANCH   5  24
TORSDOF 5
ENDMDL
MODEL 8
REMARK VINA RESULT:      -7.4      2.684      7.922
REMARK  5 active torsions:
REMARK  status: ('A' for Active; 'I' for Inactive)
REMARK    1  A    between atoms: C_2  and  C_3 
REMARK    2  A    between atoms: C_7  and  N_8 
REMARK    3  A    between atoms: N_8  and  C_9 
REMARK    4  A    between atoms: C_11  and  N_12 
REMARK    5  A    between atoms: C_14  and  N_15 
ROOT
HETATM    1  C   UNL     1      41.570 -14.254   1.571  1.00  0.00     0.111 A 
HETATM    2  N   UNL     1      40.731 -13.846   2.537  1.00  0.00    -0.206 NA
HETATM    3  C   UNL     1      40.709 -14.535   3.679  1.00  0.00     0.202 A 
HETATM    4  N   UNL     1      41.413 -15.636   3.921  1.00  0.00    -0.199 NA
HETATM    5  C   UNL     1      42.232 -16.049   2.929  1.00  0.00     0.156 A 
HETATM    6  C   UNL     1      42.350 -15.379   1.728  1.00  0.00     0.096 A 
ENDROOT
BRANCH   1   7
HETATM    7  N   UNL     1      41.625 -13.581   0.342  1.00  0.00    -0.265 NA
HETATM    8  H   UNL     1      42.189 -12.735   0.441  1.00  0.00     0.130 HD
BRANCH   7   9
HETATM    9  C   UNL     1      40.340 -13.243  -0.281  1.00  0.00     0.133 C 
HETATM   10  C   UNL     1      40.448 -12.027  -1.160  1.00  0.00     0.142 A 
HETATM   11  N   UNL     1      39.810 -11.940  -2.360  1.00  0.00    -0.253 N 
HETATM   12  N   UNL     1      41.088 -10.896  -0.933  1.00  0.00    -0.215 NA
HETATM   13  N   UNL     1      40.010 -10.753  -2.948  1.00  0.00    -0.155 NA
HETATM   14  C   UNL     1      39.056 -12.994  -3.001  1.00  0.00     0.153 C 
HETATM   15  C   UNL     1      40.790 -10.141  -2.045  1.00  0.00     0.151 A 
HETATM   16  C   UNL     1      38.661 -14.081  -2.005  1.00  0.00     0.024 C 
HETATM   17  C   UNL     1      39.843 -14.455  -1.106  1.00  0.00     0.029 C 
BRANCH  15  18
HETATM   18  C   UNL     1      41.276  -8.739  -2.223  1.00  0.00     0.051 C 
HETATM   19  C   UNL     1      41.333  -8.349  -3.699  1.00  0.00     0.018 C 
HETATM   20  C   UNL     1      42.641  -8.543  -1.562  1.00  0.00     0.018 C 
ENDBRANCH  15  18
ENDBRANCH   7   9
ENDBRANCH   1   7
BRANCH   3  21
HETATM   21  N   UNL     1      39.855 -14.099   4.669  1.00  0.00    -0.271 NA
HETATM   22  H   UNL     1      38.896 -14.246   4.387  1.00  0.00     0.127 HD
HETATM   23  H   UNL     1      40.139 -14.474   5.564  1.00  0.00     0.127 HD
ENDBRANCH   3  21
BRANCH   5  24
HETATM   24  N   UNL     1      42.989 -17.239   3.135  1.00  0.00    -0.227 N 
HETATM   25  N   UNL     1      43.774 -17.427   4.232  1.00  0.00    -0.179 NA
HETATM   26  C   UNL     1      44.322 -18.629   4.044  1.00  0.00     0.141 A 
HETATM   27  C   UNL     1      43.907 -19.235   2.849  1.00  0.00     0.040 A 
HETATM   28  C   UNL     1      43.050 -18.324   2.283  1.00  0.00     0.122 A 
ENDBRANCH   5  24
TORSDOF 5
ENDMDL
MODEL 9
REMARK VINA RESULT:      -7.4      3.391      7.037
REMARK  5 active torsions:
REMARK  status: ('A' for Active; 'I' for Inactive)
REMARK    1  A    between atoms: C_2  and  C_3 
REMARK    2  A    between atoms: C_7  and  N_8 
REMARK    3  A    between atoms: N_8  and  C_9 
REMARK    4  A    between atoms: C_11  and  N_12 
REMARK    5  A    between atoms: C_14  and  N_15 
ROOT
HETATM    1  C   UNL     1      40.431 -12.367   5.631  1.00  0.00     0.111 A 
HETATM    2  N   UNL     1      39.527 -11.482   6.082  1.00  0.00    -0.206 NA
HETATM    3  C   UNL     1      39.974 -10.411   6.741  1.00  0.00     0.202 A 
HETATM    4  N   UNL     1      41.247 -10.177   7.042  1.00  0.00    -0.199 NA
HETATM    5  C   UNL     1      42.141 -11.091   6.605  1.00  0.00     0.156 A 
HETATM    6  C   UNL     1      41.776 -12.209   5.883  1.00  0.00     0.096 A 
ENDROOT
BRANCH   1   7
HETATM    7  N   UNL     1      40.021 -13.520   4.947  1.00  0.00    -0.265 NA
HETATM    8  H   UNL     1      40.202 -14.342   5.525  1.00  0.00     0.130 HD
BRANCH   7   9
HETATM    9  C   UNL     1      40.588 -13.727   3.608  1.00  0.00     0.133 C 
HETATM   10  C   UNL     1      41.267 -15.064   3.491  1.00  0.00     0.142 A 
HETATM   11  N   UNL     1      41.163 -15.834   2.372  1.00  0.00    -0.253 N 
HETATM   12  N   UNL     1      42.060 -15.669   4.355  1.00  0.00    -0.215 NA
HETATM   13  N   UNL     1      41.885 -16.958   2.471  1.00  0.00    -0.155 NA
HETATM   14  C   UNL     1      40.334 -15.556   1.221  1.00  0.00     0.153 C 
HETATM   15  C   UNL     1      42.423 -16.819   3.691  1.00  0.00     0.151 A 
HETATM   16  C   UNL     1      39.918 -14.088   1.177  1.00  0.00     0.024 C 
HETATM   17  C   UNL     1      39.459 -13.608   2.557  1.00  0.00     0.029 C 
BRANCH  15  18
HETATM   18  C   UNL     1      43.361 -17.825   4.275  1.00  0.00     0.051 C 
HETATM   19  C   UNL     1      44.388 -17.165   5.195  1.00  0.00     0.018 C 
HETATM   20  C   UNL     1      44.061 -18.627   3.177  1.00  0.00     0.018 C 
ENDBRANCH  15  18
ENDBRANCH   7   9
ENDBRANCH   1   7
BRANCH   3  21
HETATM   21  N   UNL     1      39.039  -9.502   7.187  1.00  0.00    -0.271 NA
HETATM   22  H   UNL     1      39.282  -8.573   6.871  1.00  0.00     0.127 HD
HETATM   23  H   UNL     1      38.107  -9.833   6.980  1.00  0.00     0.127 HD
ENDBRANCH   3  21
BRANCH   5  24
HETATM   24  N   UNL     1      43.516 -10.892   6.926  1.00  0.00    -0.227 N 
HETATM   25  N   UNL     1      43.932  -9.941   7.808  1.00  0.00    -0.179 NA
HETATM   26  C   UNL     1      45.261 -10.056   7.815  1.00  0.00     0.141 A 
HETATM   27  C   UNL     1      45.724 -11.067   6.959  1.00  0.00     0.040 A 
HETATM   28  C   UNL     1      44.584 -11.590   6.400  1.00  0.00     0.122 A 
ENDBRANCH   5  24
TORSDOF 5
ENDMDL
MODEL 10
REMARK VINA RESULT:      -7.4     14.120     16.200
REMARK  5 active torsions:
REMARK  status: ('A' for Active; 'I' for Inactive)
REMARK    1  A    between atoms: C_2  and  C_3 
REMARK    2  A    between atoms: C_7  and  N_8 
REMARK    3  A    between atoms: N_8  and  C_9 
REMARK    4  A    between atoms: C_11  and  N_12 
REMARK    5  A    between atoms: C_14  and  N_15 
ROOT
HETATM    1  C   UNL     1      46.102 -28.410   0.842  1.00  0.00     0.111 A 
HETATM    2  N   UNL     1      46.076 -27.975  -0.428  1.00  0.00    -0.206 NA
HETATM    3  C   UNL     1      45.019 -28.292  -1.177  1.00  0.00     0.202 A 
HETATM    4  N   UNL     1      44.007 -29.060  -0.784  1.00  0.00    -0.199 NA
HETATM    5  C   UNL     1      44.062 -29.512   0.488  1.00  0.00     0.156 A 
HETATM    6  C   UNL     1      45.096 -29.204   1.349  1.00  0.00     0.096 A 
ENDROOT
BRANCH   1   7
HETATM    7  N   UNL     1      47.195 -28.123   1.674  1.00  0.00    -0.265 NA
HETATM    8  H   UNL     1      47.810 -27.453   1.209  1.00  0.00     0.130 HD
BRANCH   7   9
HETATM    9  C   UNL     1      47.983 -29.269   2.143  1.00  0.00     0.133 C 
HETATM   10  C   UNL     1      49.024 -29.679   1.138  1.00  0.00     0.142 A 
HETATM   11  N   UNL     1      50.279 -30.059   1.507  1.00  0.00    -0.253 N 
HETATM   12  N   UNL     1      48.914 -29.784  -0.173  1.00  0.00    -0.215 NA
HETATM   13  N   UNL     1      51.021 -30.425   0.454  1.00  0.00    -0.155 NA
HETATM   14  C   UNL     1      50.819 -30.021   2.848  1.00  0.00     0.153 C 
HETATM   15  C   UNL     1      50.153 -30.250  -0.552  1.00  0.00     0.151 A 
HETATM   16  C   UNL     1      49.710 -29.938   3.893  1.00  0.00     0.024 C 
HETATM   17  C   UNL     1      48.655 -28.904   3.488  1.00  0.00     0.029 C 
BRANCH  15  18
HETATM   18  C   UNL     1      50.497 -30.559  -1.973  1.00  0.00     0.051 C 
HETATM   19  C   UNL     1      49.574 -31.631  -2.552  1.00  0.00     0.018 C 
HETATM   20  C   UNL     1      51.961 -30.982  -2.106  1.00  0.00     0.018 C 
ENDBRANCH  15  18
ENDBRANCH   7   9
ENDBRANCH   1   7
BRANCH   3  21
HETATM   21  N   UNL     1      44.996 -27.828  -2.475  1.00  0.00    -0.271 NA
HETATM   22  H   UNL     1      45.519 -28.451  -3.074  1.00  0.00     0.127 HD
HETATM   23  H   UNL     1      44.048 -27.607  -2.748  1.00  0.00     0.127 HD
ENDBRANCH   3  21
BRANCH   5  24
HETATM   24  N   UNL     1      43.010 -30.359   0.945  1.00  0.00    -0.227 N 
HETATM   25  N   UNL     1      41.874 -29.871   1.517  1.00  0.00    -0.179 NA
HETATM   26  C   UNL     1      41.164 -30.959   1.823  1.00  0.00     0.141 A 
HETATM   27  C   UNL     1      41.811 -32.150   1.457  1.00  0.00     0.040 A 
HETATM   28  C   UNL     1      42.994 -31.738   0.894  1.00  0.00     0.122 A 
ENDBRANCH   5  24
TORSDOF 5
ENDMDL
