MODEL 1
REMARK VINA RESULT:      -9.2      0.000      0.000
REMARK  6 active torsions:
REMARK  status: ('A' for Active; 'I' for Inactive)
REMARK    1  A    between atoms: C_6  and  C_7 
REMARK    2  A    between atoms: C_7  and  C_8 
REMARK       I    between atoms: C_8  and  N_9 
REMARK    3  A    between atoms: N_9  and  C_10 
REMARK    4  A    between atoms: C_12  and  C_13 
REMARK       I    between atoms: C_13  and  N_14 
REMARK    5  A    between atoms: N_14  and  C_15 
REMARK    6  A    between atoms: C_15  and  C_16 
ROOT
HETATM    1  C   UNL     1      43.803 -11.933   6.901  1.00  0.00     0.035 A 
HETATM    2  C   UNL     1      43.710 -13.306   7.163  1.00  0.00     0.046 A 
HETATM    3  C   UNL     1      43.333 -14.198   6.147  1.00  0.00     0.034 A 
HETATM    4  C   UNL     1      43.044 -13.696   4.869  1.00  0.00     0.017 A 
HETATM    5  C   UNL     1      43.125 -12.331   4.606  1.00  0.00     0.003 A 
HETATM    6  C   UNL     1      43.500 -11.455   5.620  1.00  0.00     0.029 A 
ENDROOT
BRANCH   1   7
HETATM    7  N   UNL     1      44.168 -10.971   7.860  1.00  0.00    -0.327 N 
HETATM    8  C   UNL     1      45.422 -10.463   8.141  1.00  0.00     0.227 C 
HETATM    9  O   UNL     1      46.465 -10.780   7.570  1.00  0.00    -0.273 OA
HETATM   10  H   UNL     1      43.405 -10.522   8.374  1.00  0.00     0.169 HD
BRANCH   8  11
HETATM   11  C   UNL     1      45.457  -9.511   9.332  1.00  0.00     0.164 C 
BRANCH  11  12
HETATM   12  C   UNL     1      44.510  -9.858  10.437  1.00  0.00     0.065 A 
HETATM   13  N   UNL     1      44.278 -11.140  10.768  1.00  0.00    -0.179 NA
HETATM   14  N   UNL     1      43.432 -11.060  11.811  1.00  0.00    -0.282 N 
HETATM   15  C   UNL     1      43.116  -9.778  12.161  1.00  0.00     0.026 A 
HETATM   16  H   UNL     1      43.116 -11.922  12.244  1.00  0.00     0.189 HD
HETATM   17  C   UNL     1      42.212  -9.460  13.290  1.00  0.00     0.070 C 
HETATM   18  C   UNL     1      43.797  -8.971  11.278  1.00  0.00     0.055 A 
ENDBRANCH  11  12
ENDBRANCH   8  11
ENDBRANCH   1   7
BRANCH   3  19
HETATM   19  C   UNL     1      43.184 -15.673   6.348  1.00  0.00     0.252 C 
HETATM   20  N   UNL     1      44.087 -16.517   5.736  1.00  0.00    -0.353 N 
HETATM   21  H   UNL     1      44.704 -16.181   5.011  1.00  0.00     0.163 HD
HETATM   22  O   UNL     1      42.267 -16.097   7.048  1.00  0.00    -0.268 OA
BRANCH  20  23
HETATM   23  C   UNL     1      43.930 -17.952   5.858  1.00  0.00     0.161 C 
BRANCH  23  24
HETATM   24  C   UNL     1      43.798 -18.654   4.530  1.00  0.00    -0.041 A 
HETATM   25  C   UNL     1      44.017 -20.034   4.402  1.00  0.00     0.009 A 
HETATM   26  C   UNL     1      43.817 -20.675   3.178  1.00  0.00     0.001 A 
HETATM   27  C   UNL     1      43.377 -19.951   2.072  1.00  0.00     0.000 A 
HETATM   28  C   UNL     1      43.137 -18.585   2.189  1.00  0.00     0.001 A 
HETATM   29  C   UNL     1      43.342 -17.940   3.410  1.00  0.00     0.009 A 
ENDBRANCH  23  24
ENDBRANCH  20  23
ENDBRANCH   3  19
TORSDOF 6
ENDMDL
MODEL 2
REMARK VINA RESULT:      -8.5      1.896      2.554
REMARK  6 active torsions:
REMARK  status: ('A' for Active; 'I' for Inactive)
REMARK    1  A    between atoms: C_6  and  C_7 
REMARK    2  A    between atoms: C_7  and  C_8 
REMARK       I    between atoms: C_8  and  N_9 
REMARK    3  A    between atoms: N_9  and  C_10 
REMARK    4  A    between atoms: C_12  and  C_13 
REMARK       I    between atoms: C_13  and  N_14 
REMARK    5  A    between atoms: N_14  and  C_15 
REMARK    6  A    between atoms: C_15  and  C_16 
ROOT
HETATM    1  C   UNL     1      42.369 -12.515   5.996  1.00  0.00     0.035 A 
HETATM    2  C   UNL     1      42.621 -13.603   5.151  1.00  0.00     0.046 A 
HETATM    3  C   UNL     1      41.607 -14.105   4.319  1.00  0.00     0.034 A 
HETATM    4  C   UNL     1      40.339 -13.505   4.350  1.00  0.00     0.017 A 
HETATM    5  C   UNL     1      40.080 -12.429   5.196  1.00  0.00     0.003 A 
HETATM    6  C   UNL     1      41.092 -11.940   6.016  1.00  0.00     0.029 A 
ENDROOT
BRANCH   1   7
HETATM    7  N   UNL     1      43.324 -11.953   6.863  1.00  0.00    -0.327 N 
HETATM    8  C   UNL     1      44.530 -11.356   6.552  1.00  0.00     0.227 C 
HETATM    9  O   UNL     1      44.981 -11.208   5.416  1.00  0.00    -0.273 OA
HETATM   10  H   UNL     1      43.071 -11.905   7.854  1.00  0.00     0.169 HD
BRANCH   8  11
HETATM   11  C   UNL     1      45.363 -10.961   7.767  1.00  0.00     0.164 C 
BRANCH  11  12
HETATM   12  C   UNL     1      44.655 -10.084   8.751  1.00  0.00     0.065 A 
HETATM   13  N   UNL     1      43.661  -9.269   8.357  1.00  0.00    -0.179 NA
HETATM   14  N   UNL     1      43.244  -8.689   9.497  1.00  0.00    -0.282 N 
HETATM   15  C   UNL     1      43.929  -9.103  10.603  1.00  0.00     0.026 A 
HETATM   16  H   UNL     1      42.478  -8.025   9.448  1.00  0.00     0.189 HD
HETATM   17  C   UNL     1      43.624  -8.603  11.963  1.00  0.00     0.070 C 
HETATM   18  C   UNL     1      44.861 -10.007  10.149  1.00  0.00     0.055 A 
ENDBRANCH  11  12
ENDBRANCH   8  11
ENDBRANCH   1   7
BRANCH   3  19
HETATM   19  C   UNL     1      41.783 -15.278   3.408  1.00  0.00     0.252 C 
HETATM   20  N   UNL     1      43.063 -15.699   3.114  1.00  0.00    -0.353 N 
HETATM   21  H   UNL     1      43.863 -15.123   3.331  1.00  0.00     0.163 HD
HETATM   22  O   UNL     1      40.791 -15.835   2.944  1.00  0.00    -0.268 OA
BRANCH  20  23
HETATM   23  C   UNL     1      43.268 -16.790   2.184  1.00  0.00     0.161 C 
BRANCH  23  24
HETATM   24  C   UNL     1      43.476 -18.122   2.860  1.00  0.00    -0.041 A 
HETATM   25  C   UNL     1      43.337 -19.331   2.161  1.00  0.00     0.009 A 
HETATM   26  C   UNL     1      43.605 -20.550   2.788  1.00  0.00     0.001 A 
HETATM   27  C   UNL     1      44.034 -20.575   4.113  1.00  0.00     0.000 A 
HETATM   28  C   UNL     1      44.195 -19.383   4.814  1.00  0.00     0.001 A 
HETATM   29  C   UNL     1      43.921 -18.163   4.190  1.00  0.00     0.009 A 
ENDBRANCH  23  24
ENDBRANCH  20  23
ENDBRANCH   3  19
TORSDOF 6
ENDMDL
MODEL 3
REMARK VINA RESULT:      -8.5      4.935      7.928
REMARK  6 active torsions:
REMARK  status: ('A' for Active; 'I' for Inactive)
REMARK    1  A    between atoms: C_6  and  C_7 
REMARK    2  A    between atoms: C_7  and  C_8 
REMARK       I    between atoms: C_8  and  N_9 
REMARK    3  A    between atoms: N_9  and  C_10 
REMARK    4  A    between atoms: C_12  and  C_13 
REMARK       I    between atoms: C_13  and  N_14 
REMARK    5  A    between atoms: N_14  and  C_15 
REMARK    6  A    between atoms: C_15  and  C_16 
ROOT
HETATM    1  C   UNL     1      40.481 -13.123   3.308  1.00  0.00     0.035 A 
HETATM    2  C   UNL     1      41.280 -14.212   3.678  1.00  0.00     0.046 A 
HETATM    3  C   UNL     1      41.328 -14.635   5.016  1.00  0.00     0.034 A 
HETATM    4  C   UNL     1      40.571 -13.948   5.977  1.00  0.00     0.017 A 
HETATM    5  C   UNL     1      39.783 -12.859   5.617  1.00  0.00     0.003 A 
HETATM    6  C   UNL     1      39.742 -12.448   4.288  1.00  0.00     0.029 A 
ENDROOT
BRANCH   1   7
HETATM    7  N   UNL     1      40.378 -12.631   1.995  1.00  0.00    -0.327 N 
HETATM    8  C   UNL     1      41.210 -11.748   1.333  1.00  0.00     0.227 C 
HETATM    9  O   UNL     1      42.224 -11.233   1.805  1.00  0.00    -0.273 OA
HETATM   10  H   UNL     1      39.634 -13.027   1.413  1.00  0.00     0.169 HD
BRANCH   8  11
HETATM   11  C   UNL     1      40.720 -11.348  -0.055  1.00  0.00     0.164 C 
BRANCH  11  12
HETATM   12  C   UNL     1      39.808 -12.340  -0.704  1.00  0.00     0.065 A 
HETATM   13  N   UNL     1      38.474 -12.247  -0.561  1.00  0.00    -0.179 NA
HETATM   14  N   UNL     1      37.994 -13.257  -1.309  1.00  0.00    -0.282 N 
HETATM   15  C   UNL     1      38.967 -13.990  -1.927  1.00  0.00     0.026 A 
HETATM   16  H   UNL     1      36.988 -13.383  -1.362  1.00  0.00     0.189 HD
HETATM   17  C   UNL     1      38.660 -15.138  -2.809  1.00  0.00     0.070 C 
HETATM   18  C   UNL     1      40.161 -13.421  -1.546  1.00  0.00     0.055 A 
ENDBRANCH  11  12
ENDBRANCH   8  11
ENDBRANCH   1   7
BRANCH   3  19
HETATM   19  C   UNL     1      42.174 -15.770   5.499  1.00  0.00     0.252 C 
HETATM   20  N   UNL     1      43.364 -16.029   4.852  1.00  0.00    -0.353 N 
HETATM   21  H   UNL     1      43.571 -15.610   3.957  1.00  0.00     0.163 HD
HETATM   22  O   UNL     1      41.792 -16.442   6.454  1.00  0.00    -0.268 OA
BRANCH  20  23
HETATM   23  C   UNL     1      44.173 -17.162   5.254  1.00  0.00     0.161 C 
BRANCH  23  24
HETATM   24  C   UNL     1      44.021 -18.357   4.348  1.00  0.00    -0.041 A 
HETATM   25  C   UNL     1      44.206 -19.666   4.819  1.00  0.00     0.009 A 
HETATM   26  C   UNL     1      43.989 -20.761   3.980  1.00  0.00     0.001 A 
HETATM   27  C   UNL     1      43.567 -20.564   2.667  1.00  0.00     0.000 A 
HETATM   28  C   UNL     1      43.362 -19.272   2.191  1.00  0.00     0.001 A 
HETATM   29  C   UNL     1      43.584 -18.175   3.026  1.00  0.00     0.009 A 
ENDBRANCH  23  24
ENDBRANCH  20  23
ENDBRANCH   3  19
TORSDOF 6
ENDMDL
MODEL 4
REMARK VINA RESULT:      -8.2      2.499      3.664
REMARK  6 active torsions:
REMARK  status: ('A' for Active; 'I' for Inactive)
REMARK    1  A    between atoms: C_6  and  C_7 
REMARK    2  A    between atoms: C_7  and  C_8 
REMARK       I    between atoms: C_8  and  N_9 
REMARK    3  A    between atoms: N_9  and  C_10 
REMARK    4  A    between atoms: C_12  and  C_13 
REMARK       I    between atoms: C_13  and  N_14 
REMARK    5  A    between atoms: N_14  and  C_15 
REMARK    6  A    between atoms: C_15  and  C_16 
ROOT
HETATM    1  C   UNL     1      44.033 -10.005   7.979  1.00  0.00     0.035 A 
HETATM    2  C   UNL     1      43.517 -10.521   6.784  1.00  0.00     0.046 A 
HETATM    3  C   UNL     1      44.343 -11.239   5.904  1.00  0.00     0.034 A 
HETATM    4  C   UNL     1      45.694 -11.426   6.236  1.00  0.00     0.017 A 
HETATM    5  C   UNL     1      46.215 -10.906   7.417  1.00  0.00     0.003 A 
HETATM    6  C   UNL     1      45.387 -10.196   8.282  1.00  0.00     0.029 A 
ENDROOT
BRANCH   1   7
HETATM    7  N   UNL     1      43.279  -9.272   8.913  1.00  0.00    -0.327 N 
HETATM    8  C   UNL     1      43.287  -7.912   9.154  1.00  0.00     0.227 C 
HETATM    9  O   UNL     1      43.980  -7.085   8.561  1.00  0.00    -0.273 OA
HETATM   10  H   UNL     1      42.572  -9.791   9.440  1.00  0.00     0.169 HD
BRANCH   8  11
HETATM   11  C   UNL     1      42.415  -7.481  10.330  1.00  0.00     0.164 C 
BRANCH  11  12
HETATM   12  C   UNL     1      41.863  -8.609  11.143  1.00  0.00     0.065 A 
HETATM   13  N   UNL     1      42.681  -9.490  11.744  1.00  0.00    -0.179 NA
HETATM   14  N   UNL     1      41.847 -10.310  12.408  1.00  0.00    -0.282 N 
HETATM   15  C   UNL     1      40.528  -9.986  12.258  1.00  0.00     0.026 A 
HETATM   16  H   UNL     1      42.246 -11.067  12.954  1.00  0.00     0.189 HD
HETATM   17  C   UNL     1      39.441 -10.748  12.914  1.00  0.00     0.070 C 
HETATM   18  C   UNL     1      40.506  -8.886  11.432  1.00  0.00     0.055 A 
ENDBRANCH  11  12
ENDBRANCH   8  11
ENDBRANCH   1   7
BRANCH   3  19
HETATM   19  C   UNL     1      43.878 -11.800   4.598  1.00  0.00     0.252 C 
HETATM   20  N   UNL     1      42.940 -12.811   4.611  1.00  0.00    -0.353 N 
HETATM   21  H   UNL     1      42.719 -13.306   5.463  1.00  0.00     0.163 HD
HETATM   22  O   UNL     1      44.339 -11.353   3.551  1.00  0.00    -0.268 OA
BRANCH  20  23
HETATM   23  C   UNL     1      42.519 -13.420   3.366  1.00  0.00     0.161 C 
BRANCH  23  24
HETATM   24  C   UNL     1      42.809 -14.899   3.295  1.00  0.00    -0.041 A 
HETATM   25  C   UNL     1      42.918 -15.569   2.067  1.00  0.00     0.009 A 
HETATM   26  C   UNL     1      43.259 -16.923   2.023  1.00  0.00     0.001 A 
HETATM   27  C   UNL     1      43.516 -17.618   3.203  1.00  0.00     0.000 A 
HETATM   28  C   UNL     1      43.431 -16.961   4.428  1.00  0.00     0.001 A 
HETATM   29  C   UNL     1      43.083 -15.609   4.474  1.00  0.00     0.009 A 
ENDBRANCH  23  24
ENDBRANCH  20  23
ENDBRANCH   3  19
TORSDOF 6
ENDMDL
MODEL 5
REMARK VINA RESULT:      -8.2      1.585      2.100
REMARK  6 active torsions:
REMARK  status: ('A' for Active; 'I' for Inactive)
REMARK    1  A    between atoms: C_6  and  C_7 
REMARK    2  A    between atoms: C_7  and  C_8 
REMARK       I    between atoms: C_8  and  N_9 
REMARK    3  A    between atoms: N_9  and  C_10 
REMARK    4  A    between atoms: C_12  and  C_13 
REMARK       I    between atoms: C_13  and  N_14 
REMARK    5  A    between atoms: N_14  and  C_15 
REMARK    6  A    between atoms: C_15  and  C_16 
ROOT
HETATM    1  C   UNL     1      42.770 -10.840   6.660  1.00  0.00     0.035 A 
HETATM    2  C   UNL     1      42.476 -12.184   6.397  1.00  0.00     0.046 A 
HETATM    3  C   UNL     1      41.648 -12.532   5.319  1.00  0.00     0.034 A 
HETATM    4  C   UNL     1      41.114 -11.515   4.512  1.00  0.00     0.017 A 
HETATM    5  C   UNL     1      41.395 -10.177   4.773  1.00  0.00     0.003 A 
HETATM    6  C   UNL     1      42.217  -9.843   5.845  1.00  0.00     0.029 A 
ENDROOT
BRANCH   1   7
HETATM    7  N   UNL     1      43.585 -10.403   7.719  1.00  0.00    -0.327 N 
HETATM    8  C   UNL     1      44.959 -10.485   7.844  1.00  0.00     0.227 C 
HETATM    9  O   UNL     1      45.724 -10.969   7.011  1.00  0.00    -0.273 OA
HETATM   10  H   UNL     1      43.122  -9.885   8.471  1.00  0.00     0.169 HD
BRANCH   8  11
HETATM   11  C   UNL     1      45.492 -10.008   9.192  1.00  0.00     0.164 C 
BRANCH  11  12
HETATM   12  C   UNL     1      44.512 -10.098  10.318  1.00  0.00     0.065 A 
HETATM   13  N   UNL     1      44.014 -11.285  10.706  1.00  0.00    -0.179 NA
HETATM   14  N   UNL     1      43.224 -10.981  11.751  1.00  0.00    -0.282 N 
HETATM   15  C   UNL     1      43.199  -9.648  12.049  1.00  0.00     0.026 A 
HETATM   16  H   UNL     1      42.736 -11.736  12.223  1.00  0.00     0.189 HD
HETATM   17  C   UNL     1      42.406  -9.097  13.171  1.00  0.00     0.070 C 
HETATM   18  C   UNL     1      44.024  -9.045  11.127  1.00  0.00     0.055 A 
ENDBRANCH  11  12
ENDBRANCH   8  11
ENDBRANCH   1   7
BRANCH   3  19
HETATM   19  C   UNL     1      41.263 -13.939   4.986  1.00  0.00     0.252 C 
HETATM   20  N   UNL     1      41.710 -14.482   3.800  1.00  0.00    -0.353 N 
HETATM   21  H   UNL     1      42.109 -13.899   3.078  1.00  0.00     0.163 HD
HETATM   22  O   UNL     1      40.561 -14.574   5.770  1.00  0.00    -0.268 OA
BRANCH  20  23
HETATM   23  C   UNL     1      41.300 -15.818   3.418  1.00  0.00     0.161 C 
BRANCH  23  24
HETATM   24  C   UNL     1      42.410 -16.835   3.515  1.00  0.00    -0.041 A 
HETATM   25  C   UNL     1      43.180 -16.975   4.680  1.00  0.00     0.009 A 
HETATM   26  C   UNL     1      44.153 -17.972   4.773  1.00  0.00     0.001 A 
HETATM   27  C   UNL     1      44.356 -18.853   3.713  1.00  0.00     0.000 A 
HETATM   28  C   UNL     1      43.587 -18.738   2.559  1.00  0.00     0.001 A 
HETATM   29  C   UNL     1      42.617 -17.737   2.460  1.00  0.00     0.009 A 
ENDBRANCH  23  24
ENDBRANCH  20  23
ENDBRANCH   3  19
TORSDOF 6
ENDMDL
MODEL 6
REMARK VINA RESULT:      -8.1      2.439      3.787
REMARK  6 active torsions:
REMARK  status: ('A' for Active; 'I' for Inactive)
REMARK    1  A    between atoms: C_6  and  C_7 
REMARK    2  A    between atoms: C_7  and  C_8 
REMARK       I    between atoms: C_8  and  N_9 
REMARK    3  A    between atoms: N_9  and  C_10 
REMARK    4  A    between atoms: C_12  and  C_13 
REMARK       I    between atoms: C_13  and  N_14 
REMARK    5  A    between atoms: N_14  and  C_15 
REMARK    6  A    between atoms: C_15  and  C_16 
ROOT
HETATM    1  C   UNL     1      44.110 -10.583   8.596  1.00  0.00     0.035 A 
HETATM    2  C   UNL     1      43.534 -11.050   7.408  1.00  0.00     0.046 A 
HETATM    3  C   UNL     1      44.342 -11.363   6.303  1.00  0.00     0.034 A 
HETATM    4  C   UNL     1      45.732 -11.195   6.404  1.00  0.00     0.017 A 
HETATM    5  C   UNL     1      46.308 -10.721   7.579  1.00  0.00     0.003 A 
HETATM    6  C   UNL     1      45.498 -10.414   8.669  1.00  0.00     0.029 A 
ENDROOT
BRANCH   1   7
HETATM    7  N   UNL     1      43.376 -10.242   9.747  1.00  0.00    -0.327 N 
HETATM    8  C   UNL     1      43.568 -10.659  11.050  1.00  0.00     0.227 C 
HETATM    9  O   UNL     1      44.454 -11.424  11.432  1.00  0.00    -0.273 OA
HETATM   10  H   UNL     1      42.647  -9.534   9.633  1.00  0.00     0.169 HD
BRANCH   8  11
HETATM   11  C   UNL     1      42.501 -10.172  12.025  1.00  0.00     0.164 C 
BRANCH  11  12
HETATM   12  C   UNL     1      42.256  -8.697  11.997  1.00  0.00     0.065 A 
HETATM   13  N   UNL     1      41.400  -8.158  11.112  1.00  0.00    -0.179 NA
HETATM   14  N   UNL     1      41.402  -6.847  11.413  1.00  0.00    -0.282 N 
HETATM   15  C   UNL     1      42.222  -6.527  12.456  1.00  0.00     0.026 A 
HETATM   16  H   UNL     1      40.810  -6.225  10.870  1.00  0.00     0.189 HD
HETATM   17  C   UNL     1      42.365  -5.143  12.963  1.00  0.00     0.070 C 
HETATM   18  C   UNL     1      42.800  -7.711  12.854  1.00  0.00     0.055 A 
ENDBRANCH  11  12
ENDBRANCH   8  11
ENDBRANCH   1   7
BRANCH   3  19
HETATM   19  C   UNL     1      43.807 -11.842   4.991  1.00  0.00     0.252 C 
HETATM   20  N   UNL     1      43.161 -13.059   4.946  1.00  0.00    -0.353 N 
HETATM   21  H   UNL     1      43.220 -13.708   5.717  1.00  0.00     0.163 HD
HETATM   22  O   UNL     1      43.955 -11.146   3.989  1.00  0.00    -0.268 OA
BRANCH  20  23
HETATM   23  C   UNL     1      42.691 -13.580   3.679  1.00  0.00     0.161 C 
BRANCH  23  24
HETATM   24  C   UNL     1      42.920 -15.062   3.520  1.00  0.00    -0.041 A 
HETATM   25  C   UNL     1      42.952 -15.670   2.255  1.00  0.00     0.009 A 
HETATM   26  C   UNL     1      43.238 -17.031   2.127  1.00  0.00     0.001 A 
HETATM   27  C   UNL     1      43.515 -17.797   3.257  1.00  0.00     0.000 A 
HETATM   28  C   UNL     1      43.505 -17.204   4.517  1.00  0.00     0.001 A 
HETATM   29  C   UNL     1      43.213 -15.844   4.648  1.00  0.00     0.009 A 
ENDBRANCH  23  24
ENDBRANCH  20  23
ENDBRANCH   3  19
TORSDOF 6
ENDMDL
MODEL 7
REMARK VINA RESULT:      -8.0      1.919      2.813
REMARK  6 active torsions:
REMARK  status: ('A' for Active; 'I' for Inactive)
REMARK    1  A    between atoms: C_6  and  C_7 
REMARK    2  A    between atoms: C_7  and  C_8 
REMARK       I    between atoms: C_8  and  N_9 
REMARK    3  A    between atoms: N_9  and  C_10 
REMARK    4  A    between atoms: C_12  and  C_13 
REMARK       I    between atoms: C_13  and  N_14 
REMARK    5  A    between atoms: N_14  and  C_15 
REMARK    6  A    between atoms: C_15  and  C_16 
ROOT
HETATM    1  C   UNL     1      44.374 -10.506   8.157  1.00  0.00     0.035 A 
HETATM    2  C   UNL     1      43.419 -11.362   7.595  1.00  0.00     0.046 A 
HETATM    3  C   UNL     1      43.739 -12.146   6.475  1.00  0.00     0.034 A 
HETATM    4  C   UNL     1      45.027 -12.056   5.924  1.00  0.00     0.017 A 
HETATM    5  C   UNL     1      45.977 -11.199   6.473  1.00  0.00     0.003 A 
HETATM    6  C   UNL     1      45.649 -10.426   7.583  1.00  0.00     0.029 A 
ENDROOT
BRANCH   1   7
HETATM    7  N   UNL     1      44.137  -9.684   9.274  1.00  0.00    -0.327 N 
HETATM    8  C   UNL     1      44.452  -9.914  10.599  1.00  0.00     0.227 C 
HETATM    9  O   UNL     1      45.020 -10.915  11.035  1.00  0.00    -0.273 OA
HETATM   10  H   UNL     1      43.748  -8.756   9.086  1.00  0.00     0.169 HD
BRANCH   8  11
HETATM   11  C   UNL     1      43.936  -8.845  11.557  1.00  0.00     0.164 C 
BRANCH  11  12
HETATM   12  C   UNL     1      42.698  -9.224  12.307  1.00  0.00     0.065 A 
HETATM   13  N   UNL     1      42.482  -8.770  13.554  1.00  0.00    -0.179 NA
HETATM   14  N   UNL     1      41.274  -9.268  13.878  1.00  0.00    -0.282 N 
HETATM   15  C   UNL     1      40.709 -10.019  12.887  1.00  0.00     0.026 A 
HETATM   16  H   UNL     1      40.890  -9.047  14.791  1.00  0.00     0.189 HD
HETATM   17  C   UNL     1      39.377 -10.650  13.026  1.00  0.00     0.070 C 
HETATM   18  C   UNL     1      41.617 -10.016  11.852  1.00  0.00     0.055 A 
ENDBRANCH  11  12
ENDBRANCH   8  11
ENDBRANCH   1   7
BRANCH   3  19
HETATM   19  C   UNL     1      42.772 -13.065   5.798  1.00  0.00     0.252 C 
HETATM   20  N   UNL     1      43.259 -13.986   4.896  1.00  0.00    -0.353 N 
HETATM   21  H   UNL     1      44.201 -13.918   4.539  1.00  0.00     0.163 HD
HETATM   22  O   UNL     1      41.574 -12.978   6.059  1.00  0.00    -0.268 OA
BRANCH  20  23
HETATM   23  C   UNL     1      42.341 -14.845   4.175  1.00  0.00     0.161 C 
BRANCH  23  24
HETATM   24  C   UNL     1      42.927 -16.191   3.830  1.00  0.00    -0.041 A 
HETATM   25  C   UNL     1      43.758 -16.883   4.724  1.00  0.00     0.009 A 
HETATM   26  C   UNL     1      44.230 -18.160   4.413  1.00  0.00     0.001 A 
HETATM   27  C   UNL     1      43.862 -18.770   3.216  1.00  0.00     0.000 A 
HETATM   28  C   UNL     1      43.023 -18.103   2.327  1.00  0.00     0.001 A 
HETATM   29  C   UNL     1      42.555 -16.823   2.633  1.00  0.00     0.009 A 
ENDBRANCH  23  24
ENDBRANCH  20  23
ENDBRANCH   3  19
TORSDOF 6
ENDMDL
MODEL 8
REMARK VINA RESULT:      -8.0      2.322      4.510
REMARK  6 active torsions:
REMARK  status: ('A' for Active; 'I' for Inactive)
REMARK    1  A    between atoms: C_6  and  C_7 
REMARK    2  A    between atoms: C_7  and  C_8 
REMARK       I    between atoms: C_8  and  N_9 
REMARK    3  A    between atoms: N_9  and  C_10 
REMARK    4  A    between atoms: C_12  and  C_13 
REMARK       I    between atoms: C_13  and  N_14 
REMARK    5  A    between atoms: N_14  and  C_15 
REMARK    6  A    between atoms: C_15  and  C_16 
ROOT
HETATM    1  C   UNL     1      44.290 -10.274   9.870  1.00  0.00     0.035 A 
HETATM    2  C   UNL     1      43.905 -10.992   8.731  1.00  0.00     0.046 A 
HETATM    3  C   UNL     1      44.628 -10.866   7.534  1.00  0.00     0.034 A 
HETATM    4  C   UNL     1      45.738 -10.008   7.494  1.00  0.00     0.017 A 
HETATM    5  C   UNL     1      46.120  -9.284   8.621  1.00  0.00     0.003 A 
HETATM    6  C   UNL     1      45.395  -9.416   9.802  1.00  0.00     0.029 A 
ENDROOT
BRANCH   1   7
HETATM    7  N   UNL     1      43.621 -10.337  11.105  1.00  0.00    -0.327 N 
HETATM    8  C   UNL     1      42.377  -9.837  11.442  1.00  0.00     0.227 C 
HETATM    9  O   UNL     1      41.620  -9.235  10.681  1.00  0.00    -0.273 OA
HETATM   10  H   UNL     1      44.068 -10.889  11.842  1.00  0.00     0.169 HD
BRANCH   8  11
HETATM   11  C   UNL     1      42.021  -9.992  12.917  1.00  0.00     0.164 C 
BRANCH  11  12
HETATM   12  C   UNL     1      42.311  -8.790  13.759  1.00  0.00     0.065 A 
HETATM   13  N   UNL     1      43.255  -7.905  13.394  1.00  0.00    -0.179 NA
HETATM   14  N   UNL     1      43.198  -6.957  14.347  1.00  0.00    -0.282 N 
HETATM   15  C   UNL     1      42.254  -7.198  15.303  1.00  0.00     0.026 A 
HETATM   16  H   UNL     1      43.829  -6.164  14.277  1.00  0.00     0.189 HD
HETATM   17  C   UNL     1      42.012  -6.275  16.436  1.00  0.00     0.070 C 
HETATM   18  C   UNL     1      41.663  -8.391  14.952  1.00  0.00     0.055 A 
ENDBRANCH  11  12
ENDBRANCH   8  11
ENDBRANCH   1   7
BRANCH   3  19
HETATM   19  C   UNL     1      44.270 -11.575   6.267  1.00  0.00     0.252 C 
HETATM   20  N   UNL     1      43.278 -12.533   6.304  1.00  0.00    -0.353 N 
HETATM   21  H   UNL     1      42.942 -12.900   7.183  1.00  0.00     0.163 HD
HETATM   22  O   UNL     1      44.863 -11.291   5.229  1.00  0.00    -0.268 OA
BRANCH  20  23
HETATM   23  C   UNL     1      42.954 -13.283   5.108  1.00  0.00     0.161 C 
BRANCH  23  24
HETATM   24  C   UNL     1      43.309 -14.745   5.204  1.00  0.00    -0.041 A 
HETATM   25  C   UNL     1      43.112 -15.623   4.127  1.00  0.00     0.009 A 
HETATM   26  C   UNL     1      43.516 -16.957   4.213  1.00  0.00     0.001 A 
HETATM   27  C   UNL     1      44.138 -17.426   5.368  1.00  0.00     0.000 A 
HETATM   28  C   UNL     1      44.357 -16.563   6.438  1.00  0.00     0.001 A 
HETATM   29  C   UNL     1      43.948 -15.230   6.356  1.00  0.00     0.009 A 
ENDBRANCH  23  24
ENDBRANCH  20  23
ENDBRANCH   3  19
TORSDOF 6
ENDMDL
MODEL 9
REMARK VINA RESULT:      -7.8      3.744      9.925
REMARK  6 active torsions:
REMARK  status: ('A' for Active; 'I' for Inactive)
REMARK    1  A    between atoms: C_6  and  C_7 
REMARK    2  A    between atoms: C_7  and  C_8 
REMARK       I    between atoms: C_8  and  N_9 
REMARK    3  A    between atoms: N_9  and  C_10 
REMARK    4  A    between atoms: C_12  and  C_13 
REMARK       I    between atoms: C_13  and  N_14 
REMARK    5  A    between atoms: N_14  and  C_15 
REMARK    6  A    between atoms: C_15  and  C_16 
ROOT
HETATM    1  C   UNL     1      41.429 -14.912   4.873  1.00  0.00     0.035 A 
HETATM    2  C   UNL     1      42.214 -13.770   5.079  1.00  0.00     0.046 A 
HETATM    3  C   UNL     1      42.960 -13.624   6.259  1.00  0.00     0.034 A 
HETATM    4  C   UNL     1      42.902 -14.634   7.233  1.00  0.00     0.017 A 
HETATM    5  C   UNL     1      42.115 -15.766   7.038  1.00  0.00     0.003 A 
HETATM    6  C   UNL     1      41.380 -15.901   5.864  1.00  0.00     0.029 A 
ENDROOT
BRANCH   1   7
HETATM    7  N   UNL     1      40.650 -15.136   3.724  1.00  0.00    -0.327 N 
HETATM    8  C   UNL     1      40.886 -16.003   2.675  1.00  0.00     0.227 C 
HETATM    9  O   UNL     1      41.855 -16.755   2.574  1.00  0.00    -0.273 OA
HETATM   10  H   UNL     1      39.746 -14.656   3.682  1.00  0.00     0.169 HD
BRANCH   8  11
HETATM   11  C   UNL     1      39.875 -15.896   1.537  1.00  0.00     0.164 C 
BRANCH  11  12
HETATM   12  C   UNL     1      40.188 -14.842   0.522  1.00  0.00     0.065 A 
HETATM   13  N   UNL     1      41.109 -13.896   0.773  1.00  0.00    -0.179 NA
HETATM   14  N   UNL     1      41.152 -13.174  -0.362  1.00  0.00    -0.282 N 
HETATM   15  C   UNL     1      40.297 -13.622  -1.328  1.00  0.00     0.026 A 
HETATM   16  H   UNL     1      41.797 -12.391  -0.412  1.00  0.00     0.189 HD
HETATM   17  C   UNL     1      40.192 -12.982  -2.659  1.00  0.00     0.070 C 
HETATM   18  C   UNL     1      39.648 -14.705  -0.779  1.00  0.00     0.055 A 
ENDBRANCH  11  12
ENDBRANCH   8  11
ENDBRANCH   1   7
BRANCH   3  19
HETATM   19  C   UNL     1      43.802 -12.427   6.569  1.00  0.00     0.252 C 
HETATM   20  N   UNL     1      43.845 -11.970   7.869  1.00  0.00    -0.353 N 
HETATM   21  H   UNL     1      43.180 -12.292   8.557  1.00  0.00     0.163 HD
HETATM   22  O   UNL     1      44.430 -11.882   5.665  1.00  0.00    -0.268 OA
BRANCH  20  23
HETATM   23  C   UNL     1      44.599 -10.775   8.189  1.00  0.00     0.161 C 
BRANCH  23  24
HETATM   24  C   UNL     1      44.054 -10.024   9.378  1.00  0.00    -0.041 A 
HETATM   25  C   UNL     1      43.872 -10.649  10.622  1.00  0.00     0.009 A 
HETATM   26  C   UNL     1      43.435  -9.916  11.728  1.00  0.00     0.001 A 
HETATM   27  C   UNL     1      43.195  -8.549  11.611  1.00  0.00     0.000 A 
HETATM   28  C   UNL     1      43.390  -7.912  10.388  1.00  0.00     0.001 A 
HETATM   29  C   UNL     1      43.820  -8.644   9.279  1.00  0.00     0.009 A 
ENDBRANCH  23  24
ENDBRANCH  20  23
ENDBRANCH   3  19
TORSDOF 6
ENDMDL
MODEL 10
REMARK VINA RESULT:      -7.8      2.515     10.039
REMARK  6 active torsions:
REMARK  status: ('A' for Active; 'I' for Inactive)
REMARK    1  A    between atoms: C_6  and  C_7 
REMARK    2  A    between atoms: C_7  and  C_8 
REMARK       I    between atoms: C_8  and  N_9 
REMARK    3  A    between atoms: N_9  and  C_10 
REMARK    4  A    between atoms: C_12  and  C_13 
REMARK       I    between atoms: C_13  and  N_14 
REMARK    5  A    between atoms: N_14  and  C_15 
REMARK    6  A    between atoms: C_15  and  C_16 
ROOT
HETATM    1  C   UNL     1      44.315 -11.185   6.495  1.00  0.00     0.035 A 
HETATM    2  C   UNL     1      43.788 -10.124   7.243  1.00  0.00     0.046 A 
HETATM    3  C   UNL     1      44.618  -9.371   8.088  1.00  0.00     0.034 A 
HETATM    4  C   UNL     1      45.980  -9.698   8.177  1.00  0.00     0.017 A 
HETATM    5  C   UNL     1      46.507 -10.757   7.443  1.00  0.00     0.003 A 
HETATM    6  C   UNL     1      45.675 -11.498   6.608  1.00  0.00     0.029 A 
ENDROOT
BRANCH   1   7
HETATM    7  N   UNL     1      43.556 -11.993   5.629  1.00  0.00    -0.327 N 
HETATM    8  C   UNL     1      43.501 -11.968   4.249  1.00  0.00     0.227 C 
HETATM    9  O   UNL     1      44.139 -11.206   3.523  1.00  0.00    -0.273 OA
HETATM   10  H   UNL     1      43.026 -12.755   6.060  1.00  0.00     0.169 HD
BRANCH   8  11
HETATM   11  C   UNL     1      42.472 -12.921   3.648  1.00  0.00     0.164 C 
BRANCH  11  12
HETATM   12  C   UNL     1      42.846 -14.368   3.718  1.00  0.00     0.065 A 
HETATM   13  N   UNL     1      43.096 -14.959   4.899  1.00  0.00    -0.179 NA
HETATM   14  N   UNL     1      43.344 -16.241   4.576  1.00  0.00    -0.282 N 
HETATM   15  C   UNL     1      43.259 -16.494   3.237  1.00  0.00     0.026 A 
HETATM   16  H   UNL     1      43.555 -16.895   5.323  1.00  0.00     0.189 HD
HETATM   17  C   UNL     1      43.481 -17.841   2.664  1.00  0.00     0.070 C 
HETATM   18  C   UNL     1      42.944 -15.290   2.649  1.00  0.00     0.055 A 
ENDBRANCH  11  12
ENDBRANCH   8  11
ENDBRANCH   1   7
BRANCH   3  19
HETATM   19  C   UNL     1      44.132  -8.241   8.940  1.00  0.00     0.252 C 
HETATM   20  N   UNL     1      43.198  -8.507   9.918  1.00  0.00    -0.353 N 
HETATM   21  H   UNL     1      42.698  -9.384   9.936  1.00  0.00     0.163 HD
HETATM   22  O   UNL     1      44.573  -7.110   8.750  1.00  0.00    -0.268 OA
BRANCH  20  23
HETATM   23  C   UNL     1      42.660  -7.424  10.716  1.00  0.00     0.161 C 
BRANCH  23  24
HETATM   24  C   UNL     1      42.402  -7.808  12.151  1.00  0.00    -0.041 A 
HETATM   25  C   UNL     1      43.074  -7.182  13.212  1.00  0.00     0.009 A 
HETATM   26  C   UNL     1      42.766  -7.503  14.536  1.00  0.00     0.001 A 
HETATM   27  C   UNL     1      41.772  -8.437  14.817  1.00  0.00     0.000 A 
HETATM   28  C   UNL     1      41.084  -9.052  13.775  1.00  0.00     0.001 A 
HETATM   29  C   UNL     1      41.394  -8.738  12.450  1.00  0.00     0.009 A 
ENDBRANCH  23  24
ENDBRANCH  20  23
ENDBRANCH   3  19
TORSDOF 6
ENDMDL
