MODEL 1
REMARK VINA RESULT:      -7.9      0.000      0.000
REMARK  3 active torsions:
REMARK  status: ('A' for Active; 'I' for Inactive)
REMARK    1  A    between atoms: C_7  and  C_8 
REMARK    2  A    between atoms: N_11  and  C_13 
REMARK    3  A    between atoms: C_13  and  C_14 
ROOT
HETATM    1  C   UNL     1      41.038 -15.565   6.399  1.00  0.00     0.024 C 
HETATM    2  C   UNL     1      40.267 -14.228   6.358  1.00  0.00     0.037 C 
HETATM    3  C   UNL     1      41.113 -13.109   5.763  1.00  0.00     0.236 C 
HETATM    4  N   UNL     1      42.405 -12.940   6.531  1.00  0.00    -0.067 N 
HETATM    5  H   UNL     1      42.175 -12.594   7.473  1.00  0.00     0.280 HD
HETATM    6  C   UNL     1      43.170 -14.235   6.705  1.00  0.00     0.236 C 
HETATM    7  C   UNL     1      42.262 -15.312   7.282  1.00  0.00     0.037 C 
ENDROOT
BRANCH   1   8
HETATM    8  C   UNL     1      41.326 -16.113   5.006  1.00  0.00    -0.026 A 
HETATM    9  C   UNL     1      42.328 -17.055   4.551  1.00  0.00    -0.001 A 
HETATM   10  C   UNL     1      42.212 -17.146   3.158  1.00  0.00     0.045 A 
HETATM   11  C   UNL     1      43.340 -17.837   5.162  1.00  0.00     0.017 A 
HETATM   12  C   UNL     1      43.071 -17.915   2.361  1.00  0.00     0.072 A 
HETATM   13  N   UNL     1      41.129 -16.394   2.785  1.00  0.00    -0.365 N 
HETATM   14  C   UNL     1      44.073 -18.631   3.003  1.00  0.00     0.118 A 
HETATM   15  C   UNL     1      44.208 -18.611   4.380  1.00  0.00     0.043 A 
HETATM   16  F   UNL     1      44.922 -19.368   2.274  1.00  0.00    -0.206 F 
HETATM   17  C   UNL     1      40.588 -15.782   3.879  1.00  0.00     0.096 A 
HETATM   18  H   UNL     1      40.777 -16.325   1.837  1.00  0.00     0.165 HD
ENDBRANCH   1   8
BRANCH   4  19
HETATM   19  C   UNL     1      43.253 -11.854   5.881  1.00  0.00     0.282 C 
BRANCH  19  20
HETATM   20  C   UNL     1      44.322 -11.308   6.754  1.00  0.00     0.027 A 
HETATM   21  S   UNL     1      43.970 -10.605   8.281  1.00  0.00    -0.084 SA
HETATM   22  C   UNL     1      45.646 -10.317   8.518  1.00  0.00     0.166 A 
HETATM   23  N   UNL     1      46.435 -10.718   7.547  1.00  0.00    -0.265 NA
HETATM   24  C   UNL     1      45.684 -11.262   6.529  1.00  0.00     0.133 A 
ENDBRANCH  19  20
ENDBRANCH   4  19
TORSDOF 3
ENDMDL
MODEL 2
REMARK VINA RESULT:      -7.6      3.371      4.506
REMARK  3 active torsions:
REMARK  status: ('A' for Active; 'I' for Inactive)
REMARK    1  A    between atoms: C_7  and  C_8 
REMARK    2  A    between atoms: N_11  and  C_13 
REMARK    3  A    between atoms: C_13  and  C_14 
ROOT
HETATM    1  C   UNL     1      42.734 -15.233   2.322  1.00  0.00     0.024 C 
HETATM    2  C   UNL     1      43.094 -13.798   2.759  1.00  0.00     0.037 C 
HETATM    3  C   UNL     1      42.378 -13.405   4.046  1.00  0.00     0.236 C 
HETATM    4  N   UNL     1      40.878 -13.541   3.894  1.00  0.00    -0.067 N 
HETATM    5  H   UNL     1      40.560 -12.836   3.216  1.00  0.00     0.280 HD
HETATM    6  C   UNL     1      40.452 -14.895   3.365  1.00  0.00     0.236 C 
HETATM    7  C   UNL     1      41.220 -15.232   2.095  1.00  0.00     0.037 C 
ENDROOT
BRANCH   1   8
HETATM    8  C   UNL     1      43.258 -16.286   3.292  1.00  0.00    -0.026 A 
HETATM    9  C   UNL     1      43.430 -17.716   3.132  1.00  0.00    -0.001 A 
HETATM   10  C   UNL     1      43.867 -18.223   4.362  1.00  0.00     0.045 A 
HETATM   11  C   UNL     1      43.250 -18.649   2.081  1.00  0.00     0.017 A 
HETATM   12  C   UNL     1      44.071 -19.588   4.605  1.00  0.00     0.072 A 
HETATM   13  N   UNL     1      44.064 -17.157   5.201  1.00  0.00    -0.365 N 
HETATM   14  C   UNL     1      43.842 -20.468   3.555  1.00  0.00     0.118 A 
HETATM   15  C   UNL     1      43.450 -20.018   2.306  1.00  0.00     0.043 A 
HETATM   16  F   UNL     1      44.014 -21.782   3.752  1.00  0.00    -0.206 F 
HETATM   17  C   UNL     1      43.714 -15.997   4.571  1.00  0.00     0.096 A 
HETATM   18  H   UNL     1      44.434 -17.228   6.141  1.00  0.00     0.165 HD
ENDBRANCH   1   8
BRANCH   4  19
HETATM   19  C   UNL     1      40.194 -13.196   5.211  1.00  0.00     0.282 C 
BRANCH  19  20
HETATM   20  C   UNL     1      39.468 -11.901   5.201  1.00  0.00     0.027 A 
HETATM   21  S   UNL     1      39.276 -10.985   3.760  1.00  0.00    -0.084 SA
HETATM   22  C   UNL     1      38.398  -9.806   4.646  1.00  0.00     0.166 A 
HETATM   23  N   UNL     1      38.236 -10.058   5.925  1.00  0.00    -0.265 NA
HETATM   24  C   UNL     1      38.864 -11.239   6.251  1.00  0.00     0.133 A 
ENDBRANCH  19  20
ENDBRANCH   4  19
TORSDOF 3
ENDMDL
MODEL 3
REMARK VINA RESULT:      -7.5      1.595      2.125
REMARK  3 active torsions:
REMARK  status: ('A' for Active; 'I' for Inactive)
REMARK    1  A    between atoms: C_7  and  C_8 
REMARK    2  A    between atoms: N_11  and  C_13 
REMARK    3  A    between atoms: C_13  and  C_14 
ROOT
HETATM    1  C   UNL     1      41.414 -14.884   4.629  1.00  0.00     0.024 C 
HETATM    2  C   UNL     1      41.629 -13.922   3.442  1.00  0.00     0.037 C 
HETATM    3  C   UNL     1      42.866 -13.054   3.637  1.00  0.00     0.236 C 
HETATM    4  N   UNL     1      42.780 -12.273   4.930  1.00  0.00    -0.067 N 
HETATM    5  H   UNL     1      42.017 -11.589   4.841  1.00  0.00     0.280 HD
HETATM    6  C   UNL     1      42.466 -13.139   6.131  1.00  0.00     0.236 C 
HETATM    7  C   UNL     1      41.235 -13.993   5.860  1.00  0.00     0.037 C 
ENDROOT
BRANCH   1   8
HETATM    8  C   UNL     1      42.511 -15.940   4.728  1.00  0.00    -0.026 A 
HETATM    9  C   UNL     1      42.839 -17.045   3.851  1.00  0.00    -0.001 A 
HETATM   10  C   UNL     1      43.883 -17.758   4.452  1.00  0.00     0.045 A 
HETATM   11  C   UNL     1      42.358 -17.537   2.612  1.00  0.00     0.017 A 
HETATM   12  C   UNL     1      44.417 -18.940   3.921  1.00  0.00     0.072 A 
HETATM   13  N   UNL     1      44.257 -17.071   5.578  1.00  0.00    -0.365 N 
HETATM   14  C   UNL     1      43.884 -19.404   2.725  1.00  0.00     0.118 A 
HETATM   15  C   UNL     1      42.879 -18.717   2.065  1.00  0.00     0.043 A 
HETATM   16  F   UNL     1      44.360 -20.537   2.192  1.00  0.00    -0.206 F 
HETATM   17  C   UNL     1      43.452 -15.981   5.747  1.00  0.00     0.096 A 
HETATM   18  H   UNL     1      45.030 -17.331   6.179  1.00  0.00     0.165 HD
ENDBRANCH   1   8
BRANCH   4  19
HETATM   19  C   UNL     1      44.053 -11.459   5.125  1.00  0.00     0.282 C 
BRANCH  19  20
HETATM   20  C   UNL     1      44.316 -11.064   6.532  1.00  0.00     0.027 A 
HETATM   21  S   UNL     1      43.241 -10.044   7.399  1.00  0.00    -0.084 SA
HETATM   22  C   UNL     1      44.265 -10.158   8.772  1.00  0.00     0.166 A 
HETATM   23  N   UNL     1      45.334 -10.906   8.624  1.00  0.00    -0.265 NA
HETATM   24  C   UNL     1      45.381 -11.406   7.342  1.00  0.00     0.133 A 
ENDBRANCH  19  20
ENDBRANCH   4  19
TORSDOF 3
ENDMDL
MODEL 4
REMARK VINA RESULT:      -7.5      2.608      3.634
REMARK  3 active torsions:
REMARK  status: ('A' for Active; 'I' for Inactive)
REMARK    1  A    between atoms: C_7  and  C_8 
REMARK    2  A    between atoms: N_11  and  C_13 
REMARK    3  A    between atoms: C_13  and  C_14 
ROOT
HETATM    1  C   UNL     1      43.555 -15.280   6.295  1.00  0.00     0.024 C 
HETATM    2  C   UNL     1      42.394 -15.591   7.263  1.00  0.00     0.037 C 
HETATM    3  C   UNL     1      41.054 -15.131   6.702  1.00  0.00     0.236 C 
HETATM    4  N   UNL     1      41.081 -13.652   6.381  1.00  0.00    -0.067 N 
HETATM    5  H   UNL     1      41.163 -13.134   7.266  1.00  0.00     0.280 HD
HETATM    6  C   UNL     1      42.257 -13.251   5.516  1.00  0.00     0.236 C 
HETATM    7  C   UNL     1      43.557 -13.760   6.123  1.00  0.00     0.037 C 
ENDROOT
BRANCH   1   8
HETATM    8  C   UNL     1      43.472 -16.094   5.008  1.00  0.00    -0.026 A 
HETATM    9  C   UNL     1      43.609 -17.518   4.780  1.00  0.00    -0.001 A 
HETATM   10  C   UNL     1      43.532 -17.727   3.398  1.00  0.00     0.045 A 
HETATM   11  C   UNL     1      43.807 -18.662   5.592  1.00  0.00     0.017 A 
HETATM   12  C   UNL     1      43.696 -18.984   2.798  1.00  0.00     0.072 A 
HETATM   13  N   UNL     1      43.249 -16.521   2.812  1.00  0.00    -0.365 N 
HETATM   14  C   UNL     1      43.929 -20.068   3.634  1.00  0.00     0.118 A 
HETATM   15  C   UNL     1      43.974 -19.926   5.010  1.00  0.00     0.043 A 
HETATM   16  F   UNL     1      44.103 -21.283   3.097  1.00  0.00    -0.206 F 
HETATM   17  C   UNL     1      43.201 -15.542   3.764  1.00  0.00     0.096 A 
HETATM   18  H   UNL     1      43.081 -16.389   1.822  1.00  0.00     0.165 HD
ENDBRANCH   1   8
BRANCH   4  19
HETATM   19  C   UNL     1      39.749 -13.234   5.770  1.00  0.00     0.282 C 
BRANCH  19  20
HETATM   20  C   UNL     1      39.453 -11.783   5.886  1.00  0.00     0.027 A 
HETATM   21  S   UNL     1      39.534 -10.734   4.529  1.00  0.00    -0.084 SA
HETATM   22  C   UNL     1      39.068  -9.423   5.533  1.00  0.00     0.166 A 
HETATM   23  N   UNL     1      38.851  -9.721   6.794  1.00  0.00    -0.265 NA
HETATM   24  C   UNL     1      39.092 -11.060   7.006  1.00  0.00     0.133 A 
ENDBRANCH  19  20
ENDBRANCH   4  19
TORSDOF 3
ENDMDL
MODEL 5
REMARK VINA RESULT:      -7.3      4.334      6.179
REMARK  3 active torsions:
REMARK  status: ('A' for Active; 'I' for Inactive)
REMARK    1  A    between atoms: C_7  and  C_8 
REMARK    2  A    between atoms: N_11  and  C_13 
REMARK    3  A    between atoms: C_13  and  C_14 
ROOT
HETATM    1  C   UNL     1      42.597 -14.926   3.564  1.00  0.00     0.024 C 
HETATM    2  C   UNL     1      41.083 -14.779   3.825  1.00  0.00     0.037 C 
HETATM    3  C   UNL     1      40.264 -15.086   2.577  1.00  0.00     0.236 C 
HETATM    4  N   UNL     1      40.680 -14.198   1.425  1.00  0.00    -0.067 N 
HETATM    5  H   UNL     1      40.416 -13.231   1.655  1.00  0.00     0.280 HD
HETATM    6  C   UNL     1      42.173 -14.208   1.174  1.00  0.00     0.236 C 
HETATM    7  C   UNL     1      42.928 -13.916   2.463  1.00  0.00     0.037 C 
ENDROOT
BRANCH   1   8
HETATM    8  C   UNL     1      43.002 -16.369   3.285  1.00  0.00    -0.026 A 
HETATM    9  C   UNL     1      43.253 -17.472   4.190  1.00  0.00    -0.001 A 
HETATM   10  C   UNL     1      43.679 -18.558   3.416  1.00  0.00     0.045 A 
HETATM   11  C   UNL     1      43.181 -17.672   5.591  1.00  0.00     0.017 A 
HETATM   12  C   UNL     1      44.082 -19.784   3.962  1.00  0.00     0.072 A 
HETATM   13  N   UNL     1      43.588 -18.187   2.099  1.00  0.00    -0.365 N 
HETATM   14  C   UNL     1      44.034 -19.917   5.344  1.00  0.00     0.118 A 
HETATM   15  C   UNL     1      43.581 -18.891   6.155  1.00  0.00     0.043 A 
HETATM   16  F   UNL     1      44.423 -21.070   5.905  1.00  0.00    -0.206 F 
HETATM   17  C   UNL     1      43.176 -16.888   2.009  1.00  0.00     0.096 A 
HETATM   18  H   UNL     1      43.781 -18.799   1.316  1.00  0.00     0.165 HD
ENDBRANCH   1   8
BRANCH   4  19
HETATM   19  C   UNL     1      39.884 -14.565   0.179  1.00  0.00     0.282 C 
BRANCH  19  20
HETATM   20  C   UNL     1      40.132 -13.680  -0.987  1.00  0.00     0.027 A 
HETATM   21  S   UNL     1      40.290 -11.979  -0.811  1.00  0.00    -0.084 SA
HETATM   22  C   UNL     1      40.542 -11.843  -2.503  1.00  0.00     0.166 A 
HETATM   23  N   UNL     1      40.525 -12.972  -3.174  1.00  0.00    -0.265 NA
HETATM   24  C   UNL     1      40.269 -14.020  -2.319  1.00  0.00     0.133 A 
ENDBRANCH  19  20
ENDBRANCH   4  19
TORSDOF 3
ENDMDL
MODEL 6
REMARK VINA RESULT:      -7.2      1.842      2.603
REMARK  3 active torsions:
REMARK  status: ('A' for Active; 'I' for Inactive)
REMARK    1  A    between atoms: C_7  and  C_8 
REMARK    2  A    between atoms: N_11  and  C_13 
REMARK    3  A    between atoms: C_13  and  C_14 
ROOT
HETATM    1  C   UNL     1      41.245 -15.235   6.447  1.00  0.00     0.024 C 
HETATM    2  C   UNL     1      40.451 -13.913   6.425  1.00  0.00     0.037 C 
HETATM    3  C   UNL     1      41.237 -12.794   5.752  1.00  0.00     0.236 C 
HETATM    4  N   UNL     1      42.572 -12.587   6.432  1.00  0.00    -0.067 N 
HETATM    5  H   UNL     1      42.396 -12.222   7.379  1.00  0.00     0.280 HD
HETATM    6  C   UNL     1      43.369 -13.865   6.585  1.00  0.00     0.236 C 
HETATM    7  C   UNL     1      42.519 -14.942   7.243  1.00  0.00     0.037 C 
ENDROOT
BRANCH   1   8
HETATM    8  C   UNL     1      41.454 -15.811   5.050  1.00  0.00    -0.026 A 
HETATM    9  C   UNL     1      42.355 -16.843   4.579  1.00  0.00    -0.001 A 
HETATM   10  C   UNL     1      42.203 -16.926   3.190  1.00  0.00     0.045 A 
HETATM   11  C   UNL     1      43.301 -17.715   5.173  1.00  0.00     0.017 A 
HETATM   12  C   UNL     1      42.971 -17.773   2.379  1.00  0.00     0.072 A 
HETATM   13  N   UNL     1      41.187 -16.077   2.834  1.00  0.00    -0.365 N 
HETATM   14  C   UNL     1      43.914 -18.578   3.004  1.00  0.00     0.118 A 
HETATM   15  C   UNL     1      44.078 -18.568   4.378  1.00  0.00     0.043 A 
HETATM   16  F   UNL     1      44.676 -19.392   2.261  1.00  0.00    -0.206 F 
HETATM   17  C   UNL     1      40.727 -15.415   3.936  1.00  0.00     0.096 A 
HETATM   18  H   UNL     1      40.825 -15.978   1.894  1.00  0.00     0.165 HD
ENDBRANCH   1   8
BRANCH   4  19
HETATM   19  C   UNL     1      43.357 -11.503   5.705  1.00  0.00     0.282 C 
BRANCH  19  20
HETATM   20  C   UNL     1      42.783 -11.109   4.393  1.00  0.00     0.027 A 
HETATM   21  S   UNL     1      41.652  -9.824   4.252  1.00  0.00    -0.084 SA
HETATM   22  C   UNL     1      41.591 -10.084   2.557  1.00  0.00     0.166 A 
HETATM   23  N   UNL     1      42.358 -11.048   2.101  1.00  0.00    -0.265 NA
HETATM   24  C   UNL     1      43.021 -11.651   3.146  1.00  0.00     0.133 A 
ENDBRANCH  19  20
ENDBRANCH   4  19
TORSDOF 3
ENDMDL
MODEL 7
REMARK VINA RESULT:      -7.2      4.279      6.017
REMARK  3 active torsions:
REMARK  status: ('A' for Active; 'I' for Inactive)
REMARK    1  A    between atoms: C_7  and  C_8 
REMARK    2  A    between atoms: N_11  and  C_13 
REMARK    3  A    between atoms: C_13  and  C_14 
ROOT
HETATM    1  C   UNL     1      41.552 -16.523   2.125  1.00  0.00     0.024 C 
HETATM    2  C   UNL     1      42.806 -15.811   1.578  1.00  0.00     0.037 C 
HETATM    3  C   UNL     1      42.697 -14.297   1.711  1.00  0.00     0.236 C 
HETATM    4  N   UNL     1      41.460 -13.781   1.010  1.00  0.00    -0.067 N 
HETATM    5  H   UNL     1      41.580 -13.926  -0.002  1.00  0.00     0.280 HD
HETATM    6  C   UNL     1      40.195 -14.506   1.418  1.00  0.00     0.236 C 
HETATM    7  C   UNL     1      40.381 -16.011   1.282  1.00  0.00     0.037 C 
ENDROOT
BRANCH   1   8
HETATM    8  C   UNL     1      41.403 -16.363   3.634  1.00  0.00    -0.026 A 
HETATM    9  C   UNL     1      42.382 -16.469   4.696  1.00  0.00    -0.001 A 
HETATM   10  C   UNL     1      41.700 -16.317   5.909  1.00  0.00     0.045 A 
HETATM   11  C   UNL     1      43.779 -16.694   4.771  1.00  0.00     0.017 A 
HETATM   12  C   UNL     1      42.317 -16.433   7.162  1.00  0.00     0.072 A 
HETATM   13  N   UNL     1      40.395 -16.020   5.613  1.00  0.00    -0.365 N 
HETATM   14  C   UNL     1      43.681 -16.695   7.183  1.00  0.00     0.118 A 
HETATM   15  C   UNL     1      44.414 -16.814   6.015  1.00  0.00     0.043 A 
HETATM   16  F   UNL     1      44.305 -16.825   8.362  1.00  0.00    -0.206 F 
HETATM   17  C   UNL     1      40.209 -16.034   4.261  1.00  0.00     0.096 A 
HETATM   18  H   UNL     1      39.685 -15.802   6.303  1.00  0.00     0.165 HD
ENDBRANCH   1   8
BRANCH   4  19
HETATM   19  C   UNL     1      41.347 -12.274   1.206  1.00  0.00     0.282 C 
BRANCH  19  20
HETATM   20  C   UNL     1      41.231 -11.500  -0.056  1.00  0.00     0.027 A 
HETATM   21  S   UNL     1      41.426  -9.794  -0.091  1.00  0.00    -0.084 SA
HETATM   22  C   UNL     1      41.159  -9.814  -1.786  1.00  0.00     0.166 A 
HETATM   23  N   UNL     1      40.947 -10.997  -2.315  1.00  0.00    -0.265 NA
HETATM   24  C   UNL     1      40.963 -11.959  -1.331  1.00  0.00     0.133 A 
ENDBRANCH  19  20
ENDBRANCH   4  19
TORSDOF 3
ENDMDL
MODEL 8
REMARK VINA RESULT:      -7.1      6.087      9.728
REMARK  3 active torsions:
REMARK  status: ('A' for Active; 'I' for Inactive)
REMARK    1  A    between atoms: C_7  and  C_8 
REMARK    2  A    between atoms: N_11  and  C_13 
REMARK    3  A    between atoms: C_13  and  C_14 
ROOT
HETATM    1  C   UNL     1      44.927  -9.066   9.887  1.00  0.00     0.024 C 
HETATM    2  C   UNL     1      44.228  -8.080   8.928  1.00  0.00     0.037 C 
HETATM    3  C   UNL     1      43.094  -8.749   8.161  1.00  0.00     0.236 C 
HETATM    4  N   UNL     1      43.596  -9.952   7.393  1.00  0.00    -0.067 N 
HETATM    5  H   UNL     1      44.226  -9.619   6.651  1.00  0.00     0.280 HD
HETATM    6  C   UNL     1      44.386 -10.919   8.249  1.00  0.00     0.236 C 
HETATM    7  C   UNL     1      45.485 -10.183   9.002  1.00  0.00     0.037 C 
ENDROOT
BRANCH   1   8
HETATM    8  C   UNL     1      44.016  -9.515  11.025  1.00  0.00    -0.026 A 
HETATM    9  C   UNL     1      43.364  -8.751  12.070  1.00  0.00    -0.001 A 
HETATM   10  C   UNL     1      42.713  -9.664  12.908  1.00  0.00     0.045 A 
HETATM   11  C   UNL     1      43.262  -7.380  12.413  1.00  0.00     0.017 A 
HETATM   12  C   UNL     1      42.032  -9.291  14.075  1.00  0.00     0.072 A 
HETATM   13  N   UNL     1      42.857 -10.909  12.353  1.00  0.00    -0.365 N 
HETATM   14  C   UNL     1      41.995  -7.938  14.391  1.00  0.00     0.118 A 
HETATM   15  C   UNL     1      42.585  -6.988  13.576  1.00  0.00     0.043 A 
HETATM   16  F   UNL     1      41.363  -7.543  15.504  1.00  0.00    -0.206 F 
HETATM   17  C   UNL     1      43.623 -10.830  11.226  1.00  0.00     0.096 A 
HETATM   18  H   UNL     1      42.436 -11.754  12.721  1.00  0.00     0.165 HD
ENDBRANCH   1   8
BRANCH   4  19
HETATM   19  C   UNL     1      42.432 -10.632   6.682  1.00  0.00     0.282 C 
BRANCH  19  20
HETATM   20  C   UNL     1      42.668 -10.895   5.240  1.00  0.00     0.027 A 
HETATM   21  S   UNL     1      41.498 -10.498   4.047  1.00  0.00    -0.084 SA
HETATM   22  C   UNL     1      42.556 -11.092   2.833  1.00  0.00     0.166 A 
HETATM   23  N   UNL     1      43.711 -11.550   3.260  1.00  0.00    -0.265 NA
HETATM   24  C   UNL     1      43.771 -11.462   4.632  1.00  0.00     0.133 A 
ENDBRANCH  19  20
ENDBRANCH   4  19
TORSDOF 3
ENDMDL
MODEL 9
REMARK VINA RESULT:      -7.0     15.922     18.107
REMARK  3 active torsions:
REMARK  status: ('A' for Active; 'I' for Inactive)
REMARK    1  A    between atoms: C_7  and  C_8 
REMARK    2  A    between atoms: N_11  and  C_13 
REMARK    3  A    between atoms: C_13  and  C_14 
ROOT
HETATM    1  C   UNL     1      44.969 -28.005  -1.252  1.00  0.00     0.024 C 
HETATM    2  C   UNL     1      43.954 -29.165  -1.188  1.00  0.00     0.037 C 
HETATM    3  C   UNL     1      44.477 -30.410  -1.893  1.00  0.00     0.236 C 
HETATM    4  N   UNL     1      44.830 -30.108  -3.333  1.00  0.00    -0.067 N 
HETATM    5  H   UNL     1      43.960 -29.893  -3.838  1.00  0.00     0.280 HD
HETATM    6  C   UNL     1      45.744 -28.911  -3.485  1.00  0.00     0.236 C 
HETATM    7  C   UNL     1      45.174 -27.712  -2.740  1.00  0.00     0.037 C 
ENDROOT
BRANCH   1   8
HETATM    8  C   UNL     1      46.235 -28.295  -0.453  1.00  0.00    -0.026 A 
HETATM    9  C   UNL     1      46.408 -28.854   0.872  1.00  0.00    -0.001 A 
HETATM   10  C   UNL     1      47.778 -28.824   1.161  1.00  0.00     0.045 A 
HETATM   11  C   UNL     1      45.553 -29.372   1.876  1.00  0.00     0.017 A 
HETATM   12  C   UNL     1      48.316 -29.223   2.392  1.00  0.00     0.072 A 
HETATM   13  N   UNL     1      48.427 -28.381   0.038  1.00  0.00    -0.365 N 
HETATM   14  C   UNL     1      47.432 -29.685   3.359  1.00  0.00     0.118 A 
HETATM   15  C   UNL     1      46.073 -29.775   3.113  1.00  0.00     0.043 A 
HETATM   16  F   UNL     1      47.906 -30.064   4.553  1.00  0.00    -0.206 F 
HETATM   17  C   UNL     1      47.518 -28.072  -0.933  1.00  0.00     0.096 A 
HETATM   18  H   UNL     1      49.433 -28.315  -0.055  1.00  0.00     0.165 HD
ENDBRANCH   1   8
BRANCH   4  19
HETATM   19  C   UNL     1      45.401 -31.356  -3.996  1.00  0.00     0.282 C 
BRANCH  19  20
HETATM   20  C   UNL     1      45.128 -31.454  -5.452  1.00  0.00     0.027 A 
HETATM   21  S   UNL     1      46.239 -32.194  -6.532  1.00  0.00    -0.084 SA
HETATM   22  C   UNL     1      45.165 -31.876  -7.832  1.00  0.00     0.166 A 
HETATM   23  N   UNL     1      44.044 -31.271  -7.509  1.00  0.00    -0.265 NA
HETATM   24  C   UNL     1      44.028 -31.006  -6.158  1.00  0.00     0.133 A 
ENDBRANCH  19  20
ENDBRANCH   4  19
TORSDOF 3
ENDMDL
MODEL 10
REMARK VINA RESULT:      -6.9      1.549      2.040
REMARK  3 active torsions:
REMARK  status: ('A' for Active; 'I' for Inactive)
REMARK    1  A    between atoms: C_7  and  C_8 
REMARK    2  A    between atoms: N_11  and  C_13 
REMARK    3  A    between atoms: C_13  and  C_14 
ROOT
HETATM    1  C   UNL     1      41.045 -13.193   4.613  1.00  0.00     0.024 C 
HETATM    2  C   UNL     1      41.430 -11.699   4.630  1.00  0.00     0.037 C 
HETATM    3  C   UNL     1      42.907 -11.502   4.952  1.00  0.00     0.236 C 
HETATM    4  N   UNL     1      43.262 -12.146   6.274  1.00  0.00    -0.067 N 
HETATM    5  H   UNL     1      42.781 -11.628   7.022  1.00  0.00     0.280 HD
HETATM    6  C   UNL     1      42.820 -13.590   6.373  1.00  0.00     0.236 C 
HETATM    7  C   UNL     1      41.345 -13.717   6.019  1.00  0.00     0.037 C 
ENDROOT
BRANCH   1   8
HETATM    8  C   UNL     1      41.707 -13.951   3.467  1.00  0.00    -0.026 A 
HETATM    9  C   UNL     1      42.180 -15.318   3.388  1.00  0.00    -0.001 A 
HETATM   10  C   UNL     1      42.785 -15.477   2.135  1.00  0.00     0.045 A 
HETATM   11  C   UNL     1      42.180 -16.445   4.246  1.00  0.00     0.017 A 
HETATM   12  C   UNL     1      43.424 -16.657   1.730  1.00  0.00     0.072 A 
HETATM   13  N   UNL     1      42.597 -14.313   1.435  1.00  0.00    -0.365 N 
HETATM   14  C   UNL     1      43.432 -17.721   2.624  1.00  0.00     0.118 A 
HETATM   15  C   UNL     1      42.814 -17.633   3.859  1.00  0.00     0.043 A 
HETATM   16  F   UNL     1      44.043 -18.861   2.279  1.00  0.00    -0.206 F 
HETATM   17  C   UNL     1      41.947 -13.401   2.215  1.00  0.00     0.096 A 
HETATM   18  H   UNL     1      42.883 -14.169   0.474  1.00  0.00     0.165 HD
ENDBRANCH   1   8
BRANCH   4  19
HETATM   19  C   UNL     1      44.753 -11.981   6.542  1.00  0.00     0.282 C 
BRANCH  19  20
HETATM   20  C   UNL     1      45.085 -10.902   7.507  1.00  0.00     0.027 A 
HETATM   21  S   UNL     1      44.036 -10.498   8.805  1.00  0.00    -0.084 SA
HETATM   22  C   UNL     1      45.150  -9.294   9.311  1.00  0.00     0.166 A 
HETATM   23  N   UNL     1      46.241  -9.188   8.586  1.00  0.00    -0.265 NA
HETATM   24  C   UNL     1      46.198 -10.085   7.543  1.00  0.00     0.133 A 
ENDBRANCH  19  20
ENDBRANCH   4  19
TORSDOF 3
ENDMDL
