MODEL 1
REMARK VINA RESULT:      -8.1      0.000      0.000
REMARK  2 active torsions:
REMARK  status: ('A' for Active; 'I' for Inactive)
REMARK    1  A    between atoms: C_12  and  C_13 
REMARK    2  A    between atoms: C_16  and  O_17 
ROOT
HETATM    1  C   UNL     1      44.286 -20.220   4.275  1.00  0.00     0.002 A 
HETATM    2  C   UNL     1      44.324 -18.884   4.672  1.00  0.00     0.026 A 
HETATM    3  C   UNL     1      43.749 -17.890   3.874  1.00  0.00     0.036 A 
HETATM    4  C   UNL     1      43.091 -18.243   2.673  1.00  0.00     0.053 A 
HETATM    5  N   UNL     1      42.409 -17.284   1.876  1.00  0.00    -0.356 N 
HETATM    6  C   UNL     1      41.562 -16.347   2.440  1.00  0.00     0.041 A 
HETATM    7  C   UNL     1      41.628 -15.786   3.661  1.00  0.00     0.056 A 
HETATM    8  C   UNL     1      40.377 -15.029   3.843  1.00  0.00     0.251 A 
HETATM    9  O   UNL     1      39.988 -14.498   4.865  1.00  0.00    -0.268 OA
HETATM   10  N   UNL     1      39.693 -15.073   2.657  1.00  0.00    -0.351 N 
HETATM   11  C   UNL     1      40.335 -15.899   1.692  1.00  0.00     0.180 A 
HETATM   12  C   UNL     1      42.652 -15.884   4.741  1.00  0.00     0.134 C 
HETATM   13  N   UNL     1      43.893 -16.543   4.274  1.00  0.00    -0.278 NA
HETATM   14  C   UNL     1      43.081 -19.590   2.278  1.00  0.00     0.031 A 
HETATM   15  C   UNL     1      43.675 -20.572   3.075  1.00  0.00     0.002 A 
HETATM   16  H   UNL     1      42.055 -17.688   1.012  1.00  0.00     0.166 HD
HETATM   17  H   UNL     1      38.772 -14.664   2.574  1.00  0.00     0.163 HD
HETATM   18  H   UNL     1      44.201 -16.042   3.440  1.00  0.00     0.128 HD
ENDROOT
BRANCH  12  19
HETATM   19  C   UNL     1      43.078 -14.515   5.278  1.00  0.00    -0.035 A 
HETATM   20  C   UNL     1      43.222 -13.427   4.398  1.00  0.00     0.012 A 
HETATM   21  C   UNL     1      43.616 -12.172   4.871  1.00  0.00     0.037 A 
HETATM   22  C   UNL     1      43.862 -11.996   6.229  1.00  0.00     0.065 A 
HETATM   23  C   UNL     1      43.724 -13.052   7.119  1.00  0.00     0.037 A 
HETATM   24  C   UNL     1      43.336 -14.308   6.647  1.00  0.00     0.012 A 
BRANCH  22  25
HETATM   25  O   UNL     1      44.249 -10.788   6.730  1.00  0.00    -0.361 OA
HETATM   26  H   UNL     1      45.210 -10.809   6.866  1.00  0.00     0.217 HD
ENDBRANCH  22  25
ENDBRANCH  12  19
TORSDOF 2
ENDMDL
MODEL 2
REMARK VINA RESULT:      -7.8      2.026      2.321
REMARK  2 active torsions:
REMARK  status: ('A' for Active; 'I' for Inactive)
REMARK    1  A    between atoms: C_12  and  C_13 
REMARK    2  A    between atoms: C_16  and  O_17 
ROOT
HETATM    1  C   UNL     1      43.841 -18.229   4.350  1.00  0.00     0.002 A 
HETATM    2  C   UNL     1      43.572 -16.892   4.640  1.00  0.00     0.026 A 
HETATM    3  C   UNL     1      43.204 -16.005   3.624  1.00  0.00     0.036 A 
HETATM    4  C   UNL     1      43.068 -16.472   2.296  1.00  0.00     0.053 A 
HETATM    5  N   UNL     1      42.605 -15.635   1.245  1.00  0.00    -0.356 N 
HETATM    6  C   UNL     1      41.505 -14.811   1.409  1.00  0.00     0.041 A 
HETATM    7  C   UNL     1      41.061 -14.220   2.532  1.00  0.00     0.056 A 
HETATM    8  C   UNL     1      39.746 -13.641   2.210  1.00  0.00     0.251 A 
HETATM    9  O   UNL     1      38.955 -13.146   2.990  1.00  0.00    -0.268 OA
HETATM   10  N   UNL     1      39.543 -13.805   0.865  1.00  0.00    -0.351 N 
HETATM   11  C   UNL     1      40.582 -14.554   0.248  1.00  0.00     0.180 A 
HETATM   12  C   UNL     1      41.634 -14.153   3.907  1.00  0.00     0.134 C 
HETATM   13  N   UNL     1      43.030 -14.643   3.954  1.00  0.00    -0.278 NA
HETATM   14  C   UNL     1      43.364 -17.816   2.018  1.00  0.00     0.031 A 
HETATM   15  C   UNL     1      43.747 -18.689   3.039  1.00  0.00     0.002 A 
HETATM   16  H   UNL     1      42.636 -16.102   0.342  1.00  0.00     0.166 HD
HETATM   17  H   UNL     1      38.669 -13.529   0.435  1.00  0.00     0.163 HD
HETATM   18  H   UNL     1      43.554 -14.122   3.249  1.00  0.00     0.128 HD
ENDROOT
BRANCH  12  19
HETATM   19  C   UNL     1      41.670 -12.726   4.463  1.00  0.00    -0.035 A 
HETATM   20  C   UNL     1      42.368 -11.719   3.774  1.00  0.00     0.012 A 
HETATM   21  C   UNL     1      42.416 -10.413   4.270  1.00  0.00     0.037 A 
HETATM   22  C   UNL     1      41.759 -10.105   5.457  1.00  0.00     0.065 A 
HETATM   23  C   UNL     1      41.060 -11.080   6.156  1.00  0.00     0.037 A 
HETATM   24  C   UNL     1      41.016 -12.386   5.663  1.00  0.00     0.012 A 
BRANCH  22  25
HETATM   25  O   UNL     1      41.781  -8.844   5.976  1.00  0.00    -0.361 OA
HETATM   26  H   UNL     1      42.675  -8.670   6.314  1.00  0.00     0.217 HD
ENDBRANCH  22  25
ENDBRANCH  12  19
TORSDOF 2
ENDMDL
MODEL 3
REMARK VINA RESULT:      -7.8      3.592      7.099
REMARK  2 active torsions:
REMARK  status: ('A' for Active; 'I' for Inactive)
REMARK    1  A    between atoms: C_12  and  C_13 
REMARK    2  A    between atoms: C_16  and  O_17 
ROOT
HETATM    1  C   UNL     1      45.820  -9.324   8.738  1.00  0.00     0.002 A 
HETATM    2  C   UNL     1      45.500 -10.659   8.492  1.00  0.00     0.026 A 
HETATM    3  C   UNL     1      44.212 -11.016   8.079  1.00  0.00     0.036 A 
HETATM    4  C   UNL     1      43.234 -10.014   7.875  1.00  0.00     0.053 A 
HETATM    5  N   UNL     1      41.942 -10.314   7.365  1.00  0.00    -0.356 N 
HETATM    6  C   UNL     1      41.771 -11.154   6.279  1.00  0.00     0.041 A 
HETATM    7  C   UNL     1      42.534 -12.192   5.895  1.00  0.00     0.056 A 
HETATM    8  C   UNL     1      42.044 -12.606   4.569  1.00  0.00     0.251 A 
HETATM    9  O   UNL     1      42.557 -13.416   3.821  1.00  0.00    -0.268 OA
HETATM   10  N   UNL     1      40.920 -11.870   4.298  1.00  0.00    -0.351 N 
HETATM   11  C   UNL     1      40.655 -10.897   5.301  1.00  0.00     0.180 A 
HETATM   12  C   UNL     1      43.712 -12.845   6.537  1.00  0.00     0.134 C 
HETATM   13  N   UNL     1      43.913 -12.388   7.930  1.00  0.00    -0.278 NA
HETATM   14  C   UNL     1      43.567  -8.678   8.148  1.00  0.00     0.031 A 
HETATM   15  C   UNL     1      44.852  -8.336   8.577  1.00  0.00     0.002 A 
HETATM   16  H   UNL     1      41.339  -9.495   7.348  1.00  0.00     0.166 HD
HETATM   17  H   UNL     1      40.450 -11.952   3.407  1.00  0.00     0.163 HD
HETATM   18  H   UNL     1      43.029 -12.529   8.421  1.00  0.00     0.128 HD
ENDROOT
BRANCH  12  19
HETATM   19  C   UNL     1      43.577 -14.369   6.608  1.00  0.00    -0.035 A 
HETATM   20  C   UNL     1      44.622 -15.191   6.150  1.00  0.00     0.012 A 
HETATM   21  C   UNL     1      44.512 -16.584   6.203  1.00  0.00     0.037 A 
HETATM   22  C   UNL     1      43.358 -17.162   6.720  1.00  0.00     0.065 A 
HETATM   23  C   UNL     1      42.313 -16.374   7.181  1.00  0.00     0.037 A 
HETATM   24  C   UNL     1      42.419 -14.982   7.125  1.00  0.00     0.012 A 
BRANCH  22  25
HETATM   25  O   UNL     1      43.211 -18.516   6.788  1.00  0.00    -0.361 OA
HETATM   26  H   UNL     1      44.078 -18.925   6.632  1.00  0.00     0.217 HD
ENDBRANCH  22  25
ENDBRANCH  12  19
TORSDOF 2
ENDMDL
MODEL 4
REMARK VINA RESULT:      -7.7      7.631     10.720
REMARK  2 active torsions:
REMARK  status: ('A' for Active; 'I' for Inactive)
REMARK    1  A    between atoms: C_12  and  C_13 
REMARK    2  A    between atoms: C_16  and  O_17 
ROOT
HETATM    1  C   UNL     1      42.841  -6.936  14.874  1.00  0.00     0.002 A 
HETATM    2  C   UNL     1      43.454  -7.469  13.741  1.00  0.00     0.026 A 
HETATM    3  C   UNL     1      42.810  -8.451  12.981  1.00  0.00     0.036 A 
HETATM    4  C   UNL     1      41.512  -8.883  13.341  1.00  0.00     0.053 A 
HETATM    5  N   UNL     1      40.777  -9.806  12.549  1.00  0.00    -0.356 N 
HETATM    6  C   UNL     1      40.702  -9.678  11.173  1.00  0.00     0.041 A 
HETATM    7  C   UNL     1      41.610  -9.158  10.329  1.00  0.00     0.056 A 
HETATM    8  C   UNL     1      40.954  -9.060   9.014  1.00  0.00     0.251 A 
HETATM    9  O   UNL     1      41.389  -8.511   8.020  1.00  0.00    -0.268 OA
HETATM   10  N   UNL     1      39.726  -9.659   9.122  1.00  0.00    -0.351 N 
HETATM   11  C   UNL     1      39.441 -10.074  10.452  1.00  0.00     0.180 A 
HETATM   12  C   UNL     1      43.000  -8.664  10.553  1.00  0.00     0.134 C 
HETATM   13  N   UNL     1      43.510  -9.023  11.895  1.00  0.00    -0.278 NA
HETATM   14  C   UNL     1      40.919  -8.352  14.497  1.00  0.00     0.031 A 
HETATM   15  C   UNL     1      41.579  -7.384  15.258  1.00  0.00     0.002 A 
HETATM   16  H   UNL     1      39.897 -10.067  12.985  1.00  0.00     0.166 HD
HETATM   17  H   UNL     1      39.077  -9.654   8.346  1.00  0.00     0.163 HD
HETATM   18  H   UNL     1      43.395 -10.032  11.999  1.00  0.00     0.128 HD
ENDROOT
BRANCH  12  19
HETATM   19  C   UNL     1      44.001  -9.247   9.552  1.00  0.00    -0.035 A 
HETATM   20  C   UNL     1      44.983  -8.421   8.976  1.00  0.00     0.012 A 
HETATM   21  C   UNL     1      45.901  -8.936   8.056  1.00  0.00     0.037 A 
HETATM   22  C   UNL     1      45.847 -10.282   7.711  1.00  0.00     0.065 A 
HETATM   23  C   UNL     1      44.890 -11.120   8.268  1.00  0.00     0.037 A 
HETATM   24  C   UNL     1      43.969 -10.606   9.183  1.00  0.00     0.012 A 
BRANCH  22  25
HETATM   25  O   UNL     1      46.723 -10.823   6.818  1.00  0.00    -0.361 OA
HETATM   26  H   UNL     1      46.252 -10.974   5.983  1.00  0.00     0.217 HD
ENDBRANCH  22  25
ENDBRANCH  12  19
TORSDOF 2
ENDMDL
MODEL 5
REMARK VINA RESULT:      -7.7      2.401      4.429
REMARK  2 active torsions:
REMARK  status: ('A' for Active; 'I' for Inactive)
REMARK    1  A    between atoms: C_12  and  C_13 
REMARK    2  A    between atoms: C_16  and  O_17 
ROOT
HETATM    1  C   UNL     1      43.916 -19.192   2.906  1.00  0.00     0.002 A 
HETATM    2  C   UNL     1      43.085 -18.152   2.491  1.00  0.00     0.026 A 
HETATM    3  C   UNL     1      42.674 -17.168   3.397  1.00  0.00     0.036 A 
HETATM    4  C   UNL     1      43.131 -17.205   4.734  1.00  0.00     0.053 A 
HETATM    5  N   UNL     1      42.821 -16.179   5.667  1.00  0.00    -0.356 N 
HETATM    6  C   UNL     1      42.925 -14.840   5.330  1.00  0.00     0.041 A 
HETATM    7  C   UNL     1      42.760 -14.264   4.126  1.00  0.00     0.056 A 
HETATM    8  C   UNL     1      43.196 -12.864   4.267  1.00  0.00     0.251 A 
HETATM    9  O   UNL     1      43.335 -12.050   3.375  1.00  0.00    -0.268 OA
HETATM   10  N   UNL     1      43.470 -12.651   5.592  1.00  0.00    -0.351 N 
HETATM   11  C   UNL     1      43.356 -13.838   6.367  1.00  0.00     0.180 A 
HETATM   12  C   UNL     1      42.314 -14.821   2.816  1.00  0.00     0.134 C 
HETATM   13  N   UNL     1      41.760 -16.187   2.950  1.00  0.00    -0.278 NA
HETATM   14  C   UNL     1      43.949 -18.271   5.140  1.00  0.00     0.031 A 
HETATM   15  C   UNL     1      44.339 -19.258   4.231  1.00  0.00     0.002 A 
HETATM   16  H   UNL     1      43.163 -16.394   6.600  1.00  0.00     0.166 HD
HETATM   17  H   UNL     1      43.844 -11.766   5.908  1.00  0.00     0.163 HD
HETATM   18  H   UNL     1      41.033 -16.147   3.665  1.00  0.00     0.128 HD
ENDROOT
BRANCH  12  19
HETATM   19  C   UNL     1      41.211 -13.982   2.163  1.00  0.00    -0.035 A 
HETATM   20  C   UNL     1      41.324 -13.595   0.816  1.00  0.00     0.012 A 
HETATM   21  C   UNL     1      40.330 -12.825   0.207  1.00  0.00     0.037 A 
HETATM   22  C   UNL     1      39.212 -12.441   0.941  1.00  0.00     0.065 A 
HETATM   23  C   UNL     1      39.074 -12.812   2.271  1.00  0.00     0.037 A 
HETATM   24  C   UNL     1      40.069 -13.578   2.882  1.00  0.00     0.012 A 
BRANCH  22  25
HETATM   25  O   UNL     1      38.220 -11.689   0.384  1.00  0.00    -0.361 OA
HETATM   26  H   UNL     1      37.451 -12.263   0.233  1.00  0.00     0.217 HD
ENDBRANCH  22  25
ENDBRANCH  12  19
TORSDOF 2
ENDMDL
MODEL 6
REMARK VINA RESULT:      -7.5      2.419      5.872
REMARK  2 active torsions:
REMARK  status: ('A' for Active; 'I' for Inactive)
REMARK    1  A    between atoms: C_12  and  C_13 
REMARK    2  A    between atoms: C_16  and  O_17 
ROOT
HETATM    1  C   UNL     1      44.193 -11.790   6.835  1.00  0.00     0.002 A 
HETATM    2  C   UNL     1      44.269 -13.172   6.667  1.00  0.00     0.026 A 
HETATM    3  C   UNL     1      43.178 -13.888   6.163  1.00  0.00     0.036 A 
HETATM    4  C   UNL     1      42.000 -13.203   5.786  1.00  0.00     0.053 A 
HETATM    5  N   UNL     1      40.900 -13.870   5.181  1.00  0.00    -0.356 N 
HETATM    6  C   UNL     1      41.084 -14.781   4.155  1.00  0.00     0.041 A 
HETATM    7  C   UNL     1      42.134 -15.589   3.931  1.00  0.00     0.056 A 
HETATM    8  C   UNL     1      41.926 -16.189   2.601  1.00  0.00     0.251 A 
HETATM    9  O   UNL     1      42.718 -16.865   1.974  1.00  0.00    -0.268 OA
HETATM   10  N   UNL     1      40.686 -15.803   2.166  1.00  0.00    -0.351 N 
HETATM   11  C   UNL     1      40.059 -14.889   3.058  1.00  0.00     0.180 A 
HETATM   12  C   UNL     1      43.362 -15.861   4.733  1.00  0.00     0.134 C 
HETATM   13  N   UNL     1      43.274 -15.296   6.098  1.00  0.00    -0.278 NA
HETATM   14  C   UNL     1      41.932 -11.815   5.982  1.00  0.00     0.031 A 
HETATM   15  C   UNL     1      43.022 -11.113   6.503  1.00  0.00     0.002 A 
HETATM   16  H   UNL     1      40.107 -13.249   5.041  1.00  0.00     0.166 HD
HETATM   17  H   UNL     1      40.359 -16.056   1.243  1.00  0.00     0.163 HD
HETATM   18  H   UNL     1      42.410 -15.647   6.511  1.00  0.00     0.128 HD
ENDROOT
BRANCH  12  19
HETATM   19  C   UNL     1      43.630 -17.358   4.913  1.00  0.00    -0.035 A 
HETATM   20  C   UNL     1      43.160 -18.025   6.058  1.00  0.00     0.012 A 
HETATM   21  C   UNL     1      43.401 -19.390   6.242  1.00  0.00     0.037 A 
HETATM   22  C   UNL     1      44.110 -20.097   5.276  1.00  0.00     0.065 A 
HETATM   23  C   UNL     1      44.583 -19.464   4.136  1.00  0.00     0.037 A 
HETATM   24  C   UNL     1      44.347 -18.099   3.954  1.00  0.00     0.012 A 
BRANCH  22  25
HETATM   25  O   UNL     1      44.367 -21.429   5.417  1.00  0.00    -0.361 OA
HETATM   26  H   UNL     1      43.594 -21.923   5.101  1.00  0.00     0.217 HD
ENDBRANCH  22  25
ENDBRANCH  12  19
TORSDOF 2
ENDMDL
MODEL 7
REMARK VINA RESULT:      -7.4     14.380     15.687
REMARK  2 active torsions:
REMARK  status: ('A' for Active; 'I' for Inactive)
REMARK    1  A    between atoms: C_12  and  C_13 
REMARK    2  A    between atoms: C_16  and  O_17 
ROOT
HETATM    1  C   UNL     1      40.198 -31.838   2.569  1.00  0.00     0.002 A 
HETATM    2  C   UNL     1      40.880 -31.251   1.504  1.00  0.00     0.026 A 
HETATM    3  C   UNL     1      42.050 -30.518   1.728  1.00  0.00     0.036 A 
HETATM    4  C   UNL     1      42.567 -30.400   3.039  1.00  0.00     0.053 A 
HETATM    5  N   UNL     1      43.802 -29.748   3.307  1.00  0.00    -0.356 N 
HETATM    6  C   UNL     1      44.927 -29.989   2.539  1.00  0.00     0.041 A 
HETATM    7  C   UNL     1      44.998 -30.324   1.239  1.00  0.00     0.056 A 
HETATM    8  C   UNL     1      46.403 -30.676   0.972  1.00  0.00     0.251 A 
HETATM    9  O   UNL     1      46.852 -31.167  -0.046  1.00  0.00    -0.268 OA
HETATM   10  N   UNL     1      47.119 -30.397   2.106  1.00  0.00    -0.351 N 
HETATM   11  C   UNL     1      46.289 -29.974   3.180  1.00  0.00     0.180 A 
HETATM   12  C   UNL     1      43.946 -30.437   0.187  1.00  0.00     0.134 C 
HETATM   13  N   UNL     1      42.653 -29.867   0.629  1.00  0.00    -0.278 NA
HETATM   14  C   UNL     1      41.856 -30.979   4.101  1.00  0.00     0.031 A 
HETATM   15  C   UNL     1      40.679 -31.694   3.867  1.00  0.00     0.002 A 
HETATM   16  H   UNL     1      43.992 -29.686   4.304  1.00  0.00     0.166 HD
HETATM   17  H   UNL     1      48.104 -30.619   2.164  1.00  0.00     0.163 HD
HETATM   18  H   UNL     1      42.838 -28.914   0.945  1.00  0.00     0.128 HD
ENDROOT
BRANCH  12  19
HETATM   19  C   UNL     1      44.315 -29.694  -1.100  1.00  0.00    -0.035 A 
HETATM   20  C   UNL     1      44.080 -30.292  -2.351  1.00  0.00     0.012 A 
HETATM   21  C   UNL     1      44.418 -29.631  -3.535  1.00  0.00     0.037 A 
HETATM   22  C   UNL     1      44.986 -28.363  -3.476  1.00  0.00     0.065 A 
HETATM   23  C   UNL     1      45.226 -27.749  -2.255  1.00  0.00     0.037 A 
HETATM   24  C   UNL     1      44.895 -28.411  -1.070  1.00  0.00     0.012 A 
BRANCH  22  25
HETATM   25  O   UNL     1      45.330 -27.685  -4.607  1.00  0.00    -0.361 OA
HETATM   26  H   UNL     1      46.057 -28.163  -5.040  1.00  0.00     0.217 HD
ENDBRANCH  22  25
ENDBRANCH  12  19
TORSDOF 2
ENDMDL
MODEL 8
REMARK VINA RESULT:      -7.3      7.486      9.975
REMARK  2 active torsions:
REMARK  status: ('A' for Active; 'I' for Inactive)
REMARK    1  A    between atoms: C_12  and  C_13 
REMARK    2  A    between atoms: C_16  and  O_17 
ROOT
HETATM    1  C   UNL     1      45.816 -10.537   8.266  1.00  0.00     0.002 A 
HETATM    2  C   UNL     1      45.325  -9.730   9.291  1.00  0.00     0.026 A 
HETATM    3  C   UNL     1      44.016  -9.238   9.243  1.00  0.00     0.036 A 
HETATM    4  C   UNL     1      43.170  -9.590   8.166  1.00  0.00     0.053 A 
HETATM    5  N   UNL     1      41.805  -9.196   8.118  1.00  0.00    -0.356 N 
HETATM    6  C   UNL     1      40.981  -9.312   9.223  1.00  0.00     0.041 A 
HETATM    7  C   UNL     1      41.309  -9.235  10.525  1.00  0.00     0.056 A 
HETATM    8  C   UNL     1      40.115  -9.643  11.285  1.00  0.00     0.251 A 
HETATM    9  O   UNL     1      40.044  -9.842  12.482  1.00  0.00    -0.268 OA
HETATM   10  N   UNL     1      39.094  -9.810  10.386  1.00  0.00    -0.351 N 
HETATM   11  C   UNL     1      39.525  -9.649   9.040  1.00  0.00     0.180 A 
HETATM   12  C   UNL     1      42.595  -8.898  11.203  1.00  0.00     0.134 C 
HETATM   13  N   UNL     1      43.596  -8.352  10.259  1.00  0.00    -0.278 NA
HETATM   14  C   UNL     1      43.688 -10.386   7.132  1.00  0.00     0.031 A 
HETATM   15  C   UNL     1      45.002 -10.857   7.182  1.00  0.00     0.002 A 
HETATM   16  H   UNL     1      41.360  -9.467   7.245  1.00  0.00     0.166 HD
HETATM   17  H   UNL     1      38.190 -10.149  10.687  1.00  0.00     0.163 HD
HETATM   18  H   UNL     1      43.154  -7.570   9.774  1.00  0.00     0.128 HD
ENDROOT
BRANCH  12  19
HETATM   19  C   UNL     1      42.426  -7.841  12.297  1.00  0.00    -0.035 A 
HETATM   20  C   UNL     1      41.844  -6.597  11.992  1.00  0.00     0.012 A 
HETATM   21  C   UNL     1      41.688  -5.619  12.978  1.00  0.00     0.037 A 
HETATM   22  C   UNL     1      42.109  -5.881  14.278  1.00  0.00     0.065 A 
HETATM   23  C   UNL     1      42.684  -7.100  14.606  1.00  0.00     0.037 A 
HETATM   24  C   UNL     1      42.845  -8.077  13.621  1.00  0.00     0.012 A 
BRANCH  22  25
HETATM   25  O   UNL     1      41.976  -4.953  15.269  1.00  0.00    -0.361 OA
HETATM   26  H   UNL     1      42.836  -4.522  15.399  1.00  0.00     0.217 HD
ENDBRANCH  22  25
ENDBRANCH  12  19
TORSDOF 2
ENDMDL
MODEL 9
REMARK VINA RESULT:      -7.3      3.940      6.948
REMARK  2 active torsions:
REMARK  status: ('A' for Active; 'I' for Inactive)
REMARK    1  A    between atoms: C_12  and  C_13 
REMARK    2  A    between atoms: C_16  and  O_17 
ROOT
HETATM    1  C   UNL     1      37.786 -13.069  -2.598  1.00  0.00     0.002 A 
HETATM    2  C   UNL     1      38.635 -13.852  -1.816  1.00  0.00     0.026 A 
HETATM    3  C   UNL     1      39.726 -13.277  -1.158  1.00  0.00     0.036 A 
HETATM    4  C   UNL     1      39.953 -11.884  -1.254  1.00  0.00     0.053 A 
HETATM    5  N   UNL     1      40.989 -11.236  -0.528  1.00  0.00    -0.356 N 
HETATM    6  C   UNL     1      41.210 -11.506   0.811  1.00  0.00     0.041 A 
HETATM    7  C   UNL     1      40.992 -12.650   1.483  1.00  0.00     0.056 A 
HETATM    8  C   UNL     1      41.183 -12.342   2.911  1.00  0.00     0.251 A 
HETATM    9  O   UNL     1      40.941 -13.070   3.853  1.00  0.00    -0.268 OA
HETATM   10  N   UNL     1      41.640 -11.053   2.995  1.00  0.00    -0.351 N 
HETATM   11  C   UNL     1      41.680 -10.408   1.728  1.00  0.00     0.180 A 
HETATM   12  C   UNL     1      40.565 -14.002   1.020  1.00  0.00     0.134 C 
HETATM   13  N   UNL     1      40.607 -14.127  -0.454  1.00  0.00    -0.278 NA
HETATM   14  C   UNL     1      39.101 -11.114  -2.061  1.00  0.00     0.031 A 
HETATM   15  C   UNL     1      38.024 -11.703  -2.728  1.00  0.00     0.002 A 
HETATM   16  H   UNL     1      41.063 -10.250  -0.765  1.00  0.00     0.166 HD
HETATM   17  H   UNL     1      41.784 -10.613   3.894  1.00  0.00     0.163 HD
HETATM   18  H   UNL     1      41.545 -13.853  -0.750  1.00  0.00     0.128 HD
ENDROOT
BRANCH  12  19
HETATM   19  C   UNL     1      41.457 -15.122   1.564  1.00  0.00    -0.035 A 
HETATM   20  C   UNL     1      42.838 -15.114   1.297  1.00  0.00     0.012 A 
HETATM   21  C   UNL     1      43.666 -16.132   1.781  1.00  0.00     0.037 A 
HETATM   22  C   UNL     1      43.118 -17.160   2.539  1.00  0.00     0.065 A 
HETATM   23  C   UNL     1      41.759 -17.190   2.819  1.00  0.00     0.037 A 
HETATM   24  C   UNL     1      40.929 -16.177   2.333  1.00  0.00     0.012 A 
BRANCH  22  25
HETATM   25  O   UNL     1      43.890 -18.172   3.029  1.00  0.00    -0.361 OA
HETATM   26  H   UNL     1      44.780 -17.821   3.196  1.00  0.00     0.217 HD
ENDBRANCH  22  25
ENDBRANCH  12  19
TORSDOF 2
ENDMDL
MODEL 10
REMARK VINA RESULT:      -7.3      9.454     12.428
REMARK  2 active torsions:
REMARK  status: ('A' for Active; 'I' for Inactive)
REMARK    1  A    between atoms: C_12  and  C_13 
REMARK    2  A    between atoms: C_16  and  O_17 
ROOT
HETATM    1  C   UNL     1      41.062  -4.548  15.033  1.00  0.00     0.002 A 
HETATM    2  C   UNL     1      41.838  -5.160  14.050  1.00  0.00     0.026 A 
HETATM    3  C   UNL     1      41.804  -6.549  13.881  1.00  0.00     0.036 A 
HETATM    4  C   UNL     1      40.951  -7.336  14.688  1.00  0.00     0.053 A 
HETATM    5  N   UNL     1      40.808  -8.737  14.494  1.00  0.00    -0.356 N 
HETATM    6  C   UNL     1      40.643  -9.277  13.230  1.00  0.00     0.041 A 
HETATM    7  C   UNL     1      41.109  -8.819  12.055  1.00  0.00     0.056 A 
HETATM    8  C   UNL     1      40.471  -9.631  11.005  1.00  0.00     0.251 A 
HETATM    9  O   UNL     1      40.520  -9.441   9.805  1.00  0.00    -0.268 OA
HETATM   10  N   UNL     1      39.761 -10.623  11.627  1.00  0.00    -0.351 N 
HETATM   11  C   UNL     1      39.775 -10.493  13.044  1.00  0.00     0.180 A 
HETATM   12  C   UNL     1      42.021  -7.685  11.728  1.00  0.00     0.134 C 
HETATM   13  N   UNL     1      42.676  -7.129  12.933  1.00  0.00    -0.278 NA
HETATM   14  C   UNL     1      40.193  -6.705  15.688  1.00  0.00     0.031 A 
HETATM   15  C   UNL     1      40.248  -5.320  15.858  1.00  0.00     0.002 A 
HETATM   16  H   UNL     1      40.216  -9.163  15.202  1.00  0.00     0.166 HD
HETATM   17  H   UNL     1      39.193 -11.267  11.093  1.00  0.00     0.163 HD
HETATM   18  H   UNL     1      43.123  -7.909  13.416  1.00  0.00     0.128 HD
ENDROOT
BRANCH  12  19
HETATM   19  C   UNL     1      43.155  -8.093  10.783  1.00  0.00    -0.035 A 
HETATM   20  C   UNL     1      44.023  -9.141  11.135  1.00  0.00     0.012 A 
HETATM   21  C   UNL     1      45.066  -9.522  10.287  1.00  0.00     0.037 A 
HETATM   22  C   UNL     1      45.244  -8.860   9.077  1.00  0.00     0.065 A 
HETATM   23  C   UNL     1      44.400  -7.824   8.703  1.00  0.00     0.037 A 
HETATM   24  C   UNL     1      43.360  -7.439   9.552  1.00  0.00     0.012 A 
BRANCH  22  25
HETATM   25  O   UNL     1      46.250  -9.201   8.221  1.00  0.00    -0.361 OA
HETATM   26  H   UNL     1      47.094  -8.943   8.627  1.00  0.00     0.217 HD
ENDBRANCH  22  25
ENDBRANCH  12  19
TORSDOF 2
ENDMDL
