MODEL 1
REMARK VINA RESULT:      -8.6      0.000      0.000
REMARK  7 active torsions:
REMARK  status: ('A' for Active; 'I' for Inactive)
REMARK    1  A    between atoms: C_2  and  C_3 
REMARK    2  A    between atoms: C_3  and  C_4 
REMARK    3  A    between atoms: C_8  and  C_9 
REMARK       I    between atoms: C_9  and  N_10 
REMARK    4  A    between atoms: N_10  and  C_11 
REMARK    5  A    between atoms: C_11  and  C_12 
REMARK    6  A    between atoms: C_12  and  N_13 
REMARK    7  A    between atoms: C_16  and  C_17 
ROOT
HETATM    1  C   UNL     1      41.011 -12.332   4.042  1.00  0.00     0.150 C 
ENDROOT
BRANCH   1   2
HETATM    2  N   UNL     1      42.214 -12.265   4.860  1.00  0.00    -0.354 N 
HETATM    3  C   UNL     1      43.387 -11.670   4.429  1.00  0.00     0.272 C 
HETATM    4  O   UNL     1      43.624 -11.501   3.237  1.00  0.00    -0.266 OA
HETATM    5  H   UNL     1      42.118 -12.227   5.878  1.00  0.00     0.162 HD
BRANCH   3   6
HETATM    6  C   UNL     1      44.326 -11.364   5.512  1.00  0.00     0.146 A 
HETATM    7  N   UNL     1      45.647 -11.240   5.271  1.00  0.00    -0.169 NA
HETATM    8  N   UNL     1      46.170 -10.947   6.478  1.00  0.00    -0.282 N 
HETATM    9  C   UNL     1      45.238 -10.872   7.476  1.00  0.00     0.030 A 
HETATM   10  H   UNL     1      47.174 -10.804   6.552  1.00  0.00     0.189 HD
HETATM   11  C   UNL     1      44.029 -11.145   6.877  1.00  0.00     0.065 A 
BRANCH   9  12
HETATM   12  C   UNL     1      45.598 -10.554   8.886  1.00  0.00     0.058 C 
BRANCH  12  13
HETATM   13  C   UNL     1      45.010  -9.212   9.324  1.00  0.00     0.002 C 
HETATM   14  C   UNL     1      44.371  -9.305  10.700  1.00  0.00     0.005 C 
ENDBRANCH  12  13
ENDBRANCH   9  12
ENDBRANCH   3   6
ENDBRANCH   1   2
BRANCH   1  15
HETATM   15  C   UNL     1      40.754 -13.692   3.361  1.00  0.00     0.254 C 
BRANCH  15  16
HETATM   16  N   UNL     1      42.045 -14.442   3.157  1.00  0.00    -0.069 N 
HETATM   17  H   UNL     1      42.753 -13.854   3.623  1.00  0.00     0.280 HD
HETATM   18  C   UNL     1      42.133 -15.814   3.773  1.00  0.00     0.244 C 
HETATM   19  C   UNL     1      43.311 -16.432   3.023  1.00  0.00     0.046 C 
HETATM   20  C   UNL     1      43.063 -15.968   1.589  1.00  0.00     0.039 C 
HETATM   21  C   UNL     1      42.496 -14.560   1.720  1.00  0.00     0.235 C 
BRANCH  19  22
HETATM   22  C   UNL     1      43.467 -17.932   3.158  1.00  0.00    -0.046 A 
HETATM   23  C   UNL     1      44.002 -18.514   4.330  1.00  0.00    -0.055 A 
HETATM   24  C   UNL     1      44.447 -17.696   5.515  1.00  0.00     0.049 C 
HETATM   25  C   UNL     1      44.125 -19.912   4.415  1.00  0.00     0.007 A 
HETATM   26  C   UNL     1      43.747 -20.731   3.355  1.00  0.00     0.001 A 
HETATM   27  C   UNL     1      43.243 -20.166   2.191  1.00  0.00     0.001 A 
HETATM   28  C   UNL     1      43.109 -18.781   2.092  1.00  0.00     0.008 A 
ENDBRANCH  19  22
ENDBRANCH  15  16
ENDBRANCH   1  15
TORSDOF 7
ENDMDL
MODEL 2
REMARK VINA RESULT:      -8.5      1.591      1.826
REMARK  7 active torsions:
REMARK  status: ('A' for Active; 'I' for Inactive)
REMARK    1  A    between atoms: C_2  and  C_3 
REMARK    2  A    between atoms: C_3  and  C_4 
REMARK    3  A    between atoms: C_8  and  C_9 
REMARK       I    between atoms: C_9  and  N_10 
REMARK    4  A    between atoms: N_10  and  C_11 
REMARK    5  A    between atoms: C_11  and  C_12 
REMARK    6  A    between atoms: C_12  and  N_13 
REMARK    7  A    between atoms: C_16  and  C_17 
ROOT
HETATM    1  C   UNL     1      39.762 -13.104   3.521  1.00  0.00     0.150 C 
ENDROOT
BRANCH   1   2
HETATM    2  N   UNL     1      40.915 -12.654   4.290  1.00  0.00    -0.354 N 
HETATM    3  C   UNL     1      41.049 -12.879   5.649  1.00  0.00     0.272 C 
HETATM    4  O   UNL     1      40.080 -13.123   6.361  1.00  0.00    -0.266 OA
HETATM    5  H   UNL     1      41.823 -12.581   3.823  1.00  0.00     0.162 HD
BRANCH   3   6
HETATM    6  C   UNL     1      42.418 -12.703   6.143  1.00  0.00     0.146 A 
HETATM    7  N   UNL     1      43.218 -13.766   6.361  1.00  0.00    -0.169 NA
HETATM    8  N   UNL     1      44.375 -13.218   6.784  1.00  0.00    -0.282 N 
HETATM    9  C   UNL     1      44.347 -11.852   6.838  1.00  0.00     0.030 A 
HETATM   10  H   UNL     1      45.150 -13.835   7.016  1.00  0.00     0.189 HD
HETATM   11  C   UNL     1      43.083 -11.489   6.432  1.00  0.00     0.065 A 
BRANCH   9  12
HETATM   12  C   UNL     1      45.520 -11.043   7.273  1.00  0.00     0.058 C 
BRANCH  12  13
HETATM   13  C   UNL     1      45.261 -10.362   8.618  1.00  0.00     0.002 C 
HETATM   14  C   UNL     1      45.418  -8.854   8.518  1.00  0.00     0.005 C 
ENDBRANCH  12  13
ENDBRANCH   9  12
ENDBRANCH   3   6
ENDBRANCH   1   2
BRANCH   1  15
HETATM   15  C   UNL     1      40.028 -14.290   2.570  1.00  0.00     0.254 C 
BRANCH  15  16
HETATM   16  N   UNL     1      41.425 -14.823   2.757  1.00  0.00    -0.069 N 
HETATM   17  H   UNL     1      41.866 -14.151   3.403  1.00  0.00     0.280 HD
HETATM   18  C   UNL     1      41.547 -16.187   3.386  1.00  0.00     0.244 C 
HETATM   19  C   UNL     1      42.974 -16.588   3.017  1.00  0.00     0.046 C 
HETATM   20  C   UNL     1      43.079 -16.117   1.568  1.00  0.00     0.039 C 
HETATM   21  C   UNL     1      42.283 -14.818   1.514  1.00  0.00     0.235 C 
BRANCH  19  22
HETATM   22  C   UNL     1      43.319 -18.050   3.206  1.00  0.00    -0.046 A 
HETATM   23  C   UNL     1      43.890 -18.522   4.411  1.00  0.00    -0.055 A 
HETATM   24  C   UNL     1      44.189 -17.617   5.578  1.00  0.00     0.049 C 
HETATM   25  C   UNL     1      44.191 -19.888   4.546  1.00  0.00     0.007 A 
HETATM   26  C   UNL     1      43.955 -20.782   3.505  1.00  0.00     0.001 A 
HETATM   27  C   UNL     1      43.416 -20.323   2.311  1.00  0.00     0.001 A 
HETATM   28  C   UNL     1      43.106 -18.971   2.161  1.00  0.00     0.008 A 
ENDBRANCH  19  22
ENDBRANCH  15  16
ENDBRANCH   1  15
TORSDOF 7
ENDMDL
MODEL 3
REMARK VINA RESULT:      -8.1      1.933      3.129
REMARK  7 active torsions:
REMARK  status: ('A' for Active; 'I' for Inactive)
REMARK    1  A    between atoms: C_2  and  C_3 
REMARK    2  A    between atoms: C_3  and  C_4 
REMARK    3  A    between atoms: C_8  and  C_9 
REMARK       I    between atoms: C_9  and  N_10 
REMARK    4  A    between atoms: N_10  and  C_11 
REMARK    5  A    between atoms: C_11  and  C_12 
REMARK    6  A    between atoms: C_12  and  N_13 
REMARK    7  A    between atoms: C_16  and  C_17 
ROOT
HETATM    1  C   UNL     1      40.277 -12.249   1.336  1.00  0.00     0.150 C 
ENDROOT
BRANCH   1   2
HETATM    2  N   UNL     1      40.965 -11.956   2.586  1.00  0.00    -0.354 N 
HETATM    3  C   UNL     1      40.618 -12.539   3.792  1.00  0.00     0.272 C 
HETATM    4  O   UNL     1      39.510 -13.032   3.975  1.00  0.00    -0.266 OA
HETATM    5  H   UNL     1      41.955 -11.698   2.556  1.00  0.00     0.162 HD
BRANCH   3   6
HETATM    6  C   UNL     1      41.653 -12.418   4.824  1.00  0.00     0.146 A 
HETATM    7  N   UNL     1      41.361 -12.616   6.125  1.00  0.00    -0.169 NA
HETATM    8  N   UNL     1      42.541 -12.440   6.752  1.00  0.00    -0.282 N 
HETATM    9  C   UNL     1      43.572 -12.145   5.905  1.00  0.00     0.030 A 
HETATM   10  H   UNL     1      42.574 -12.541   7.764  1.00  0.00     0.189 HD
HETATM   11  C   UNL     1      43.023 -12.119   4.644  1.00  0.00     0.065 A 
BRANCH   9  12
HETATM   12  C   UNL     1      44.964 -11.917   6.386  1.00  0.00     0.058 C 
BRANCH  12  13
HETATM   13  C   UNL     1      44.979 -11.162   7.716  1.00  0.00     0.002 C 
HETATM   14  C   UNL     1      46.113 -10.151   7.769  1.00  0.00     0.005 C 
ENDBRANCH  12  13
ENDBRANCH   9  12
ENDBRANCH   3   6
ENDBRANCH   1   2
BRANCH   1  15
HETATM   15  C   UNL     1      41.141 -12.923   0.251  1.00  0.00     0.254 C 
BRANCH  15  16
HETATM   16  N   UNL     1      41.369 -14.377   0.574  1.00  0.00    -0.069 N 
HETATM   17  H   UNL     1      41.613 -14.801  -0.334  1.00  0.00     0.280 HD
HETATM   18  C   UNL     1      42.495 -14.689   1.525  1.00  0.00     0.244 C 
HETATM   19  C   UNL     1      42.163 -16.113   1.966  1.00  0.00     0.046 C 
HETATM   20  C   UNL     1      40.649 -16.049   2.159  1.00  0.00     0.039 C 
HETATM   21  C   UNL     1      40.148 -15.124   1.056  1.00  0.00     0.235 C 
BRANCH  19  22
HETATM   22  C   UNL     1      42.909 -16.618   3.182  1.00  0.00    -0.046 A 
HETATM   23  C   UNL     1      43.372 -17.952   3.261  1.00  0.00    -0.055 A 
HETATM   24  C   UNL     1      43.163 -18.952   2.152  1.00  0.00     0.049 C 
HETATM   25  C   UNL     1      44.064 -18.379   4.407  1.00  0.00     0.007 A 
HETATM   26  C   UNL     1      44.284 -17.515   5.476  1.00  0.00     0.001 A 
HETATM   27  C   UNL     1      43.811 -16.211   5.418  1.00  0.00     0.001 A 
HETATM   28  C   UNL     1      43.127 -15.768   4.285  1.00  0.00     0.008 A 
ENDBRANCH  19  22
ENDBRANCH  15  16
ENDBRANCH   1  15
TORSDOF 7
ENDMDL
MODEL 4
REMARK VINA RESULT:      -8.0      2.215      3.075
REMARK  7 active torsions:
REMARK  status: ('A' for Active; 'I' for Inactive)
REMARK    1  A    between atoms: C_2  and  C_3 
REMARK    2  A    between atoms: C_3  and  C_4 
REMARK    3  A    between atoms: C_8  and  C_9 
REMARK       I    between atoms: C_9  and  N_10 
REMARK    4  A    between atoms: N_10  and  C_11 
REMARK    5  A    between atoms: C_11  and  C_12 
REMARK    6  A    between atoms: C_12  and  N_13 
REMARK    7  A    between atoms: C_16  and  C_17 
ROOT
HETATM    1  C   UNL     1      42.864 -13.483   6.353  1.00  0.00     0.150 C 
ENDROOT
BRANCH   1   2
HETATM    2  N   UNL     1      43.441 -12.690   7.431  1.00  0.00    -0.354 N 
HETATM    3  C   UNL     1      44.468 -11.784   7.234  1.00  0.00     0.272 C 
HETATM    4  O   UNL     1      45.207 -11.849   6.257  1.00  0.00    -0.266 OA
HETATM    5  H   UNL     1      42.849 -12.431   8.225  1.00  0.00     0.162 HD
BRANCH   3   6
HETATM    6  C   UNL     1      44.632 -10.830   8.335  1.00  0.00     0.146 A 
HETATM    7  N   UNL     1      45.799 -10.182   8.523  1.00  0.00    -0.169 NA
HETATM    8  N   UNL     1      45.565  -9.397   9.594  1.00  0.00    -0.282 N 
HETATM    9  C   UNL     1      44.296  -9.512  10.090  1.00  0.00     0.030 A 
HETATM   10  H   UNL     1      46.315  -8.801   9.934  1.00  0.00     0.189 HD
HETATM   11  C   UNL     1      43.668 -10.442   9.293  1.00  0.00     0.065 A 
BRANCH   9  12
HETATM   12  C   UNL     1      43.822  -8.731  11.267  1.00  0.00     0.058 C 
BRANCH  12  13
HETATM   13  C   UNL     1      43.077  -9.621  12.264  1.00  0.00     0.002 C 
HETATM   14  C   UNL     1      42.469  -8.803  13.392  1.00  0.00     0.005 C 
ENDBRANCH  12  13
ENDBRANCH   9  12
ENDBRANCH   3   6
ENDBRANCH   1   2
BRANCH   1  15
HETATM   15  C   UNL     1      41.982 -14.665   6.805  1.00  0.00     0.254 C 
BRANCH  15  16
HETATM   16  N   UNL     1      42.739 -15.964   6.710  1.00  0.00    -0.069 N 
HETATM   17  H   UNL     1      42.555 -16.429   7.612  1.00  0.00     0.280 HD
HETATM   18  C   UNL     1      42.309 -16.917   5.625  1.00  0.00     0.244 C 
HETATM   19  C   UNL     1      43.509 -17.855   5.521  1.00  0.00     0.046 C 
HETATM   20  C   UNL     1      44.687 -16.889   5.627  1.00  0.00     0.039 C 
HETATM   21  C   UNL     1      44.241 -15.826   6.623  1.00  0.00     0.235 C 
BRANCH  19  22
HETATM   22  C   UNL     1      43.555 -18.737   4.292  1.00  0.00    -0.046 A 
HETATM   23  C   UNL     1      43.864 -20.114   4.383  1.00  0.00    -0.055 A 
HETATM   24  C   UNL     1      44.161 -20.796   5.695  1.00  0.00     0.049 C 
HETATM   25  C   UNL     1      43.891 -20.897   3.216  1.00  0.00     0.007 A 
HETATM   26  C   UNL     1      43.639 -20.334   1.968  1.00  0.00     0.001 A 
HETATM   27  C   UNL     1      43.360 -18.978   1.867  1.00  0.00     0.001 A 
HETATM   28  C   UNL     1      43.322 -18.187   3.015  1.00  0.00     0.008 A 
ENDBRANCH  19  22
ENDBRANCH  15  16
ENDBRANCH   1  15
TORSDOF 7
ENDMDL
MODEL 5
REMARK VINA RESULT:      -7.9      2.668      4.120
REMARK  7 active torsions:
REMARK  status: ('A' for Active; 'I' for Inactive)
REMARK    1  A    between atoms: C_2  and  C_3 
REMARK    2  A    between atoms: C_3  and  C_4 
REMARK    3  A    between atoms: C_8  and  C_9 
REMARK       I    between atoms: C_9  and  N_10 
REMARK    4  A    between atoms: N_10  and  C_11 
REMARK    5  A    between atoms: C_11  and  C_12 
REMARK    6  A    between atoms: C_12  and  N_13 
REMARK    7  A    between atoms: C_16  and  C_17 
ROOT
HETATM    1  C   UNL     1      43.731 -11.953   6.493  1.00  0.00     0.150 C 
ENDROOT
BRANCH   1   2
HETATM    2  N   UNL     1      43.700 -11.655   7.918  1.00  0.00    -0.354 N 
HETATM    3  C   UNL     1      44.610 -10.811   8.532  1.00  0.00     0.272 C 
HETATM    4  O   UNL     1      45.700 -10.562   8.027  1.00  0.00    -0.266 OA
HETATM    5  H   UNL     1      42.801 -11.667   8.407  1.00  0.00     0.162 HD
BRANCH   3   6
HETATM    6  C   UNL     1      44.182 -10.344   9.854  1.00  0.00     0.146 A 
HETATM    7  N   UNL     1      43.820 -11.218  10.814  1.00  0.00    -0.169 NA
HETATM    8  N   UNL     1      43.515 -10.433  11.867  1.00  0.00    -0.282 N 
HETATM    9  C   UNL     1      43.675  -9.098  11.620  1.00  0.00     0.030 A 
HETATM   10  H   UNL     1      43.208 -10.874  12.730  1.00  0.00     0.189 HD
HETATM   11  C   UNL     1      44.103  -9.010  10.315  1.00  0.00     0.065 A 
BRANCH   9  12
HETATM   12  C   UNL     1      43.400  -8.054  12.647  1.00  0.00     0.058 C 
BRANCH  12  13
HETATM   13  C   UNL     1      42.565  -8.612  13.801  1.00  0.00     0.002 C 
HETATM   14  C   UNL     1      42.126  -7.511  14.753  1.00  0.00     0.005 C 
ENDBRANCH  12  13
ENDBRANCH   9  12
ENDBRANCH   3   6
ENDBRANCH   1   2
BRANCH   1  15
HETATM   15  C   UNL     1      42.429 -11.642   5.727  1.00  0.00     0.254 C 
BRANCH  15  16
HETATM   16  N   UNL     1      41.781 -12.911   5.236  1.00  0.00    -0.069 N 
HETATM   17  H   UNL     1      41.024 -12.583   4.616  1.00  0.00     0.280 HD
HETATM   18  C   UNL     1      42.646 -13.840   4.425  1.00  0.00     0.244 C 
HETATM   19  C   UNL     1      41.865 -15.151   4.489  1.00  0.00     0.046 C 
HETATM   20  C   UNL     1      41.410 -15.188   5.947  1.00  0.00     0.039 C 
HETATM   21  C   UNL     1      41.103 -13.738   6.303  1.00  0.00     0.235 C 
BRANCH  19  22
HETATM   22  C   UNL     1      42.618 -16.391   4.057  1.00  0.00    -0.046 A 
HETATM   23  C   UNL     1      42.348 -17.024   2.821  1.00  0.00    -0.055 A 
HETATM   24  C   UNL     1      41.307 -16.514   1.857  1.00  0.00     0.049 C 
HETATM   25  C   UNL     1      43.074 -18.171   2.457  1.00  0.00     0.007 A 
HETATM   26  C   UNL     1      44.041 -18.707   3.303  1.00  0.00     0.001 A 
HETATM   27  C   UNL     1      44.296 -18.106   4.528  1.00  0.00     0.001 A 
HETATM   28  C   UNL     1      43.589 -16.963   4.903  1.00  0.00     0.008 A 
ENDBRANCH  19  22
ENDBRANCH  15  16
ENDBRANCH   1  15
TORSDOF 7
ENDMDL
MODEL 6
REMARK VINA RESULT:      -7.8      4.989      8.119
REMARK  7 active torsions:
REMARK  status: ('A' for Active; 'I' for Inactive)
REMARK    1  A    between atoms: C_2  and  C_3 
REMARK    2  A    between atoms: C_3  and  C_4 
REMARK    3  A    between atoms: C_8  and  C_9 
REMARK       I    between atoms: C_9  and  N_10 
REMARK    4  A    between atoms: N_10  and  C_11 
REMARK    5  A    between atoms: C_11  and  C_12 
REMARK    6  A    between atoms: C_12  and  N_13 
REMARK    7  A    between atoms: C_16  and  C_17 
ROOT
HETATM    1  C   UNL     1      39.839 -14.695   0.969  1.00  0.00     0.150 C 
ENDROOT
BRANCH   1   2
HETATM    2  N   UNL     1      39.498 -13.653   0.011  1.00  0.00    -0.354 N 
HETATM    3  C   UNL     1      39.118 -13.921  -1.293  1.00  0.00     0.272 C 
HETATM    4  O   UNL     1      39.397 -14.983  -1.840  1.00  0.00    -0.266 OA
HETATM    5  H   UNL     1      39.091 -12.779   0.355  1.00  0.00     0.162 HD
BRANCH   3   6
HETATM    6  C   UNL     1      38.454 -12.796  -1.957  1.00  0.00     0.146 A 
HETATM    7  N   UNL     1      38.981 -12.236  -3.065  1.00  0.00    -0.169 NA
HETATM    8  N   UNL     1      38.101 -11.267  -3.388  1.00  0.00    -0.282 N 
HETATM    9  C   UNL     1      37.034 -11.191  -2.537  1.00  0.00     0.030 A 
HETATM   10  H   UNL     1      38.287 -10.694  -4.207  1.00  0.00     0.189 HD
HETATM   11  C   UNL     1      37.240 -12.171  -1.592  1.00  0.00     0.065 A 
BRANCH   9  12
HETATM   12  C   UNL     1      35.939 -10.196  -2.712  1.00  0.00     0.058 C 
BRANCH  12  13
HETATM   13  C   UNL     1      35.222 -10.383  -4.050  1.00  0.00     0.002 C 
HETATM   14  C   UNL     1      34.311 -11.600  -4.029  1.00  0.00     0.005 C 
ENDBRANCH  12  13
ENDBRANCH   9  12
ENDBRANCH   3   6
ENDBRANCH   1   2
BRANCH   1  15
HETATM   15  C   UNL     1      40.302 -14.193   2.352  1.00  0.00     0.254 C 
BRANCH  15  16
HETATM   16  N   UNL     1      41.643 -14.778   2.713  1.00  0.00    -0.069 N 
HETATM   17  H   UNL     1      41.996 -14.158   3.458  1.00  0.00     0.280 HD
HETATM   18  C   UNL     1      41.640 -16.179   3.268  1.00  0.00     0.244 C 
HETATM   19  C   UNL     1      43.097 -16.601   3.093  1.00  0.00     0.046 C 
HETATM   20  C   UNL     1      43.431 -16.051   1.708  1.00  0.00     0.039 C 
HETATM   21  C   UNL     1      42.680 -14.728   1.616  1.00  0.00     0.235 C 
BRANCH  19  22
HETATM   22  C   UNL     1      43.378 -18.081   3.242  1.00  0.00    -0.046 A 
HETATM   23  C   UNL     1      43.870 -18.620   4.454  1.00  0.00    -0.055 A 
HETATM   24  C   UNL     1      44.141 -17.771   5.670  1.00  0.00     0.049 C 
HETATM   25  C   UNL     1      44.113 -20.001   4.550  1.00  0.00     0.007 A 
HETATM   26  C   UNL     1      43.898 -20.845   3.464  1.00  0.00     0.001 A 
HETATM   27  C   UNL     1      43.439 -20.321   2.264  1.00  0.00     0.001 A 
HETATM   28  C   UNL     1      43.186 -18.954   2.152  1.00  0.00     0.008 A 
ENDBRANCH  19  22
ENDBRANCH  15  16
ENDBRANCH   1  15
TORSDOF 7
ENDMDL
MODEL 7
REMARK VINA RESULT:      -7.7      4.280      7.288
REMARK  7 active torsions:
REMARK  status: ('A' for Active; 'I' for Inactive)
REMARK    1  A    between atoms: C_2  and  C_3 
REMARK    2  A    between atoms: C_3  and  C_4 
REMARK    3  A    between atoms: C_8  and  C_9 
REMARK       I    between atoms: C_9  and  N_10 
REMARK    4  A    between atoms: N_10  and  C_11 
REMARK    5  A    between atoms: C_11  and  C_12 
REMARK    6  A    between atoms: C_12  and  N_13 
REMARK    7  A    between atoms: C_16  and  C_17 
ROOT
HETATM    1  C   UNL     1      39.519 -13.791   2.373  1.00  0.00     0.150 C 
ENDROOT
BRANCH   1   2
HETATM    2  N   UNL     1      39.423 -13.086   1.102  1.00  0.00    -0.354 N 
HETATM    3  C   UNL     1      39.682 -13.689  -0.116  1.00  0.00     0.272 C 
HETATM    4  O   UNL     1      40.357 -14.710  -0.200  1.00  0.00    -0.266 OA
HETATM    5  H   UNL     1      38.755 -12.315   1.013  1.00  0.00     0.162 HD
BRANCH   3   6
HETATM    6  C   UNL     1      39.162 -12.942  -1.266  1.00  0.00     0.146 A 
HETATM    7  N   UNL     1      38.329 -13.525  -2.152  1.00  0.00    -0.169 NA
HETATM    8  N   UNL     1      38.058 -12.544  -3.035  1.00  0.00    -0.282 N 
HETATM    9  C   UNL     1      38.678 -11.360  -2.746  1.00  0.00     0.030 A 
HETATM   10  H   UNL     1      37.437 -12.748  -3.814  1.00  0.00     0.189 HD
HETATM   11  C   UNL     1      39.408 -11.591  -1.602  1.00  0.00     0.065 A 
BRANCH   9  12
HETATM   12  C   UNL     1      38.512 -10.142  -3.588  1.00  0.00     0.058 C 
BRANCH  12  13
HETATM   13  C   UNL     1      39.597  -9.106  -3.291  1.00  0.00     0.002 C 
HETATM   14  C   UNL     1      40.803  -9.288  -4.199  1.00  0.00     0.005 C 
ENDBRANCH  12  13
ENDBRANCH   9  12
ENDBRANCH   3   6
ENDBRANCH   1   2
BRANCH   1  15
HETATM   15  C   UNL     1      40.409 -13.115   3.436  1.00  0.00     0.254 C 
BRANCH  15  16
HETATM   16  N   UNL     1      41.755 -13.789   3.513  1.00  0.00    -0.069 N 
HETATM   17  H   UNL     1      42.247 -13.281   4.264  1.00  0.00     0.280 HD
HETATM   18  C   UNL     1      41.758 -15.248   3.892  1.00  0.00     0.244 C 
HETATM   19  C   UNL     1      43.148 -15.696   3.445  1.00  0.00     0.046 C 
HETATM   20  C   UNL     1      43.302 -14.987   2.101  1.00  0.00     0.039 C 
HETATM   21  C   UNL     1      42.619 -13.638   2.284  1.00  0.00     0.235 C 
BRANCH  19  22
HETATM   22  C   UNL     1      43.367 -17.192   3.371  1.00  0.00    -0.046 A 
HETATM   23  C   UNL     1      43.987 -17.899   4.427  1.00  0.00    -0.055 A 
HETATM   24  C   UNL     1      44.465 -17.224   5.687  1.00  0.00     0.049 C 
HETATM   25  C   UNL     1      44.168 -19.289   4.318  1.00  0.00     0.007 A 
HETATM   26  C   UNL     1      43.764 -19.978   3.178  1.00  0.00     0.001 A 
HETATM   27  C   UNL     1      43.176 -19.288   2.127  1.00  0.00     0.001 A 
HETATM   28  C   UNL     1      42.984 -17.910   2.220  1.00  0.00     0.008 A 
ENDBRANCH  19  22
ENDBRANCH  15  16
ENDBRANCH   1  15
TORSDOF 7
ENDMDL
MODEL 8
REMARK VINA RESULT:      -7.6      3.293      4.061
REMARK  7 active torsions:
REMARK  status: ('A' for Active; 'I' for Inactive)
REMARK    1  A    between atoms: C_2  and  C_3 
REMARK    2  A    between atoms: C_3  and  C_4 
REMARK    3  A    between atoms: C_8  and  C_9 
REMARK       I    between atoms: C_9  and  N_10 
REMARK    4  A    between atoms: N_10  and  C_11 
REMARK    5  A    between atoms: C_11  and  C_12 
REMARK    6  A    between atoms: C_12  and  N_13 
REMARK    7  A    between atoms: C_16  and  C_17 
ROOT
HETATM    1  C   UNL     1      39.506 -12.699   5.284  1.00  0.00     0.150 C 
ENDROOT
BRANCH   1   2
HETATM    2  N   UNL     1      39.776 -11.860   6.444  1.00  0.00    -0.354 N 
HETATM    3  C   UNL     1      38.924 -10.851   6.859  1.00  0.00     0.272 C 
HETATM    4  O   UNL     1      38.104 -10.346   6.099  1.00  0.00    -0.266 OA
HETATM    5  H   UNL     1      40.314 -12.250   7.222  1.00  0.00     0.162 HD
BRANCH   3   6
HETATM    6  C   UNL     1      39.170 -10.400   8.232  1.00  0.00     0.146 A 
HETATM    7  N   UNL     1      38.476 -10.918   9.266  1.00  0.00    -0.169 NA
HETATM    8  N   UNL     1      38.981 -10.285  10.344  1.00  0.00    -0.282 N 
HETATM    9  C   UNL     1      39.971  -9.392  10.040  1.00  0.00     0.030 A 
HETATM   10  H   UNL     1      38.608 -10.513  11.261  1.00  0.00     0.189 HD
HETATM   11  C   UNL     1      40.111  -9.441   8.672  1.00  0.00     0.065 A 
BRANCH   9  12
HETATM   12  C   UNL     1      40.671  -8.587  11.081  1.00  0.00     0.058 C 
BRANCH  12  13
HETATM   13  C   UNL     1      41.600  -9.458  11.929  1.00  0.00     0.002 C 
HETATM   14  C   UNL     1      41.130  -9.532  13.372  1.00  0.00     0.005 C 
ENDBRANCH  12  13
ENDBRANCH   9  12
ENDBRANCH   3   6
ENDBRANCH   1   2
BRANCH   1  15
HETATM   15  C   UNL     1      40.315 -12.351   4.018  1.00  0.00     0.254 C 
BRANCH  15  16
HETATM   16  N   UNL     1      41.668 -13.014   4.048  1.00  0.00    -0.069 N 
HETATM   17  H   UNL     1      42.156 -12.553   4.831  1.00  0.00     0.280 HD
HETATM   18  C   UNL     1      41.688 -14.495   4.326  1.00  0.00     0.244 C 
HETATM   19  C   UNL     1      43.082 -14.896   3.848  1.00  0.00     0.046 C 
HETATM   20  C   UNL     1      43.226 -14.096   2.555  1.00  0.00     0.039 C 
HETATM   21  C   UNL     1      42.528 -12.769   2.831  1.00  0.00     0.235 C 
BRANCH  19  22
HETATM   22  C   UNL     1      43.317 -16.381   3.672  1.00  0.00    -0.046 A 
HETATM   23  C   UNL     1      43.956 -17.150   4.673  1.00  0.00    -0.055 A 
HETATM   24  C   UNL     1      44.437 -16.555   5.971  1.00  0.00     0.049 C 
HETATM   25  C   UNL     1      44.151 -18.527   4.469  1.00  0.00     0.007 A 
HETATM   26  C   UNL     1      43.744 -19.143   3.289  1.00  0.00     0.001 A 
HETATM   27  C   UNL     1      43.138 -18.391   2.292  1.00  0.00     0.001 A 
HETATM   28  C   UNL     1      42.931 -17.025   2.479  1.00  0.00     0.008 A 
ENDBRANCH  19  22
ENDBRANCH  15  16
ENDBRANCH   1  15
TORSDOF 7
ENDMDL
MODEL 9
REMARK VINA RESULT:      -7.5      2.410      9.697
REMARK  7 active torsions:
REMARK  status: ('A' for Active; 'I' for Inactive)
REMARK    1  A    between atoms: C_2  and  C_3 
REMARK    2  A    between atoms: C_3  and  C_4 
REMARK    3  A    between atoms: C_8  and  C_9 
REMARK       I    between atoms: C_9  and  N_10 
REMARK    4  A    between atoms: N_10  and  C_11 
REMARK    5  A    between atoms: C_11  and  C_12 
REMARK    6  A    between atoms: C_12  and  N_13 
REMARK    7  A    between atoms: C_16  and  C_17 
ROOT
HETATM    1  C   UNL     1      43.194 -12.403   6.635  1.00  0.00     0.150 C 
ENDROOT
BRANCH   1   2
HETATM    2  N   UNL     1      43.458 -13.835   6.591  1.00  0.00    -0.354 N 
HETATM    3  C   UNL     1      42.468 -14.778   6.378  1.00  0.00     0.272 C 
HETATM    4  O   UNL     1      41.285 -14.529   6.583  1.00  0.00    -0.266 OA
HETATM    5  H   UNL     1      44.373 -14.159   6.265  1.00  0.00     0.162 HD
BRANCH   3   6
HETATM    6  C   UNL     1      42.983 -16.094   5.986  1.00  0.00     0.146 A 
HETATM    7  N   UNL     1      43.077 -17.097   6.882  1.00  0.00    -0.169 NA
HETATM    8  N   UNL     1      43.563 -18.128   6.164  1.00  0.00    -0.282 N 
HETATM    9  C   UNL     1      43.776 -17.827   4.848  1.00  0.00     0.030 A 
HETATM   10  H   UNL     1      43.723 -19.016   6.634  1.00  0.00     0.189 HD
HETATM   11  C   UNL     1      43.412 -16.507   4.704  1.00  0.00     0.065 A 
BRANCH   9  12
HETATM   12  C   UNL     1      44.305 -18.822   3.873  1.00  0.00     0.058 C 
BRANCH  12  13
HETATM   13  C   UNL     1      43.483 -18.831   2.582  1.00  0.00     0.002 C 
HETATM   14  C   UNL     1      43.346 -20.236   2.019  1.00  0.00     0.005 C 
ENDBRANCH  12  13
ENDBRANCH   9  12
ENDBRANCH   3   6
ENDBRANCH   1   2
BRANCH   1  15
HETATM   15  C   UNL     1      44.284 -11.513   6.004  1.00  0.00     0.254 C 
BRANCH  15  16
HETATM   16  N   UNL     1      44.715 -10.434   6.963  1.00  0.00    -0.069 N 
HETATM   17  H   UNL     1      44.997  -9.652   6.351  1.00  0.00     0.280 HD
HETATM   18  C   UNL     1      43.661  -9.903   7.900  1.00  0.00     0.244 C 
HETATM   19  C   UNL     1      44.499  -9.210   8.972  1.00  0.00     0.046 C 
HETATM   20  C   UNL     1      45.647 -10.197   9.177  1.00  0.00     0.039 C 
HETATM   21  C   UNL     1      45.935 -10.763   7.791  1.00  0.00     0.235 C 
BRANCH  19  22
HETATM   22  C   UNL     1      43.771  -8.853  10.251  1.00  0.00    -0.046 A 
HETATM   23  C   UNL     1      43.184  -7.579  10.432  1.00  0.00    -0.055 A 
HETATM   24  C   UNL     1      43.235  -6.502   9.379  1.00  0.00     0.049 C 
HETATM   25  C   UNL     1      42.513  -7.291  11.634  1.00  0.00     0.007 A 
HETATM   26  C   UNL     1      42.436  -8.232  12.656  1.00  0.00     0.001 A 
HETATM   27  C   UNL     1      43.030  -9.476  12.496  1.00  0.00     0.001 A 
HETATM   28  C   UNL     1      43.695  -9.782  11.308  1.00  0.00     0.008 A 
ENDBRANCH  19  22
ENDBRANCH  15  16
ENDBRANCH   1  15
TORSDOF 7
ENDMDL
MODEL 10
REMARK VINA RESULT:      -7.4      2.973      6.351
REMARK  7 active torsions:
REMARK  status: ('A' for Active; 'I' for Inactive)
REMARK    1  A    between atoms: C_2  and  C_3 
REMARK    2  A    between atoms: C_3  and  C_4 
REMARK    3  A    between atoms: C_8  and  C_9 
REMARK       I    between atoms: C_9  and  N_10 
REMARK    4  A    between atoms: N_10  and  C_11 
REMARK    5  A    between atoms: C_11  and  C_12 
REMARK    6  A    between atoms: C_12  and  N_13 
REMARK    7  A    between atoms: C_16  and  C_17 
ROOT
HETATM    1  C   UNL     1      40.237 -11.195   4.816  1.00  0.00     0.150 C 
ENDROOT
BRANCH   1   2
HETATM    2  N   UNL     1      40.128 -11.709   3.458  1.00  0.00    -0.354 N 
HETATM    3  C   UNL     1      41.220 -11.882   2.626  1.00  0.00     0.272 C 
HETATM    4  O   UNL     1      42.274 -11.283   2.814  1.00  0.00    -0.266 OA
HETATM    5  H   UNL     1      39.371 -12.362   3.236  1.00  0.00     0.162 HD
BRANCH   3   6
HETATM    6  C   UNL     1      40.955 -12.754   1.478  1.00  0.00     0.146 A 
HETATM    7  N   UNL     1      41.854 -13.682   1.091  1.00  0.00    -0.169 NA
HETATM    8  N   UNL     1      41.263 -14.285   0.040  1.00  0.00    -0.282 N 
HETATM    9  C   UNL     1      40.025 -13.786  -0.253  1.00  0.00     0.030 A 
HETATM   10  H   UNL     1      41.760 -15.037  -0.432  1.00  0.00     0.189 HD
HETATM   11  C   UNL     1      39.801 -12.784   0.663  1.00  0.00     0.065 A 
BRANCH   9  12
HETATM   12  C   UNL     1      39.193 -14.312  -1.373  1.00  0.00     0.058 C 
BRANCH  12  13
HETATM   13  C   UNL     1      39.899 -14.144  -2.719  1.00  0.00     0.002 C 
HETATM   14  C   UNL     1      40.301 -12.698  -2.960  1.00  0.00     0.005 C 
ENDBRANCH  12  13
ENDBRANCH   9  12
ENDBRANCH   3   6
ENDBRANCH   1   2
BRANCH   1  15
HETATM   15  C   UNL     1      39.819 -12.179   5.928  1.00  0.00     0.254 C 
BRANCH  15  16
HETATM   16  N   UNL     1      40.926 -13.158   6.221  1.00  0.00    -0.069 N 
HETATM   17  H   UNL     1      40.806 -13.382   7.220  1.00  0.00     0.280 HD
HETATM   18  C   UNL     1      40.890 -14.463   5.468  1.00  0.00     0.244 C 
HETATM   19  C   UNL     1      42.315 -14.981   5.645  1.00  0.00     0.046 C 
HETATM   20  C   UNL     1      43.147 -13.714   5.456  1.00  0.00     0.039 C 
HETATM   21  C   UNL     1      42.325 -12.601   6.094  1.00  0.00     0.235 C 
BRANCH  19  22
HETATM   22  C   UNL     1      42.724 -16.117   4.732  1.00  0.00    -0.046 A 
HETATM   23  C   UNL     1      43.594 -17.141   5.174  1.00  0.00    -0.055 A 
HETATM   24  C   UNL     1      44.166 -17.177   6.568  1.00  0.00     0.049 C 
HETATM   25  C   UNL     1      43.944 -18.179   4.294  1.00  0.00     0.007 A 
HETATM   26  C   UNL     1      43.465 -18.206   2.987  1.00  0.00     0.001 A 
HETATM   27  C   UNL     1      42.630 -17.192   2.538  1.00  0.00     0.001 A 
HETATM   28  C   UNL     1      42.267 -16.156   3.399  1.00  0.00     0.008 A 
ENDBRANCH  19  22
ENDBRANCH  15  16
ENDBRANCH   1  15
TORSDOF 7
ENDMDL
