MODEL 1
REMARK VINA RESULT:      -8.4      0.000      0.000
REMARK  11 active torsions:
REMARK  status: ('A' for Active; 'I' for Inactive)
REMARK    1  A    between atoms: C_3  and  C_4 
REMARK    2  A    between atoms: C_4  and  O_5 
REMARK    3  A    between atoms: C_12  and  C_13 
REMARK    4  A    between atoms: C_13  and  C_14 
REMARK    5  A    between atoms: C_15  and  C_16 
REMARK    6  A    between atoms: C_18  and  N_19 
REMARK    7  A    between atoms: N_25  and  C_26 
REMARK    8  A    between atoms: C_26  and  C_27 
REMARK    9  A    between atoms: C_27  and  C_28 
REMARK   10  A    between atoms: C_28  and  N_29 
REMARK   11  A    between atoms: C_38  and  O_39 
ROOT
HETATM    1  C   UNL     1      42.190 -13.976   5.935  1.00  0.00     0.059 A 
HETATM    2  C   UNL     1      42.539 -12.557   5.545  1.00  0.00     0.161 A 
HETATM    3  N   UNL     1      41.231 -11.925   5.575  1.00  0.00    -0.333 N 
HETATM    4  C   UNL     1      40.245 -12.811   5.946  1.00  0.00     0.278 A 
HETATM    5  O   UNL     1      39.046 -12.577   5.913  1.00  0.00    -0.265 OA
HETATM    6  C   UNL     1      40.874 -14.135   6.161  1.00  0.00     0.146 A 
ENDROOT
BRANCH   1   7
HETATM    7  C   UNL     1      43.293 -14.959   5.822  1.00  0.00     0.196 C 
HETATM    8  O   UNL     1      44.191 -14.948   6.657  1.00  0.00    -0.287 OA
BRANCH   7   9
HETATM    9  C   UNL     1      43.329 -15.816   4.643  1.00  0.00     0.045 A 
HETATM   10  C   UNL     1      43.288 -17.259   4.658  1.00  0.00    -0.013 A 
HETATM   11  C   UNL     1      43.218 -18.113   5.882  1.00  0.00     0.052 C 
HETATM   12  C   UNL     1      43.304 -17.697   3.337  1.00  0.00     0.115 A 
HETATM   13  N   UNL     1      43.352 -16.571   2.545  1.00  0.00    -0.354 N 
HETATM   14  H   UNL     1      43.342 -16.609   1.531  1.00  0.00     0.166 HD
HETATM   15  C   UNL     1      43.331 -15.430   3.307  1.00  0.00     0.020 A 
HETATM   16  C   UNL     1      43.274 -14.099   2.641  1.00  0.00     0.069 C 
BRANCH  12  17
HETATM   17  C   UNL     1      43.257 -19.011   2.729  1.00  0.00     0.310 C 
HETATM   18  O   UNL     1      42.390 -19.362   1.940  1.00  0.00    -0.258 OA
BRANCH  17  19
HETATM   19  O   UNL     1      44.291 -19.783   3.152  1.00  0.00    -0.321 OA
HETATM   20  C   UNL     1      43.897 -21.051   3.677  1.00  0.00     0.213 C 
ENDBRANCH  17  19
ENDBRANCH  12  17
ENDBRANCH   7   9
ENDBRANCH   1   7
BRANCH   2  21
HETATM   21  C   UNL     1      43.542 -11.834   6.429  1.00  0.00    -0.028 A 
HETATM   22  C   UNL     1      43.242 -11.428   7.740  1.00  0.00     0.045 A 
HETATM   23  C   UNL     1      44.226 -10.822   8.539  1.00  0.00     0.103 A 
HETATM   24  C   UNL     1      45.499 -10.556   8.028  1.00  0.00     0.036 A 
HETATM   25  C   UNL     1      45.791 -10.915   6.713  1.00  0.00     0.003 A 
HETATM   26  C   UNL     1      44.827 -11.555   5.928  1.00  0.00     0.010 A 
BRANCH  23  27
HETATM   27  N   UNL     1      43.918 -10.490   9.937  1.00  0.00    -0.116 N 
HETATM   28  O   UNL     1      44.719 -10.871  10.802  1.00  0.00    -0.532 OA
HETATM   29  O   UNL     1      42.882  -9.851  10.165  1.00  0.00    -0.532 OA
ENDBRANCH  23  27
ENDBRANCH   2  21
BRANCH   6  30
HETATM   30  O   UNL     1      40.111 -15.245   6.356  1.00  0.00    -0.355 OA
HETATM   31  H   UNL     1      40.659 -16.005   6.616  1.00  0.00     0.218 HD
ENDBRANCH   6  30
BRANCH   3  32
HETATM   32  C   UNL     1      40.935 -10.650   4.942  1.00  0.00     0.129 C 
BRANCH  32  33
HETATM   33  C   UNL     1      41.009 -10.679   3.408  1.00  0.00     0.048 C 
BRANCH  33  34
HETATM   34  C   UNL     1      39.863 -11.364   2.654  1.00  0.00     0.236 C 
BRANCH  34  35
HETATM   35  N   UNL     1      40.226 -12.692   2.051  1.00  0.00    -0.067 N 
HETATM   36  H   UNL     1      41.245 -12.846   2.207  1.00  0.00     0.280 HD
HETATM   37  C   UNL     1      39.457 -13.877   2.606  1.00  0.00     0.261 C 
HETATM   38  C   UNL     1      39.920 -15.168   1.921  1.00  0.00     0.195 C 
HETATM   39  O   UNL     1      39.772 -15.082   0.500  1.00  0.00    -0.388 OA
HETATM   40  C   UNL     1      40.568 -14.019  -0.041  1.00  0.00     0.195 C 
HETATM   41  C   UNL     1      40.117 -12.668   0.523  1.00  0.00     0.261 C 
ENDBRANCH  34  35
ENDBRANCH  33  34
ENDBRANCH  32  33
ENDBRANCH   3  32
TORSDOF 11
ENDMDL
MODEL 2
REMARK VINA RESULT:      -8.4      2.531      6.764
REMARK  11 active torsions:
REMARK  status: ('A' for Active; 'I' for Inactive)
REMARK    1  A    between atoms: C_3  and  C_4 
REMARK    2  A    between atoms: C_4  and  O_5 
REMARK    3  A    between atoms: C_12  and  C_13 
REMARK    4  A    between atoms: C_13  and  C_14 
REMARK    5  A    between atoms: C_15  and  C_16 
REMARK    6  A    between atoms: C_18  and  N_19 
REMARK    7  A    between atoms: N_25  and  C_26 
REMARK    8  A    between atoms: C_26  and  C_27 
REMARK    9  A    between atoms: C_27  and  C_28 
REMARK   10  A    between atoms: C_28  and  N_29 
REMARK   11  A    between atoms: C_38  and  O_39 
ROOT
HETATM    1  C   UNL     1      41.284 -13.901   3.265  1.00  0.00     0.059 A 
HETATM    2  C   UNL     1      42.400 -14.432   4.137  1.00  0.00     0.161 A 
HETATM    3  N   UNL     1      41.780 -14.382   5.451  1.00  0.00    -0.333 N 
HETATM    4  C   UNL     1      40.486 -13.917   5.387  1.00  0.00     0.278 A 
HETATM    5  O   UNL     1      39.791 -13.645   6.355  1.00  0.00    -0.265 OA
HETATM    6  C   UNL     1      40.183 -13.596   3.973  1.00  0.00     0.146 A 
ENDROOT
BRANCH   1   7
HETATM    7  C   UNL     1      41.648 -13.639   1.852  1.00  0.00     0.196 C 
HETATM    8  O   UNL     1      42.673 -13.013   1.605  1.00  0.00    -0.287 OA
BRANCH   7   9
HETATM    9  C   UNL     1      40.697 -14.026   0.817  1.00  0.00     0.045 A 
HETATM   10  C   UNL     1      40.390 -13.255  -0.364  1.00  0.00    -0.013 A 
HETATM   11  C   UNL     1      40.982 -11.928  -0.714  1.00  0.00     0.052 C 
HETATM   12  C   UNL     1      39.470 -13.980  -1.116  1.00  0.00     0.115 A 
HETATM   13  N   UNL     1      39.223 -15.146  -0.426  1.00  0.00    -0.354 N 
HETATM   14  H   UNL     1      38.605 -15.872  -0.773  1.00  0.00     0.166 HD
HETATM   15  C   UNL     1      39.977 -15.211   0.719  1.00  0.00     0.020 A 
HETATM   16  C   UNL     1      39.935 -16.439   1.561  1.00  0.00     0.069 C 
BRANCH  12  17
HETATM   17  C   UNL     1      38.819 -13.737  -2.388  1.00  0.00     0.310 C 
HETATM   18  O   UNL     1      39.367 -13.896  -3.470  1.00  0.00    -0.258 OA
BRANCH  17  19
HETATM   19  O   UNL     1      37.541 -13.315  -2.211  1.00  0.00    -0.321 OA
HETATM   20  C   UNL     1      37.385 -11.896  -2.235  1.00  0.00     0.213 C 
ENDBRANCH  17  19
ENDBRANCH  12  17
ENDBRANCH   7   9
ENDBRANCH   1   7
BRANCH   2  21
HETATM   21  C   UNL     1      42.923 -15.820   3.806  1.00  0.00    -0.028 A 
HETATM   22  C   UNL     1      43.202 -16.779   4.793  1.00  0.00     0.045 A 
HETATM   23  C   UNL     1      43.621 -18.071   4.431  1.00  0.00     0.103 A 
HETATM   24  C   UNL     1      43.826 -18.406   3.090  1.00  0.00     0.036 A 
HETATM   25  C   UNL     1      43.595 -17.446   2.107  1.00  0.00     0.003 A 
HETATM   26  C   UNL     1      43.139 -16.172   2.461  1.00  0.00     0.010 A 
BRANCH  23  27
HETATM   27  N   UNL     1      43.818 -19.086   5.475  1.00  0.00    -0.116 N 
HETATM   28  O   UNL     1      44.412 -20.125   5.153  1.00  0.00    -0.532 OA
HETATM   29  O   UNL     1      43.382 -18.843   6.608  1.00  0.00    -0.532 OA
ENDBRANCH  23  27
ENDBRANCH   2  21
BRANCH   6  30
HETATM   30  O   UNL     1      39.037 -12.942   3.637  1.00  0.00    -0.355 OA
HETATM   31  H   UNL     1      38.334 -13.570   3.393  1.00  0.00     0.218 HD
ENDBRANCH   6  30
BRANCH   3  32
HETATM   32  C   UNL     1      42.524 -14.446   6.698  1.00  0.00     0.129 C 
BRANCH  32  33
HETATM   33  C   UNL     1      43.827 -13.632   6.694  1.00  0.00     0.048 C 
BRANCH  33  34
HETATM   34  C   UNL     1      43.739 -12.147   7.066  1.00  0.00     0.236 C 
BRANCH  34  35
HETATM   35  N   UNL     1      42.746 -11.365   6.254  1.00  0.00    -0.067 N 
HETATM   36  H   UNL     1      41.929 -11.983   6.064  1.00  0.00     0.280 HD
HETATM   37  C   UNL     1      42.255 -10.085   6.904  1.00  0.00     0.261 C 
HETATM   38  C   UNL     1      41.246  -9.384   5.986  1.00  0.00     0.195 C 
HETATM   39  O   UNL     1      41.816  -9.118   4.700  1.00  0.00    -0.388 OA
HETATM   40  C   UNL     1      42.200 -10.332   4.041  1.00  0.00     0.195 C 
HETATM   41  C   UNL     1      43.277 -11.065   4.848  1.00  0.00     0.261 C 
ENDBRANCH  34  35
ENDBRANCH  33  34
ENDBRANCH  32  33
ENDBRANCH   3  32
TORSDOF 11
ENDMDL
MODEL 3
REMARK VINA RESULT:      -8.2      1.960      7.837
REMARK  11 active torsions:
REMARK  status: ('A' for Active; 'I' for Inactive)
REMARK    1  A    between atoms: C_3  and  C_4 
REMARK    2  A    between atoms: C_4  and  O_5 
REMARK    3  A    between atoms: C_12  and  C_13 
REMARK    4  A    between atoms: C_13  and  C_14 
REMARK    5  A    between atoms: C_15  and  C_16 
REMARK    6  A    between atoms: C_18  and  N_19 
REMARK    7  A    between atoms: N_25  and  C_26 
REMARK    8  A    between atoms: C_26  and  C_27 
REMARK    9  A    between atoms: C_27  and  C_28 
REMARK   10  A    between atoms: C_28  and  N_29 
REMARK   11  A    between atoms: C_38  and  O_39 
ROOT
HETATM    1  C   UNL     1      42.461 -13.303   4.868  1.00  0.00     0.059 A 
HETATM    2  C   UNL     1      41.909 -13.943   3.614  1.00  0.00     0.161 A 
HETATM    3  N   UNL     1      41.441 -15.218   4.130  1.00  0.00    -0.333 N 
HETATM    4  C   UNL     1      41.652 -15.328   5.486  1.00  0.00     0.278 A 
HETATM    5  O   UNL     1      41.482 -16.346   6.141  1.00  0.00    -0.265 OA
HETATM    6  C   UNL     1      42.324 -14.091   5.948  1.00  0.00     0.146 A 
ENDROOT
BRANCH   1   7
HETATM    7  C   UNL     1      43.203 -12.036   4.665  1.00  0.00     0.196 C 
HETATM    8  O   UNL     1      43.801 -11.857   3.609  1.00  0.00    -0.287 OA
BRANCH   7   9
HETATM    9  C   UNL     1      43.296 -11.108   5.786  1.00  0.00     0.045 A 
HETATM   10  C   UNL     1      44.492 -10.840   6.549  1.00  0.00    -0.013 A 
HETATM   11  C   UNL     1      45.825 -11.479   6.328  1.00  0.00     0.052 C 
HETATM   12  C   UNL     1      44.179  -9.873   7.500  1.00  0.00     0.115 A 
HETATM   13  N   UNL     1      42.848  -9.561   7.328  1.00  0.00    -0.354 N 
HETATM   14  H   UNL     1      42.372  -8.855   7.879  1.00  0.00     0.166 HD
HETATM   15  C   UNL     1      42.309 -10.265   6.280  1.00  0.00     0.020 A 
HETATM   16  C   UNL     1      40.904 -10.000   5.861  1.00  0.00     0.069 C 
BRANCH  12  17
HETATM   17  C   UNL     1      44.957  -9.197   8.519  1.00  0.00     0.310 C 
HETATM   18  O   UNL     1      45.421  -8.073   8.382  1.00  0.00    -0.258 OA
BRANCH  17  19
HETATM   19  O   UNL     1      45.097  -9.974   9.624  1.00  0.00    -0.321 OA
HETATM   20  C   UNL     1      44.323  -9.543  10.743  1.00  0.00     0.213 C 
ENDBRANCH  17  19
ENDBRANCH  12  17
ENDBRANCH   7   9
ENDBRANCH   1   7
BRANCH   2  21
HETATM   21  C   UNL     1      40.812 -13.185   2.886  1.00  0.00    -0.028 A 
HETATM   22  C   UNL     1      40.738 -13.119   1.486  1.00  0.00     0.045 A 
HETATM   23  C   UNL     1      39.665 -12.461   0.860  1.00  0.00     0.103 A 
HETATM   24  C   UNL     1      38.686 -11.811   1.617  1.00  0.00     0.036 A 
HETATM   25  C   UNL     1      38.776 -11.834   3.007  1.00  0.00     0.003 A 
HETATM   26  C   UNL     1      39.821 -12.522   3.634  1.00  0.00     0.010 A 
BRANCH  23  27
HETATM   27  N   UNL     1      39.558 -12.482  -0.605  1.00  0.00    -0.116 N 
HETATM   28  O   UNL     1      39.003 -13.463  -1.121  1.00  0.00    -0.532 OA
HETATM   29  O   UNL     1      40.026 -11.523  -1.232  1.00  0.00    -0.532 OA
ENDBRANCH  23  27
ENDBRANCH   2  21
BRANCH   6  30
HETATM   30  O   UNL     1      42.822 -13.999   7.212  1.00  0.00    -0.355 OA
HETATM   31  H   UNL     1      43.089 -13.087   7.418  1.00  0.00     0.218 HD
ENDBRANCH   6  30
BRANCH   3  32
HETATM   32  C   UNL     1      41.142 -16.369   3.293  1.00  0.00     0.129 C 
BRANCH  32  33
HETATM   33  C   UNL     1      42.122 -16.568   2.128  1.00  0.00     0.048 C 
BRANCH  33  34
HETATM   34  C   UNL     1      43.482 -17.201   2.442  1.00  0.00     0.236 C 
BRANCH  34  35
HETATM   35  N   UNL     1      43.407 -18.439   3.291  1.00  0.00    -0.067 N 
HETATM   36  H   UNL     1      42.412 -18.574   3.571  1.00  0.00     0.280 HD
HETATM   37  C   UNL     1      43.907 -19.705   2.621  1.00  0.00     0.261 C 
HETATM   38  C   UNL     1      43.772 -20.894   3.580  1.00  0.00     0.195 C 
HETATM   39  O   UNL     1      44.472 -20.652   4.805  1.00  0.00    -0.388 OA
HETATM   40  C   UNL     1      43.944 -19.508   5.488  1.00  0.00     0.195 C 
HETATM   41  C   UNL     1      44.114 -18.246   4.636  1.00  0.00     0.261 C 
ENDBRANCH  34  35
ENDBRANCH  33  34
ENDBRANCH  32  33
ENDBRANCH   3  32
TORSDOF 11
ENDMDL
MODEL 4
REMARK VINA RESULT:      -8.0      2.412      4.999
REMARK  11 active torsions:
REMARK  status: ('A' for Active; 'I' for Inactive)
REMARK    1  A    between atoms: C_3  and  C_4 
REMARK    2  A    between atoms: C_4  and  O_5 
REMARK    3  A    between atoms: C_12  and  C_13 
REMARK    4  A    between atoms: C_13  and  C_14 
REMARK    5  A    between atoms: C_15  and  C_16 
REMARK    6  A    between atoms: C_18  and  N_19 
REMARK    7  A    between atoms: N_25  and  C_26 
REMARK    8  A    between atoms: C_26  and  C_27 
REMARK    9  A    between atoms: C_27  and  C_28 
REMARK   10  A    between atoms: C_28  and  N_29 
REMARK   11  A    between atoms: C_38  and  O_39 
ROOT
HETATM    1  C   UNL     1      41.822 -13.086   4.994  1.00  0.00     0.059 A 
HETATM    2  C   UNL     1      42.144 -11.633   5.261  1.00  0.00     0.161 A 
HETATM    3  N   UNL     1      40.910 -11.179   5.880  1.00  0.00    -0.333 N 
HETATM    4  C   UNL     1      39.992 -12.198   5.994  1.00  0.00     0.278 A 
HETATM    5  O   UNL     1      38.830 -12.058   6.346  1.00  0.00    -0.265 OA
HETATM    6  C   UNL     1      40.587 -13.421   5.405  1.00  0.00     0.146 A 
ENDROOT
BRANCH   1   7
HETATM    7  C   UNL     1      42.821 -13.822   4.183  1.00  0.00     0.196 C 
HETATM    8  O   UNL     1      43.217 -13.329   3.132  1.00  0.00    -0.287 OA
BRANCH   7   9
HETATM    9  C   UNL     1      43.191 -15.167   4.607  1.00  0.00     0.045 A 
HETATM   10  C   UNL     1      43.328 -16.309   3.734  1.00  0.00    -0.013 A 
HETATM   11  C   UNL     1      43.097 -16.307   2.258  1.00  0.00     0.052 C 
HETATM   12  C   UNL     1      43.731 -17.390   4.513  1.00  0.00     0.115 A 
HETATM   13  N   UNL     1      43.838 -16.932   5.807  1.00  0.00    -0.354 N 
HETATM   14  H   UNL     1      44.147 -17.518   6.576  1.00  0.00     0.166 HD
HETATM   15  C   UNL     1      43.553 -15.591   5.880  1.00  0.00     0.020 A 
HETATM   16  C   UNL     1      43.708 -14.875   7.177  1.00  0.00     0.069 C 
BRANCH  12  17
HETATM   17  C   UNL     1      44.047 -18.770   4.203  1.00  0.00     0.310 C 
HETATM   18  O   UNL     1      44.220 -19.187   3.065  1.00  0.00    -0.258 OA
BRANCH  17  19
HETATM   19  O   UNL     1      44.120 -19.521   5.332  1.00  0.00    -0.321 OA
HETATM   20  C   UNL     1      44.028 -20.927   5.106  1.00  0.00     0.213 C 
ENDBRANCH  17  19
ENDBRANCH  12  17
ENDBRANCH   7   9
ENDBRANCH   1   7
BRANCH   2  21
HETATM   21  C   UNL     1      43.356 -11.350   6.133  1.00  0.00    -0.028 A 
HETATM   22  C   UNL     1      43.249 -11.003   7.489  1.00  0.00     0.045 A 
HETATM   23  C   UNL     1      44.403 -10.816   8.269  1.00  0.00     0.103 A 
HETATM   24  C   UNL     1      45.675 -10.913   7.698  1.00  0.00     0.036 A 
HETATM   25  C   UNL     1      45.789 -11.213   6.342  1.00  0.00     0.003 A 
HETATM   26  C   UNL     1      44.644 -11.439   5.572  1.00  0.00     0.010 A 
BRANCH  23  27
HETATM   27  N   UNL     1      44.268 -10.544   9.707  1.00  0.00    -0.116 N 
HETATM   28  O   UNL     1      43.183 -10.093  10.101  1.00  0.00    -0.532 OA
HETATM   29  O   UNL     1      45.242 -10.782  10.434  1.00  0.00    -0.532 OA
ENDBRANCH  23  27
ENDBRANCH   2  21
BRANCH   6  30
HETATM   30  O   UNL     1      39.835 -14.539   5.213  1.00  0.00    -0.355 OA
HETATM   31  H   UNL     1      38.945 -14.432   5.591  1.00  0.00     0.218 HD
ENDBRANCH   6  30
BRANCH   3  32
HETATM   32  C   UNL     1      40.540  -9.780   6.015  1.00  0.00     0.129 C 
BRANCH  32  33
HETATM   33  C   UNL     1      39.945  -9.417   7.383  1.00  0.00     0.048 C 
BRANCH  33  34
HETATM   34  C   UNL     1      40.672  -8.354   8.217  1.00  0.00     0.236 C 
BRANCH  34  35
HETATM   35  N   UNL     1      40.744  -8.664   9.685  1.00  0.00    -0.067 N 
HETATM   36  H   UNL     1      41.592  -9.248   9.848  1.00  0.00     0.280 HD
HETATM   37  C   UNL     1      40.801  -7.449  10.592  1.00  0.00     0.261 C 
HETATM   38  C   UNL     1      40.880  -7.892  12.058  1.00  0.00     0.195 C 
HETATM   39  O   UNL     1      39.777  -8.737  12.402  1.00  0.00    -0.388 OA
HETATM   40  C   UNL     1      39.770  -9.931  11.609  1.00  0.00     0.195 C 
HETATM   41  C   UNL     1      39.606  -9.590  10.125  1.00  0.00     0.261 C 
ENDBRANCH  34  35
ENDBRANCH  33  34
ENDBRANCH  32  33
ENDBRANCH   3  32
TORSDOF 11
ENDMDL
MODEL 5
REMARK VINA RESULT:      -8.0      2.452      6.824
REMARK  11 active torsions:
REMARK  status: ('A' for Active; 'I' for Inactive)
REMARK    1  A    between atoms: C_3  and  C_4 
REMARK    2  A    between atoms: C_4  and  O_5 
REMARK    3  A    between atoms: C_12  and  C_13 
REMARK    4  A    between atoms: C_13  and  C_14 
REMARK    5  A    between atoms: C_15  and  C_16 
REMARK    6  A    between atoms: C_18  and  N_19 
REMARK    7  A    between atoms: N_25  and  C_26 
REMARK    8  A    between atoms: C_26  and  C_27 
REMARK    9  A    between atoms: C_27  and  C_28 
REMARK   10  A    between atoms: C_28  and  N_29 
REMARK   11  A    between atoms: C_38  and  O_39 
ROOT
HETATM    1  C   UNL     1      40.493 -12.053   3.267  1.00  0.00     0.059 A 
HETATM    2  C   UNL     1      41.067 -12.145   4.664  1.00  0.00     0.161 A 
HETATM    3  N   UNL     1      40.103 -11.360   5.417  1.00  0.00    -0.333 N 
HETATM    4  C   UNL     1      39.091 -10.886   4.613  1.00  0.00     0.278 A 
HETATM    5  O   UNL     1      38.234 -10.088   4.963  1.00  0.00    -0.265 OA
HETATM    6  C   UNL     1      39.362 -11.328   3.225  1.00  0.00     0.146 A 
ENDROOT
BRANCH   1   7
HETATM    7  C   UNL     1      41.348 -12.603   2.189  1.00  0.00     0.196 C 
HETATM    8  O   UNL     1      42.540 -12.315   2.166  1.00  0.00    -0.287 OA
BRANCH   7   9
HETATM    9  C   UNL     1      40.704 -13.360   1.122  1.00  0.00     0.045 A 
HETATM   10  C   UNL     1      40.545 -12.911  -0.241  1.00  0.00    -0.013 A 
HETATM   11  C   UNL     1      40.998 -11.593  -0.780  1.00  0.00     0.052 C 
HETATM   12  C   UNL     1      39.920 -13.932  -0.952  1.00  0.00     0.115 A 
HETATM   13  N   UNL     1      39.705 -14.962  -0.064  1.00  0.00    -0.354 N 
HETATM   14  H   UNL     1      39.287 -15.846  -0.335  1.00  0.00     0.166 HD
HETATM   15  C   UNL     1      40.201 -14.655   1.178  1.00  0.00     0.020 A 
HETATM   16  C   UNL     1      40.162 -15.676   2.261  1.00  0.00     0.069 C 
BRANCH  12  17
HETATM   17  C   UNL     1      39.525 -14.074  -2.339  1.00  0.00     0.310 C 
HETATM   18  O   UNL     1      40.304 -13.983  -3.278  1.00  0.00    -0.258 OA
BRANCH  17  19
HETATM   19  O   UNL     1      38.192 -14.316  -2.445  1.00  0.00    -0.321 OA
HETATM   20  C   UNL     1      37.385 -13.138  -2.472  1.00  0.00     0.213 C 
ENDBRANCH  17  19
ENDBRANCH  12  17
ENDBRANCH   7   9
ENDBRANCH   1   7
BRANCH   2  21
HETATM   21  C   UNL     1      41.241 -13.539   5.240  1.00  0.00    -0.028 A 
HETATM   22  C   UNL     1      42.432 -14.271   5.106  1.00  0.00     0.045 A 
HETATM   23  C   UNL     1      42.566 -15.531   5.716  1.00  0.00     0.103 A 
HETATM   24  C   UNL     1      41.499 -16.104   6.413  1.00  0.00     0.036 A 
HETATM   25  C   UNL     1      40.299 -15.404   6.513  1.00  0.00     0.003 A 
HETATM   26  C   UNL     1      40.176 -14.133   5.942  1.00  0.00     0.010 A 
BRANCH  23  27
HETATM   27  N   UNL     1      43.852 -16.238   5.640  1.00  0.00    -0.116 N 
HETATM   28  O   UNL     1      44.033 -16.986   4.669  1.00  0.00    -0.532 OA
HETATM   29  O   UNL     1      44.673 -16.042   6.546  1.00  0.00    -0.532 OA
ENDBRANCH  23  27
ENDBRANCH   2  21
BRANCH   6  30
HETATM   30  O   UNL     1      38.626 -10.849   2.185  1.00  0.00    -0.355 OA
HETATM   31  H   UNL     1      37.900 -11.457   1.960  1.00  0.00     0.218 HD
ENDBRANCH   6  30
BRANCH   3  32
HETATM   32  C   UNL     1      40.357 -10.827   6.745  1.00  0.00     0.129 C 
BRANCH  32  33
HETATM   33  C   UNL     1      41.480  -9.781   6.797  1.00  0.00     0.048 C 
BRANCH  33  34
HETATM   34  C   UNL     1      41.844  -9.195   8.167  1.00  0.00     0.236 C 
BRANCH  34  35
HETATM   35  N   UNL     1      43.273  -9.416   8.574  1.00  0.00    -0.067 N 
HETATM   36  H   UNL     1      43.800  -8.538   8.380  1.00  0.00     0.280 HD
HETATM   37  C   UNL     1      43.471  -9.799  10.029  1.00  0.00     0.261 C 
HETATM   38  C   UNL     1      44.964  -9.989  10.322  1.00  0.00     0.195 C 
HETATM   39  O   UNL     1      45.542 -10.968   9.452  1.00  0.00    -0.388 OA
HETATM   40  C   UNL     1      45.438 -10.568   8.079  1.00  0.00     0.195 C 
HETATM   41  C   UNL     1      43.968 -10.436   7.667  1.00  0.00     0.261 C 
ENDBRANCH  34  35
ENDBRANCH  33  34
ENDBRANCH  32  33
ENDBRANCH   3  32
TORSDOF 11
ENDMDL
MODEL 6
REMARK VINA RESULT:      -8.0      1.621      2.230
REMARK  11 active torsions:
REMARK  status: ('A' for Active; 'I' for Inactive)
REMARK    1  A    between atoms: C_3  and  C_4 
REMARK    2  A    between atoms: C_4  and  O_5 
REMARK    3  A    between atoms: C_12  and  C_13 
REMARK    4  A    between atoms: C_13  and  C_14 
REMARK    5  A    between atoms: C_15  and  C_16 
REMARK    6  A    between atoms: C_18  and  N_19 
REMARK    7  A    between atoms: N_25  and  C_26 
REMARK    8  A    between atoms: C_26  and  C_27 
REMARK    9  A    between atoms: C_27  and  C_28 
REMARK   10  A    between atoms: C_28  and  N_29 
REMARK   11  A    between atoms: C_38  and  O_39 
ROOT
HETATM    1  C   UNL     1      41.792 -13.095   5.029  1.00  0.00     0.059 A 
HETATM    2  C   UNL     1      42.097 -11.633   5.268  1.00  0.00     0.161 A 
HETATM    3  N   UNL     1      40.859 -11.184   5.884  1.00  0.00    -0.333 N 
HETATM    4  C   UNL     1      39.954 -12.212   6.020  1.00  0.00     0.278 A 
HETATM    5  O   UNL     1      38.792 -12.080   6.374  1.00  0.00    -0.265 OA
HETATM    6  C   UNL     1      40.563 -13.437   5.451  1.00  0.00     0.146 A 
ENDROOT
BRANCH   1   7
HETATM    7  C   UNL     1      42.797 -13.834   4.228  1.00  0.00     0.196 C 
HETATM    8  O   UNL     1      43.199 -13.345   3.177  1.00  0.00    -0.287 OA
BRANCH   7   9
HETATM    9  C   UNL     1      43.167 -15.176   4.660  1.00  0.00     0.045 A 
HETATM   10  C   UNL     1      43.308 -16.322   3.794  1.00  0.00    -0.013 A 
HETATM   11  C   UNL     1      43.083 -16.328   2.316  1.00  0.00     0.052 C 
HETATM   12  C   UNL     1      43.709 -17.399   4.580  1.00  0.00     0.115 A 
HETATM   13  N   UNL     1      43.810 -16.934   5.872  1.00  0.00    -0.354 N 
HETATM   14  H   UNL     1      44.117 -17.515   6.645  1.00  0.00     0.166 HD
HETATM   15  C   UNL     1      43.525 -15.593   5.937  1.00  0.00     0.020 A 
HETATM   16  C   UNL     1      43.674 -14.869   7.230  1.00  0.00     0.069 C 
BRANCH  12  17
HETATM   17  C   UNL     1      44.027 -18.780   4.278  1.00  0.00     0.310 C 
HETATM   18  O   UNL     1      44.324 -19.178   3.160  1.00  0.00    -0.258 OA
BRANCH  17  19
HETATM   19  O   UNL     1      43.949 -19.554   5.391  1.00  0.00    -0.321 OA
HETATM   20  C   UNL     1      44.055 -20.955   5.137  1.00  0.00     0.213 C 
ENDBRANCH  17  19
ENDBRANCH  12  17
ENDBRANCH   7   9
ENDBRANCH   1   7
BRANCH   2  21
HETATM   21  C   UNL     1      43.308 -11.319   6.130  1.00  0.00    -0.028 A 
HETATM   22  C   UNL     1      43.199 -10.882   7.460  1.00  0.00     0.045 A 
HETATM   23  C   UNL     1      44.352 -10.669   8.236  1.00  0.00     0.103 A 
HETATM   24  C   UNL     1      45.625 -10.830   7.683  1.00  0.00     0.036 A 
HETATM   25  C   UNL     1      45.743 -11.221   6.351  1.00  0.00     0.003 A 
HETATM   26  C   UNL     1      44.598 -11.473   5.588  1.00  0.00     0.010 A 
BRANCH  23  27
HETATM   27  N   UNL     1      44.212 -10.300   9.651  1.00  0.00    -0.116 N 
HETATM   28  O   UNL     1      44.331  -9.101   9.941  1.00  0.00    -0.532 OA
HETATM   29  O   UNL     1      43.985 -11.205  10.465  1.00  0.00    -0.532 OA
ENDBRANCH  23  27
ENDBRANCH   2  21
BRANCH   6  30
HETATM   30  O   UNL     1      39.824 -14.568   5.282  1.00  0.00    -0.355 OA
HETATM   31  H   UNL     1      39.918 -15.166   6.043  1.00  0.00     0.218 HD
ENDBRANCH   6  30
BRANCH   3  32
HETATM   32  C   UNL     1      40.473  -9.787   5.995  1.00  0.00     0.129 C 
BRANCH  32  33
HETATM   33  C   UNL     1      40.345  -9.062   4.647  1.00  0.00     0.048 C 
BRANCH  33  34
HETATM   34  C   UNL     1      39.170  -9.448   3.741  1.00  0.00     0.236 C 
BRANCH  34  35
HETATM   35  N   UNL     1      39.567 -10.200   2.502  1.00  0.00    -0.067 N 
HETATM   36  H   UNL     1      39.031  -9.802   1.701  1.00  0.00     0.280 HD
HETATM   37  C   UNL     1      41.048 -10.158   2.175  1.00  0.00     0.261 C 
HETATM   38  C   UNL     1      41.324 -10.951   0.892  1.00  0.00     0.195 C 
HETATM   39  O   UNL     1      40.864 -12.302   1.010  1.00  0.00    -0.388 OA
HETATM   40  C   UNL     1      39.449 -12.351   1.230  1.00  0.00     0.195 C 
HETATM   41  C   UNL     1      39.083 -11.653   2.544  1.00  0.00     0.261 C 
ENDBRANCH  34  35
ENDBRANCH  33  34
ENDBRANCH  32  33
ENDBRANCH   3  32
TORSDOF 11
ENDMDL
MODEL 7
REMARK VINA RESULT:      -7.9      2.249      7.262
REMARK  11 active torsions:
REMARK  status: ('A' for Active; 'I' for Inactive)
REMARK    1  A    between atoms: C_3  and  C_4 
REMARK    2  A    between atoms: C_4  and  O_5 
REMARK    3  A    between atoms: C_12  and  C_13 
REMARK    4  A    between atoms: C_13  and  C_14 
REMARK    5  A    between atoms: C_15  and  C_16 
REMARK    6  A    between atoms: C_18  and  N_19 
REMARK    7  A    between atoms: N_25  and  C_26 
REMARK    8  A    between atoms: C_26  and  C_27 
REMARK    9  A    between atoms: C_27  and  C_28 
REMARK   10  A    between atoms: C_28  and  N_29 
REMARK   11  A    between atoms: C_38  and  O_39 
ROOT
HETATM    1  C   UNL     1      40.409 -12.007   3.227  1.00  0.00     0.059 A 
HETATM    2  C   UNL     1      41.764 -12.655   3.411  1.00  0.00     0.161 A 
HETATM    3  N   UNL     1      42.470 -11.629   4.159  1.00  0.00    -0.333 N 
HETATM    4  C   UNL     1      41.668 -10.538   4.411  1.00  0.00     0.278 A 
HETATM    5  O   UNL     1      42.051  -9.483   4.894  1.00  0.00    -0.265 OA
HETATM    6  C   UNL     1      40.345 -10.789   3.792  1.00  0.00     0.146 A 
ENDROOT
BRANCH   1   7
HETATM    7  C   UNL     1      39.476 -12.722   2.325  1.00  0.00     0.196 C 
HETATM    8  O   UNL     1      38.683 -13.528   2.802  1.00  0.00    -0.287 OA
BRANCH   7   9
HETATM    9  C   UNL     1      39.632 -12.533   0.888  1.00  0.00     0.045 A 
HETATM   10  C   UNL     1      40.111 -13.531  -0.038  1.00  0.00    -0.013 A 
HETATM   11  C   UNL     1      40.543 -14.916   0.324  1.00  0.00     0.052 C 
HETATM   12  C   UNL     1      40.076 -12.977  -1.314  1.00  0.00     0.115 A 
HETATM   13  N   UNL     1      39.594 -11.694  -1.177  1.00  0.00    -0.354 N 
HETATM   14  H   UNL     1      39.440 -11.075  -1.967  1.00  0.00     0.166 HD
HETATM   15  C   UNL     1      39.287 -11.419   0.132  1.00  0.00     0.020 A 
HETATM   16  C   UNL     1      38.656 -10.116   0.483  1.00  0.00     0.069 C 
BRANCH  12  17
HETATM   17  C   UNL     1      40.407 -13.492  -2.627  1.00  0.00     0.310 C 
HETATM   18  O   UNL     1      41.258 -12.998  -3.354  1.00  0.00    -0.258 OA
BRANCH  17  19
HETATM   19  O   UNL     1      39.651 -14.579  -2.931  1.00  0.00    -0.321 OA
HETATM   20  C   UNL     1      38.302 -14.274  -3.281  1.00  0.00     0.213 C 
ENDBRANCH  17  19
ENDBRANCH  12  17
ENDBRANCH   7   9
ENDBRANCH   1   7
BRANCH   2  21
HETATM   21  C   UNL     1      41.787 -13.997   4.125  1.00  0.00    -0.028 A 
HETATM   22  C   UNL     1      42.487 -15.108   3.626  1.00  0.00     0.045 A 
HETATM   23  C   UNL     1      42.532 -16.307   4.358  1.00  0.00     0.103 A 
HETATM   24  C   UNL     1      41.834 -16.436   5.562  1.00  0.00     0.036 A 
HETATM   25  C   UNL     1      41.101 -15.353   6.042  1.00  0.00     0.003 A 
HETATM   26  C   UNL     1      41.087 -14.145   5.336  1.00  0.00     0.010 A 
BRANCH  23  27
HETATM   27  N   UNL     1      43.345 -17.426   3.862  1.00  0.00    -0.116 N 
HETATM   28  O   UNL     1      44.325 -17.762   4.542  1.00  0.00    -0.532 OA
HETATM   29  O   UNL     1      43.002 -17.964   2.801  1.00  0.00    -0.532 OA
ENDBRANCH  23  27
ENDBRANCH   2  21
BRANCH   6  30
HETATM   30  O   UNL     1      39.410  -9.801   3.722  1.00  0.00    -0.355 OA
HETATM   31  H   UNL     1      39.104  -9.672   2.808  1.00  0.00     0.218 HD
ENDBRANCH   6  30
BRANCH   3  32
HETATM   32  C   UNL     1      43.916 -11.579   4.296  1.00  0.00     0.129 C 
BRANCH  32  33
HETATM   33  C   UNL     1      44.444 -12.195   5.600  1.00  0.00     0.048 C 
BRANCH  33  34
HETATM   34  C   UNL     1      43.712 -11.842   6.901  1.00  0.00     0.236 C 
BRANCH  34  35
HETATM   35  N   UNL     1      44.401 -10.798   7.734  1.00  0.00    -0.067 N 
HETATM   36  H   UNL     1      44.460 -11.156   8.710  1.00  0.00     0.280 HD
HETATM   37  C   UNL     1      45.792 -10.420   7.262  1.00  0.00     0.261 C 
HETATM   38  C   UNL     1      46.391  -9.358   8.193  1.00  0.00     0.195 C 
HETATM   39  O   UNL     1      45.546  -8.205   8.272  1.00  0.00    -0.388 OA
HETATM   40  C   UNL     1      44.257  -8.540   8.802  1.00  0.00     0.195 C 
HETATM   41  C   UNL     1      43.542  -9.539   7.886  1.00  0.00     0.261 C 
ENDBRANCH  34  35
ENDBRANCH  33  34
ENDBRANCH  32  33
ENDBRANCH   3  32
TORSDOF 11
ENDMDL
MODEL 8
REMARK VINA RESULT:      -7.9      2.405      7.000
REMARK  11 active torsions:
REMARK  status: ('A' for Active; 'I' for Inactive)
REMARK    1  A    between atoms: C_3  and  C_4 
REMARK    2  A    between atoms: C_4  and  O_5 
REMARK    3  A    between atoms: C_12  and  C_13 
REMARK    4  A    between atoms: C_13  and  C_14 
REMARK    5  A    between atoms: C_15  and  C_16 
REMARK    6  A    between atoms: C_18  and  N_19 
REMARK    7  A    between atoms: N_25  and  C_26 
REMARK    8  A    between atoms: C_26  and  C_27 
REMARK    9  A    between atoms: C_27  and  C_28 
REMARK   10  A    between atoms: C_28  and  N_29 
REMARK   11  A    between atoms: C_38  and  O_39 
ROOT
HETATM    1  C   UNL     1      41.483 -11.795   4.622  1.00  0.00     0.059 A 
HETATM    2  C   UNL     1      40.638 -12.987   4.232  1.00  0.00     0.161 A 
HETATM    3  N   UNL     1      40.703 -12.919   2.782  1.00  0.00    -0.333 N 
HETATM    4  C   UNL     1      41.482 -11.867   2.356  1.00  0.00     0.278 A 
HETATM    5  O   UNL     1      41.589 -11.499   1.195  1.00  0.00    -0.265 OA
HETATM    6  C   UNL     1      41.968 -11.141   3.553  1.00  0.00     0.146 A 
ENDROOT
BRANCH   1   7
HETATM    7  C   UNL     1      41.478 -11.453   6.064  1.00  0.00     0.196 C 
HETATM    8  O   UNL     1      40.405 -11.303   6.639  1.00  0.00    -0.287 OA
BRANCH   7   9
HETATM    9  C   UNL     1      42.758 -11.181   6.708  1.00  0.00     0.045 A 
HETATM   10  C   UNL     1      43.142  -9.923   7.302  1.00  0.00    -0.013 A 
HETATM   11  C   UNL     1      42.301  -8.688   7.341  1.00  0.00     0.052 C 
HETATM   12  C   UNL     1      44.415 -10.081   7.843  1.00  0.00     0.115 A 
HETATM   13  N   UNL     1      44.795 -11.381   7.592  1.00  0.00    -0.354 N 
HETATM   14  H   UNL     1      45.677 -11.768   7.910  1.00  0.00     0.166 HD
HETATM   15  C   UNL     1      43.800 -12.070   6.944  1.00  0.00     0.020 A 
HETATM   16  C   UNL     1      43.970 -13.523   6.668  1.00  0.00     0.069 C 
BRANCH  12  17
HETATM   17  C   UNL     1      45.297  -9.194   8.573  1.00  0.00     0.310 C 
HETATM   18  O   UNL     1      45.790  -8.183   8.092  1.00  0.00    -0.258 OA
BRANCH  17  19
HETATM   19  O   UNL     1      45.497  -9.637   9.841  1.00  0.00    -0.321 OA
HETATM   20  C   UNL     1      44.419  -9.359  10.734  1.00  0.00     0.213 C 
ENDBRANCH  17  19
ENDBRANCH  12  17
ENDBRANCH   7   9
ENDBRANCH   1   7
BRANCH   2  21
HETATM   21  C   UNL     1      41.083 -14.342   4.758  1.00  0.00    -0.028 A 
HETATM   22  C   UNL     1      42.009 -15.151   4.080  1.00  0.00     0.045 A 
HETATM   23  C   UNL     1      42.439 -16.365   4.643  1.00  0.00     0.103 A 
HETATM   24  C   UNL     1      41.909 -16.819   5.854  1.00  0.00     0.036 A 
HETATM   25  C   UNL     1      40.957 -16.043   6.511  1.00  0.00     0.003 A 
HETATM   26  C   UNL     1      40.557 -14.815   5.975  1.00  0.00     0.010 A 
BRANCH  23  27
HETATM   27  N   UNL     1      43.476 -17.151   3.960  1.00  0.00    -0.116 N 
HETATM   28  O   UNL     1      44.218 -17.849   4.667  1.00  0.00    -0.532 OA
HETATM   29  O   UNL     1      43.545 -17.070   2.727  1.00  0.00    -0.532 OA
ENDBRANCH  23  27
ENDBRANCH   2  21
BRANCH   6  30
HETATM   30  O   UNL     1      42.610  -9.946   3.430  1.00  0.00    -0.355 OA
HETATM   31  H   UNL     1      42.260  -9.294   4.062  1.00  0.00     0.218 HD
ENDBRANCH   6  30
BRANCH   3  32
HETATM   32  C   UNL     1      39.782 -13.613   1.897  1.00  0.00     0.129 C 
BRANCH  32  33
HETATM   33  C   UNL     1      40.469 -14.473   0.826  1.00  0.00     0.048 C 
BRANCH  33  34
HETATM   34  C   UNL     1      39.982 -14.330  -0.621  1.00  0.00     0.236 C 
BRANCH  34  35
HETATM   35  N   UNL     1      39.834 -12.909  -1.086  1.00  0.00    -0.067 N 
HETATM   36  H   UNL     1      39.978 -12.287  -0.263  1.00  0.00     0.280 HD
HETATM   37  C   UNL     1      40.789 -12.496  -2.190  1.00  0.00     0.261 C 
HETATM   38  C   UNL     1      40.546 -11.030  -2.571  1.00  0.00     0.195 C 
HETATM   39  O   UNL     1      39.186 -10.816  -2.963  1.00  0.00    -0.388 OA
HETATM   40  C   UNL     1      38.283 -11.120  -1.893  1.00  0.00     0.195 C 
HETATM   41  C   UNL     1      38.392 -12.597  -1.499  1.00  0.00     0.261 C 
ENDBRANCH  34  35
ENDBRANCH  33  34
ENDBRANCH  32  33
ENDBRANCH   3  32
TORSDOF 11
ENDMDL
MODEL 9
REMARK VINA RESULT:      -7.8      2.574      7.409
REMARK  11 active torsions:
REMARK  status: ('A' for Active; 'I' for Inactive)
REMARK    1  A    between atoms: C_3  and  C_4 
REMARK    2  A    between atoms: C_4  and  O_5 
REMARK    3  A    between atoms: C_12  and  C_13 
REMARK    4  A    between atoms: C_13  and  C_14 
REMARK    5  A    between atoms: C_15  and  C_16 
REMARK    6  A    between atoms: C_18  and  N_19 
REMARK    7  A    between atoms: N_25  and  C_26 
REMARK    8  A    between atoms: C_26  and  C_27 
REMARK    9  A    between atoms: C_27  and  C_28 
REMARK   10  A    between atoms: C_28  and  N_29 
REMARK   11  A    between atoms: C_38  and  O_39 
ROOT
HETATM    1  C   UNL     1      40.892 -11.975   3.913  1.00  0.00     0.059 A 
HETATM    2  C   UNL     1      42.340 -12.409   3.855  1.00  0.00     0.161 A 
HETATM    3  N   UNL     1      42.913 -11.629   4.939  1.00  0.00    -0.333 N 
HETATM    4  C   UNL     1      41.963 -10.860   5.573  1.00  0.00     0.278 A 
HETATM    5  O   UNL     1      42.199 -10.011   6.419  1.00  0.00    -0.265 OA
HETATM    6  C   UNL     1      40.666 -11.081   4.891  1.00  0.00     0.146 A 
ENDROOT
BRANCH   1   7
HETATM    7  C   UNL     1      40.038 -12.451   2.800  1.00  0.00     0.196 C 
HETATM    8  O   UNL     1      39.066 -13.155   3.052  1.00  0.00    -0.287 OA
BRANCH   7   9
HETATM    9  C   UNL     1      40.468 -12.167   1.436  1.00  0.00     0.045 A 
HETATM   10  C   UNL     1      40.765 -10.856   0.911  1.00  0.00    -0.013 A 
HETATM   11  C   UNL     1      40.666  -9.572   1.670  1.00  0.00     0.052 C 
HETATM   12  C   UNL     1      41.177 -11.013  -0.410  1.00  0.00     0.115 A 
HETATM   13  N   UNL     1      41.134 -12.362  -0.683  1.00  0.00    -0.354 N 
HETATM   14  H   UNL     1      41.417 -12.753  -1.576  1.00  0.00     0.166 HD
HETATM   15  C   UNL     1      40.746 -13.077   0.423  1.00  0.00     0.020 A 
HETATM   16  C   UNL     1      40.733 -14.565   0.370  1.00  0.00     0.069 C 
BRANCH  12  17
HETATM   17  C   UNL     1      41.620 -10.080  -1.426  1.00  0.00     0.310 C 
HETATM   18  O   UNL     1      41.066  -9.944  -2.509  1.00  0.00    -0.258 OA
BRANCH  17  19
HETATM   19  O   UNL     1      42.717  -9.393  -1.015  1.00  0.00    -0.321 OA
HETATM   20  C   UNL     1      42.732  -8.023  -1.415  1.00  0.00     0.213 C 
ENDBRANCH  17  19
ENDBRANCH  12  17
ENDBRANCH   7   9
ENDBRANCH   1   7
BRANCH   2  21
HETATM   21  C   UNL     1      42.614 -13.895   4.016  1.00  0.00    -0.028 A 
HETATM   22  C   UNL     1      42.454 -14.567   5.238  1.00  0.00     0.045 A 
HETATM   23  C   UNL     1      42.656 -15.956   5.318  1.00  0.00     0.103 A 
HETATM   24  C   UNL     1      43.078 -16.682   4.201  1.00  0.00     0.036 A 
HETATM   25  C   UNL     1      43.283 -16.015   2.995  1.00  0.00     0.003 A 
HETATM   26  C   UNL     1      43.043 -14.640   2.902  1.00  0.00     0.010 A 
BRANCH  23  27
HETATM   27  N   UNL     1      42.394 -16.653   6.585  1.00  0.00    -0.116 N 
HETATM   28  O   UNL     1      43.078 -17.655   6.835  1.00  0.00    -0.532 OA
HETATM   29  O   UNL     1      41.509 -16.198   7.322  1.00  0.00    -0.532 OA
ENDBRANCH  23  27
ENDBRANCH   2  21
BRANCH   6  30
HETATM   30  O   UNL     1      39.584 -10.309   5.187  1.00  0.00    -0.355 OA
HETATM   31  H   UNL     1      38.782 -10.851   5.281  1.00  0.00     0.218 HD
ENDBRANCH   6  30
BRANCH   3  32
HETATM   32  C   UNL     1      44.338 -11.393   5.100  1.00  0.00     0.129 C 
BRANCH  32  33
HETATM   33  C   UNL     1      44.930 -11.974   6.392  1.00  0.00     0.048 C 
BRANCH  33  34
HETATM   34  C   UNL     1      45.583 -10.998   7.377  1.00  0.00     0.236 C 
BRANCH  34  35
HETATM   35  N   UNL     1      44.617 -10.077   8.068  1.00  0.00    -0.067 N 
HETATM   36  H   UNL     1      43.863  -9.838   7.390  1.00  0.00     0.280 HD
HETATM   37  C   UNL     1      43.988 -10.640   9.328  1.00  0.00     0.261 C 
HETATM   38  C   UNL     1      43.021  -9.615   9.933  1.00  0.00     0.195 C 
HETATM   39  O   UNL     1      43.683  -8.375  10.202  1.00  0.00    -0.388 OA
HETATM   40  C   UNL     1      44.203  -7.793   9.000  1.00  0.00     0.195 C 
HETATM   41  C   UNL     1      45.250  -8.714   8.365  1.00  0.00     0.261 C 
ENDBRANCH  34  35
ENDBRANCH  33  34
ENDBRANCH  32  33
ENDBRANCH   3  32
TORSDOF 11
ENDMDL
MODEL 10
REMARK VINA RESULT:      -7.7      3.612      8.443
REMARK  11 active torsions:
REMARK  status: ('A' for Active; 'I' for Inactive)
REMARK    1  A    between atoms: C_3  and  C_4 
REMARK    2  A    between atoms: C_4  and  O_5 
REMARK    3  A    between atoms: C_12  and  C_13 
REMARK    4  A    between atoms: C_13  and  C_14 
REMARK    5  A    between atoms: C_15  and  C_16 
REMARK    6  A    between atoms: C_18  and  N_19 
REMARK    7  A    between atoms: N_25  and  C_26 
REMARK    8  A    between atoms: C_26  and  C_27 
REMARK    9  A    between atoms: C_27  and  C_28 
REMARK   10  A    between atoms: C_28  and  N_29 
REMARK   11  A    between atoms: C_38  and  O_39 
ROOT
HETATM    1  C   UNL     1      43.691  -9.594   7.864  1.00  0.00     0.059 A 
HETATM    2  C   UNL     1      42.443  -9.178   7.118  1.00  0.00     0.161 A 
HETATM    3  N   UNL     1      42.248 -10.316   6.236  1.00  0.00    -0.333 N 
HETATM    4  C   UNL     1      43.210 -11.282   6.429  1.00  0.00     0.278 A 
HETATM    5  O   UNL     1      43.361 -12.270   5.726  1.00  0.00    -0.265 OA
HETATM    6  C   UNL     1      44.143 -10.798   7.473  1.00  0.00     0.146 A 
ENDROOT
BRANCH   1   7
HETATM    7  C   UNL     1      44.289  -8.557   8.738  1.00  0.00     0.196 C 
HETATM    8  O   UNL     1      45.289  -7.958   8.356  1.00  0.00    -0.287 OA
BRANCH   7   9
HETATM    9  C   UNL     1      43.736  -8.385  10.076  1.00  0.00     0.045 A 
HETATM   10  C   UNL     1      43.042  -7.210  10.547  1.00  0.00    -0.013 A 
HETATM   11  C   UNL     1      42.790  -5.971   9.750  1.00  0.00     0.052 C 
HETATM   12  C   UNL     1      42.639  -7.454  11.857  1.00  0.00     0.115 A 
HETATM   13  N   UNL     1      43.066  -8.724  12.175  1.00  0.00    -0.354 N 
HETATM   14  H   UNL     1      42.873  -9.163  13.070  1.00  0.00     0.166 HD
HETATM   15  C   UNL     1      43.695  -9.315  11.108  1.00  0.00     0.020 A 
HETATM   16  C   UNL     1      44.145 -10.731  11.210  1.00  0.00     0.069 C 
BRANCH  12  17
HETATM   17  C   UNL     1      41.896  -6.673  12.826  1.00  0.00     0.310 C 
HETATM   18  O   UNL     1      40.715  -6.381  12.699  1.00  0.00    -0.258 OA
BRANCH  17  19
HETATM   19  O   UNL     1      42.684  -6.318  13.874  1.00  0.00    -0.321 OA
HETATM   20  C   UNL     1      42.258  -6.846  15.130  1.00  0.00     0.213 C 
ENDBRANCH  17  19
ENDBRANCH  12  17
ENDBRANCH   7   9
ENDBRANCH   1   7
BRANCH   2  21
HETATM   21  C   UNL     1      41.210  -8.890   7.957  1.00  0.00    -0.028 A 
HETATM   22  C   UNL     1      40.840  -9.681   9.057  1.00  0.00     0.045 A 
HETATM   23  C   UNL     1      39.727  -9.333   9.841  1.00  0.00     0.103 A 
HETATM   24  C   UNL     1      38.933  -8.232   9.507  1.00  0.00     0.036 A 
HETATM   25  C   UNL     1      39.267  -7.467   8.392  1.00  0.00     0.003 A 
HETATM   26  C   UNL     1      40.398  -7.787   7.633  1.00  0.00     0.010 A 
BRANCH  23  27
HETATM   27  N   UNL     1      39.412 -10.122  11.040  1.00  0.00    -0.116 N 
HETATM   28  O   UNL     1      38.650 -11.089  10.901  1.00  0.00    -0.532 OA
HETATM   29  O   UNL     1      39.926  -9.775  12.111  1.00  0.00    -0.532 OA
ENDBRANCH  23  27
ENDBRANCH   2  21
BRANCH   6  30
HETATM   30  O   UNL     1      45.299 -11.467   7.738  1.00  0.00    -0.355 OA
HETATM   31  H   UNL     1      45.943 -10.891   8.185  1.00  0.00     0.218 HD
ENDBRANCH   6  30
BRANCH   3  32
HETATM   32  C   UNL     1      41.399 -10.288   5.056  1.00  0.00     0.129 C 
BRANCH  32  33
HETATM   33  C   UNL     1      40.140 -11.159   5.168  1.00  0.00     0.048 C 
BRANCH  33  34
HETATM   34  C   UNL     1      40.040 -12.385   4.253  1.00  0.00     0.236 C 
BRANCH  34  35
HETATM   35  N   UNL     1      40.751 -13.603   4.771  1.00  0.00    -0.067 N 
HETATM   36  H   UNL     1      41.773 -13.400   4.774  1.00  0.00     0.280 HD
HETATM   37  C   UNL     1      40.331 -14.045   6.160  1.00  0.00     0.261 C 
HETATM   38  C   UNL     1      41.129 -15.286   6.578  1.00  0.00     0.195 C 
HETATM   39  O   UNL     1      40.967 -16.349   5.632  1.00  0.00    -0.388 OA
HETATM   40  C   UNL     1      41.445 -15.967   4.336  1.00  0.00     0.195 C 
HETATM   41  C   UNL     1      40.643 -14.779   3.794  1.00  0.00     0.261 C 
ENDBRANCH  34  35
ENDBRANCH  33  34
ENDBRANCH  32  33
ENDBRANCH   3  32
TORSDOF 11
ENDMDL
