MODEL 1
REMARK VINA RESULT:      -9.4      0.000      0.000
REMARK  6 active torsions:
REMARK  status: ('A' for Active; 'I' for Inactive)
REMARK    1  A    between atoms: C_2  and  C_3 
REMARK    2  A    between atoms: C_3  and  C_4 
REMARK    3  A    between atoms: C_6  and  N_7 
REMARK    4  A    between atoms: C_9  and  C_10 
REMARK    5  A    between atoms: C_16  and  N_17 
REMARK       I    between atoms: N_17  and  C_18 
REMARK    6  A    between atoms: C_18  and  C_19 
ROOT
HETATM    1  N   UNL     1      42.341 -12.441   5.777  1.00  0.00    -0.044 N 
HETATM    2  N   UNL     1      42.314 -11.180   6.290  1.00  0.00    -0.150 NA
HETATM    3  C   UNL     1      43.379 -11.136   7.103  1.00  0.00     0.099 A 
HETATM    4  C   UNL     1      44.088 -12.361   7.109  1.00  0.00     0.086 A 
HETATM    5  C   UNL     1      43.394 -13.195   6.264  1.00  0.00     0.152 A 
ENDROOT
BRANCH   5   6
HETATM    6  N   UNL     1      43.641 -14.528   5.952  1.00  0.00    -0.305 N 
HETATM    7  C   UNL     1      43.280 -15.639   6.782  1.00  0.00     0.281 C 
HETATM    8  O   UNL     1      42.858 -15.466   7.915  1.00  0.00    -0.265 OA
HETATM    9  H   UNL     1      44.131 -14.727   5.076  1.00  0.00     0.170 HD
BRANCH   7  10
HETATM   10  C   UNL     1      43.486 -16.915   6.148  1.00  0.00     0.144 A 
HETATM   11  O   UNL     1      43.569 -16.973   4.780  1.00  0.00    -0.304 OA
HETATM   12  C   UNL     1      43.686 -18.290   4.444  1.00  0.00     0.086 A 
HETATM   13  C   UNL     1      43.718 -19.081   5.587  1.00  0.00     0.001 A 
HETATM   14  C   UNL     1      43.753 -18.791   3.148  1.00  0.00     0.038 A 
HETATM   15  C   UNL     1      43.588 -18.186   6.679  1.00  0.00     0.057 A 
HETATM   16  C   UNL     1      43.843 -20.472   5.440  1.00  0.00     0.014 A 
HETATM   17  C   UNL     1      43.920 -21.007   4.145  1.00  0.00     0.001 A 
HETATM   18  C   UNL     1      43.871 -20.180   3.022  1.00  0.00     0.003 A 
ENDBRANCH   7  10
ENDBRANCH   5   6
BRANCH   1  19
HETATM   19  C   UNL     1      41.380 -12.845   4.838  1.00  0.00     0.732 A 
HETATM   20  N   UNL     1      41.330 -14.054   4.372  1.00  0.00    -0.067 NA
HETATM   21  C   UNL     1      40.345 -14.288   3.431  1.00  0.00     0.059 A 
HETATM   22  C   UNL     1      39.480 -13.352   3.007  1.00  0.00     0.102 A 
HETATM   23  C   UNL     1      39.560 -11.995   3.573  1.00  0.00     0.261 A 
HETATM   24  N   UNL     1      40.546 -11.821   4.489  1.00  0.00    -0.152 N 
HETATM   25  O   UNL     1      38.795 -11.107   3.225  1.00  0.00    -0.268 OA
HETATM   26  H   UNL     1      40.662 -10.902   4.908  1.00  0.00     0.187 HD
BRANCH  21  27
HETATM   27  C   UNL     1      40.307 -15.682   2.845  1.00  0.00     0.060 C 
BRANCH  27  28
HETATM   28  C   UNL     1      40.918 -15.729   1.444  1.00  0.00     0.002 C 
HETATM   29  C   UNL     1      42.437 -15.690   1.503  1.00  0.00     0.005 C 
ENDBRANCH  27  28
ENDBRANCH  21  27
ENDBRANCH   1  19
BRANCH   3  30
HETATM   30  C   UNL     1      43.719  -9.909   7.897  1.00  0.00     0.035 A 
HETATM   31  S   UNL     1      42.561  -8.878   8.617  1.00  0.00    -0.100 SA
HETATM   32  C   UNL     1      43.773  -7.842   9.238  1.00  0.00     0.050 A 
HETATM   33  C   UNL     1      45.037  -8.273   8.907  1.00  0.00     0.008 A 
HETATM   34  C   UNL     1      45.007  -9.470   8.131  1.00  0.00     0.022 A 
ENDBRANCH   3  30
TORSDOF 6
ENDMDL
MODEL 2
REMARK VINA RESULT:      -9.4      3.762      6.240
REMARK  6 active torsions:
REMARK  status: ('A' for Active; 'I' for Inactive)
REMARK    1  A    between atoms: C_2  and  C_3 
REMARK    2  A    between atoms: C_3  and  C_4 
REMARK    3  A    between atoms: C_6  and  N_7 
REMARK    4  A    between atoms: C_9  and  C_10 
REMARK    5  A    between atoms: C_16  and  N_17 
REMARK       I    between atoms: N_17  and  C_18 
REMARK    6  A    between atoms: C_18  and  C_19 
ROOT
HETATM    1  N   UNL     1      40.051 -13.487   1.993  1.00  0.00    -0.044 N 
HETATM    2  N   UNL     1      39.470 -12.513   1.241  1.00  0.00    -0.150 NA
HETATM    3  C   UNL     1      39.618 -12.941  -0.020  1.00  0.00     0.099 A 
HETATM    4  C   UNL     1      40.288 -14.187  -0.078  1.00  0.00     0.086 A 
HETATM    5  C   UNL     1      40.575 -14.513   1.227  1.00  0.00     0.152 A 
ENDROOT
BRANCH   5   6
HETATM    6  N   UNL     1      41.267 -15.615   1.723  1.00  0.00    -0.305 N 
HETATM    7  C   UNL     1      42.669 -15.633   2.011  1.00  0.00     0.281 C 
HETATM    8  O   UNL     1      43.390 -14.702   1.688  1.00  0.00    -0.265 OA
HETATM    9  H   UNL     1      40.737 -16.478   1.873  1.00  0.00     0.170 HD
BRANCH   7  10
HETATM   10  C   UNL     1      43.098 -16.834   2.680  1.00  0.00     0.144 A 
HETATM   11  O   UNL     1      43.130 -18.012   1.978  1.00  0.00    -0.304 OA
HETATM   12  C   UNL     1      43.493 -18.989   2.858  1.00  0.00     0.086 A 
HETATM   13  C   UNL     1      43.734 -18.446   4.114  1.00  0.00     0.001 A 
HETATM   14  C   UNL     1      43.601 -20.345   2.562  1.00  0.00     0.038 A 
HETATM   15  C   UNL     1      43.477 -17.057   3.990  1.00  0.00     0.057 A 
HETATM   16  C   UNL     1      44.129 -19.304   5.155  1.00  0.00     0.014 A 
HETATM   17  C   UNL     1      44.253 -20.674   4.885  1.00  0.00     0.001 A 
HETATM   18  C   UNL     1      43.989 -21.183   3.612  1.00  0.00     0.003 A 
ENDBRANCH   7  10
ENDBRANCH   5   6
BRANCH   1  19
HETATM   19  C   UNL     1      40.052 -13.397   3.393  1.00  0.00     0.732 A 
HETATM   20  N   UNL     1      40.551 -14.326   4.149  1.00  0.00    -0.067 NA
HETATM   21  C   UNL     1      40.449 -14.104   5.509  1.00  0.00     0.059 A 
HETATM   22  C   UNL     1      39.881 -13.011   6.047  1.00  0.00     0.102 A 
HETATM   23  C   UNL     1      39.342 -11.973   5.155  1.00  0.00     0.261 A 
HETATM   24  N   UNL     1      39.466 -12.243   3.830  1.00  0.00    -0.152 N 
HETATM   25  O   UNL     1      38.818 -10.957   5.592  1.00  0.00    -0.268 OA
HETATM   26  H   UNL     1      39.100 -11.571   3.161  1.00  0.00     0.187 HD
BRANCH  21  27
HETATM   27  C   UNL     1      40.984 -15.202   6.401  1.00  0.00     0.060 C 
BRANCH  27  28
HETATM   28  C   UNL     1      42.401 -14.902   6.890  1.00  0.00     0.002 C 
HETATM   29  C   UNL     1      43.006 -16.106   7.596  1.00  0.00     0.005 C 
ENDBRANCH  27  28
ENDBRANCH  21  27
ENDBRANCH   1  19
BRANCH   3  30
HETATM   30  C   UNL     1      39.124 -12.144  -1.191  1.00  0.00     0.035 A 
HETATM   31  S   UNL     1      40.131 -11.521  -2.424  1.00  0.00    -0.100 SA
HETATM   32  C   UNL     1      38.805 -10.811  -3.240  1.00  0.00     0.050 A 
HETATM   33  C   UNL     1      37.616 -11.046  -2.588  1.00  0.00     0.008 A 
HETATM   34  C   UNL     1      37.800 -11.818  -1.403  1.00  0.00     0.022 A 
ENDBRANCH   3  30
TORSDOF 6
ENDMDL
MODEL 3
REMARK VINA RESULT:      -9.3      2.376      5.814
REMARK  6 active torsions:
REMARK  status: ('A' for Active; 'I' for Inactive)
REMARK    1  A    between atoms: C_2  and  C_3 
REMARK    2  A    between atoms: C_3  and  C_4 
REMARK    3  A    between atoms: C_6  and  N_7 
REMARK    4  A    between atoms: C_9  and  C_10 
REMARK    5  A    between atoms: C_16  and  N_17 
REMARK       I    between atoms: N_17  and  C_18 
REMARK    6  A    between atoms: C_18  and  C_19 
ROOT
HETATM    1  N   UNL     1      43.427 -13.748   5.261  1.00  0.00    -0.044 N 
HETATM    2  N   UNL     1      43.956 -13.136   6.356  1.00  0.00    -0.150 NA
HETATM    3  C   UNL     1      43.765 -11.830   6.123  1.00  0.00     0.099 A 
HETATM    4  C   UNL     1      43.113 -11.605   4.886  1.00  0.00     0.086 A 
HETATM    5  C   UNL     1      42.921 -12.851   4.338  1.00  0.00     0.152 A 
ENDROOT
BRANCH   5   6
HETATM    6  N   UNL     1      42.366 -13.190   3.107  1.00  0.00    -0.305 N 
HETATM    7  C   UNL     1      40.971 -13.418   2.879  1.00  0.00     0.281 C 
HETATM    8  O   UNL     1      40.183 -13.477   3.810  1.00  0.00    -0.265 OA
HETATM    9  H   UNL     1      43.004 -13.302   2.314  1.00  0.00     0.170 HD
BRANCH   7  10
HETATM   10  C   UNL     1      40.640 -13.576   1.486  1.00  0.00     0.144 A 
HETATM   11  O   UNL     1      41.029 -12.610   0.595  1.00  0.00    -0.304 OA
HETATM   12  C   UNL     1      40.527 -12.966  -0.622  1.00  0.00     0.086 A 
HETATM   13  C   UNL     1      39.849 -14.176  -0.532  1.00  0.00     0.001 A 
HETATM   14  C   UNL     1      40.655 -12.230  -1.797  1.00  0.00     0.038 A 
HETATM   15  C   UNL     1      39.926 -14.561   0.830  1.00  0.00     0.057 A 
HETATM   16  C   UNL     1      39.267 -14.710  -1.694  1.00  0.00     0.014 A 
HETATM   17  C   UNL     1      39.385 -13.995  -2.895  1.00  0.00     0.001 A 
HETATM   18  C   UNL     1      40.064 -12.776  -2.941  1.00  0.00     0.003 A 
ENDBRANCH   7  10
ENDBRANCH   5   6
BRANCH   1  19
HETATM   19  C   UNL     1      43.413 -15.148   5.170  1.00  0.00     0.732 A 
HETATM   20  N   UNL     1      43.331 -15.770   4.034  1.00  0.00    -0.067 NA
HETATM   21  C   UNL     1      43.298 -17.149   4.112  1.00  0.00     0.059 A 
HETATM   22  C   UNL     1      43.347 -17.833   5.267  1.00  0.00     0.102 A 
HETATM   23  C   UNL     1      43.455 -17.091   6.534  1.00  0.00     0.261 A 
HETATM   24  N   UNL     1      43.482 -15.741   6.399  1.00  0.00    -0.152 N 
HETATM   25  O   UNL     1      43.507 -17.664   7.613  1.00  0.00    -0.268 OA
HETATM   26  H   UNL     1      43.542 -15.170   7.237  1.00  0.00     0.187 HD
BRANCH  21  27
HETATM   27  C   UNL     1      43.155 -17.883   2.797  1.00  0.00     0.060 C 
BRANCH  27  28
HETATM   28  C   UNL     1      43.968 -19.178   2.774  1.00  0.00     0.002 C 
HETATM   29  C   UNL     1      43.239 -20.273   2.011  1.00  0.00     0.005 C 
ENDBRANCH  27  28
ENDBRANCH  21  27
ENDBRANCH   1  19
BRANCH   3  30
HETATM   30  C   UNL     1      44.223 -10.777   7.090  1.00  0.00     0.035 A 
HETATM   31  S   UNL     1      43.191  -9.622   7.813  1.00  0.00    -0.100 SA
HETATM   32  C   UNL     1      44.486  -8.906   8.672  1.00  0.00     0.050 A 
HETATM   33  C   UNL     1      45.683  -9.536   8.415  1.00  0.00     0.008 A 
HETATM   34  C   UNL     1      45.531 -10.620   7.501  1.00  0.00     0.022 A 
ENDBRANCH   3  30
TORSDOF 6
ENDMDL
MODEL 4
REMARK VINA RESULT:      -9.0      2.969      8.078
REMARK  6 active torsions:
REMARK  status: ('A' for Active; 'I' for Inactive)
REMARK    1  A    between atoms: C_2  and  C_3 
REMARK    2  A    between atoms: C_3  and  C_4 
REMARK    3  A    between atoms: C_6  and  N_7 
REMARK    4  A    between atoms: C_9  and  C_10 
REMARK    5  A    between atoms: C_16  and  N_17 
REMARK       I    between atoms: N_17  and  C_18 
REMARK    6  A    between atoms: C_18  and  C_19 
ROOT
HETATM    1  N   UNL     1      42.601 -13.360   4.769  1.00  0.00    -0.044 N 
HETATM    2  N   UNL     1      42.663 -14.421   3.920  1.00  0.00    -0.150 NA
HETATM    3  C   UNL     1      43.172 -15.409   4.669  1.00  0.00     0.099 A 
HETATM    4  C   UNL     1      43.432 -14.985   5.995  1.00  0.00     0.086 A 
HETATM    5  C   UNL     1      43.075 -13.657   6.034  1.00  0.00     0.152 A 
ENDROOT
BRANCH   5   6
HETATM    6  N   UNL     1      43.175 -12.754   7.089  1.00  0.00    -0.305 N 
HETATM    7  C   UNL     1      44.288 -11.880   7.309  1.00  0.00     0.281 C 
HETATM    8  O   UNL     1      45.310 -11.985   6.650  1.00  0.00    -0.265 OA
HETATM    9  H   UNL     1      42.406 -12.728   7.764  1.00  0.00     0.170 HD
BRANCH   7  10
HETATM   10  C   UNL     1      44.062 -10.924   8.362  1.00  0.00     0.144 A 
HETATM   11  O   UNL     1      43.920 -11.374   9.650  1.00  0.00    -0.304 OA
HETATM   12  C   UNL     1      43.644 -10.285  10.423  1.00  0.00     0.086 A 
HETATM   13  C   UNL     1      43.645  -9.129   9.652  1.00  0.00     0.001 A 
HETATM   14  C   UNL     1      43.383 -10.308  11.791  1.00  0.00     0.038 A 
HETATM   15  C   UNL     1      43.914  -9.551   8.325  1.00  0.00     0.057 A 
HETATM   16  C   UNL     1      43.386  -7.899  10.280  1.00  0.00     0.014 A 
HETATM   17  C   UNL     1      43.127  -7.890  11.658  1.00  0.00     0.001 A 
HETATM   18  C   UNL     1      43.122  -9.075  12.397  1.00  0.00     0.003 A 
ENDBRANCH   7  10
ENDBRANCH   5   6
BRANCH   1  19
HETATM   19  C   UNL     1      42.073 -12.135   4.335  1.00  0.00     0.732 A 
HETATM   20  N   UNL     1      41.383 -11.359   5.114  1.00  0.00    -0.067 NA
HETATM   21  C   UNL     1      40.906 -10.202   4.530  1.00  0.00     0.059 A 
HETATM   22  C   UNL     1      41.123  -9.868   3.247  1.00  0.00     0.102 A 
HETATM   23  C   UNL     1      41.924 -10.767   2.399  1.00  0.00     0.261 A 
HETATM   24  N   UNL     1      42.365 -11.889   3.023  1.00  0.00    -0.152 N 
HETATM   25  O   UNL     1      42.155 -10.509   1.227  1.00  0.00    -0.268 OA
HETATM   26  H   UNL     1      42.912 -12.558   2.488  1.00  0.00     0.187 HD
BRANCH  21  27
HETATM   27  C   UNL     1      40.061  -9.313   5.416  1.00  0.00     0.060 C 
BRANCH  27  28
HETATM   28  C   UNL     1      40.833  -8.833   6.646  1.00  0.00     0.002 C 
HETATM   29  C   UNL     1      40.185  -9.327   7.930  1.00  0.00     0.005 C 
ENDBRANCH  27  28
ENDBRANCH  21  27
ENDBRANCH   1  19
BRANCH   3  30
HETATM   30  C   UNL     1      43.427 -16.778   4.109  1.00  0.00     0.035 A 
HETATM   31  S   UNL     1      44.082 -18.077   5.007  1.00  0.00    -0.100 SA
HETATM   32  C   UNL     1      44.024 -19.125   3.656  1.00  0.00     0.050 A 
HETATM   33  C   UNL     1      43.513 -18.500   2.541  1.00  0.00     0.008 A 
HETATM   34  C   UNL     1      43.166 -17.141   2.804  1.00  0.00     0.022 A 
ENDBRANCH   3  30
TORSDOF 6
ENDMDL
MODEL 5
REMARK VINA RESULT:      -8.8      3.251      8.073
REMARK  6 active torsions:
REMARK  status: ('A' for Active; 'I' for Inactive)
REMARK    1  A    between atoms: C_2  and  C_3 
REMARK    2  A    between atoms: C_3  and  C_4 
REMARK    3  A    between atoms: C_6  and  N_7 
REMARK    4  A    between atoms: C_9  and  C_10 
REMARK    5  A    between atoms: C_16  and  N_17 
REMARK       I    between atoms: N_17  and  C_18 
REMARK    6  A    between atoms: C_18  and  C_19 
ROOT
HETATM    1  N   UNL     1      41.344 -14.691   1.969  1.00  0.00    -0.044 N 
HETATM    2  N   UNL     1      40.630 -15.086   0.880  1.00  0.00    -0.150 NA
HETATM    3  C   UNL     1      40.358 -13.942   0.236  1.00  0.00     0.099 A 
HETATM    4  C   UNL     1      40.899 -12.819   0.907  1.00  0.00     0.086 A 
HETATM    5  C   UNL     1      41.514 -13.319   2.030  1.00  0.00     0.152 A 
ENDROOT
BRANCH   5   6
HETATM    6  N   UNL     1      42.160 -12.633   3.054  1.00  0.00    -0.305 N 
HETATM    7  C   UNL     1      41.505 -12.074   4.199  1.00  0.00     0.281 C 
HETATM    8  O   UNL     1      40.286 -12.036   4.270  1.00  0.00    -0.265 OA
HETATM    9  H   UNL     1      43.172 -12.503   2.973  1.00  0.00     0.170 HD
BRANCH   7  10
HETATM   10  C   UNL     1      42.421 -11.576   5.192  1.00  0.00     0.144 A 
HETATM   11  O   UNL     1      43.768 -11.742   4.999  1.00  0.00    -0.304 OA
HETATM   12  C   UNL     1      44.392 -11.255   6.110  1.00  0.00     0.086 A 
HETATM   13  C   UNL     1      43.460 -10.738   7.003  1.00  0.00     0.001 A 
HETATM   14  C   UNL     1      45.765 -11.273   6.341  1.00  0.00     0.038 A 
HETATM   15  C   UNL     1      42.193 -10.950   6.403  1.00  0.00     0.057 A 
HETATM   16  C   UNL     1      43.919 -10.181   8.208  1.00  0.00     0.014 A 
HETATM   17  C   UNL     1      45.297 -10.179   8.466  1.00  0.00     0.001 A 
HETATM   18  C   UNL     1      46.201 -10.719   7.549  1.00  0.00     0.003 A 
ENDBRANCH   7  10
ENDBRANCH   5   6
BRANCH   1  19
HETATM   19  C   UNL     1      41.843 -15.641   2.873  1.00  0.00     0.732 A 
HETATM   20  N   UNL     1      41.616 -15.574   4.149  1.00  0.00    -0.067 NA
HETATM   21  C   UNL     1      42.200 -16.569   4.909  1.00  0.00     0.059 A 
HETATM   22  C   UNL     1      42.957 -17.554   4.398  1.00  0.00     0.102 A 
HETATM   23  C   UNL     1      43.178 -17.604   2.943  1.00  0.00     0.261 A 
HETATM   24  N   UNL     1      42.583 -16.603   2.245  1.00  0.00    -0.152 N 
HETATM   25  O   UNL     1      43.855 -18.480   2.425  1.00  0.00    -0.268 OA
HETATM   26  H   UNL     1      42.709 -16.573   1.237  1.00  0.00     0.187 HD
BRANCH  21  27
HETATM   27  C   UNL     1      41.982 -16.474   6.403  1.00  0.00     0.060 C 
BRANCH  27  28
HETATM   28  C   UNL     1      42.244 -15.062   6.931  1.00  0.00     0.002 C 
HETATM   29  C   UNL     1      43.725 -14.720   6.873  1.00  0.00     0.005 C 
ENDBRANCH  27  28
ENDBRANCH  21  27
ENDBRANCH   1  19
BRANCH   3  30
HETATM   30  C   UNL     1      39.558 -13.919  -1.034  1.00  0.00     0.035 A 
HETATM   31  S   UNL     1      38.932 -12.498  -1.749  1.00  0.00    -0.100 SA
HETATM   32  C   UNL     1      38.222 -13.379  -3.033  1.00  0.00     0.050 A 
HETATM   33  C   UNL     1      38.459 -14.731  -2.921  1.00  0.00     0.008 A 
HETATM   34  C   UNL     1      39.233 -15.043  -1.765  1.00  0.00     0.022 A 
ENDBRANCH   3  30
TORSDOF 6
ENDMDL
MODEL 6
REMARK VINA RESULT:      -8.8      3.824      8.551
REMARK  6 active torsions:
REMARK  status: ('A' for Active; 'I' for Inactive)
REMARK    1  A    between atoms: C_2  and  C_3 
REMARK    2  A    between atoms: C_3  and  C_4 
REMARK    3  A    between atoms: C_6  and  N_7 
REMARK    4  A    between atoms: C_9  and  C_10 
REMARK    5  A    between atoms: C_16  and  N_17 
REMARK       I    between atoms: N_17  and  C_18 
REMARK    6  A    between atoms: C_18  and  C_19 
ROOT
HETATM    1  N   UNL     1      42.613 -15.142   3.590  1.00  0.00    -0.044 N 
HETATM    2  N   UNL     1      42.894 -16.350   4.150  1.00  0.00    -0.150 NA
HETATM    3  C   UNL     1      43.155 -17.143   3.100  1.00  0.00     0.099 A 
HETATM    4  C   UNL     1      43.047 -16.445   1.873  1.00  0.00     0.086 A 
HETATM    5  C   UNL     1      42.679 -15.163   2.208  1.00  0.00     0.152 A 
ENDROOT
BRANCH   5   6
HETATM    6  N   UNL     1      42.395 -14.087   1.372  1.00  0.00    -0.305 N 
HETATM    7  C   UNL     1      41.093 -13.519   1.191  1.00  0.00     0.281 C 
HETATM    8  O   UNL     1      40.101 -14.058   1.657  1.00  0.00    -0.265 OA
HETATM    9  H   UNL     1      43.169 -13.686   0.836  1.00  0.00     0.170 HD
BRANCH   7  10
HETATM   10  C   UNL     1      41.103 -12.306   0.415  1.00  0.00     0.144 A 
HETATM   11  O   UNL     1      40.838 -12.373  -0.929  1.00  0.00    -0.304 OA
HETATM   12  C   UNL     1      40.987 -11.112  -1.427  1.00  0.00     0.086 A 
HETATM   13  C   UNL     1      41.308 -10.223  -0.409  1.00  0.00     0.001 A 
HETATM   14  C   UNL     1      40.852 -10.749  -2.764  1.00  0.00     0.038 A 
HETATM   15  C   UNL     1      41.381 -11.001   0.774  1.00  0.00     0.057 A 
HETATM   16  C   UNL     1      41.494  -8.868  -0.731  1.00  0.00     0.014 A 
HETATM   17  C   UNL     1      41.358  -8.470  -2.069  1.00  0.00     0.001 A 
HETATM   18  C   UNL     1      41.047  -9.397  -3.066  1.00  0.00     0.003 A 
ENDBRANCH   7  10
ENDBRANCH   5   6
BRANCH   1  19
HETATM   19  C   UNL     1      42.324 -14.035   4.402  1.00  0.00     0.732 A 
HETATM   20  N   UNL     1      43.223 -13.157   4.726  1.00  0.00    -0.067 NA
HETATM   21  C   UNL     1      42.789 -12.141   5.556  1.00  0.00     0.059 A 
HETATM   22  C   UNL     1      41.530 -12.036   6.014  1.00  0.00     0.102 A 
HETATM   23  C   UNL     1      40.536 -13.044   5.610  1.00  0.00     0.261 A 
HETATM   24  N   UNL     1      41.016 -14.019   4.797  1.00  0.00    -0.152 N 
HETATM   25  O   UNL     1      39.376 -12.994   5.994  1.00  0.00    -0.268 OA
HETATM   26  H   UNL     1      40.383 -14.753   4.493  1.00  0.00     0.187 HD
BRANCH  21  27
HETATM   27  C   UNL     1      43.839 -11.139   5.980  1.00  0.00     0.060 C 
BRANCH  27  28
HETATM   28  C   UNL     1      45.012 -11.808   6.698  1.00  0.00     0.002 C 
HETATM   29  C   UNL     1      45.689 -10.847   7.662  1.00  0.00     0.005 C 
ENDBRANCH  27  28
ENDBRANCH  21  27
ENDBRANCH   1  19
BRANCH   3  30
HETATM   30  C   UNL     1      43.502 -18.593   3.270  1.00  0.00     0.035 A 
HETATM   31  S   UNL     1      44.150 -19.266   4.701  1.00  0.00    -0.100 SA
HETATM   32  C   UNL     1      44.223 -20.830   4.011  1.00  0.00     0.050 A 
HETATM   33  C   UNL     1      43.761 -20.841   2.714  1.00  0.00     0.008 A 
HETATM   34  C   UNL     1      43.342 -19.547   2.285  1.00  0.00     0.022 A 
ENDBRANCH   3  30
TORSDOF 6
ENDMDL
MODEL 7
REMARK VINA RESULT:      -8.6      2.788      7.713
REMARK  6 active torsions:
REMARK  status: ('A' for Active; 'I' for Inactive)
REMARK    1  A    between atoms: C_2  and  C_3 
REMARK    2  A    between atoms: C_3  and  C_4 
REMARK    3  A    between atoms: C_6  and  N_7 
REMARK    4  A    between atoms: C_9  and  C_10 
REMARK    5  A    between atoms: C_16  and  N_17 
REMARK       I    between atoms: N_17  and  C_18 
REMARK    6  A    between atoms: C_18  and  C_19 
ROOT
HETATM    1  N   UNL     1      42.069 -15.249   3.216  1.00  0.00    -0.044 N 
HETATM    2  N   UNL     1      42.076 -16.519   2.726  1.00  0.00    -0.150 NA
HETATM    3  C   UNL     1      43.004 -17.148   3.461  1.00  0.00     0.099 A 
HETATM    4  C   UNL     1      43.586 -16.286   4.423  1.00  0.00     0.086 A 
HETATM    5  C   UNL     1      42.985 -15.064   4.237  1.00  0.00     0.152 A 
ENDROOT
BRANCH   5   6
HETATM    6  N   UNL     1      43.228 -13.859   4.891  1.00  0.00    -0.305 N 
HETATM    7  C   UNL     1      42.867 -13.583   6.249  1.00  0.00     0.281 C 
HETATM    8  O   UNL     1      42.170 -14.358   6.884  1.00  0.00    -0.265 OA
HETATM    9  H   UNL     1      43.680 -13.113   4.355  1.00  0.00     0.170 HD
BRANCH   7  10
HETATM   10  C   UNL     1      43.391 -12.333   6.734  1.00  0.00     0.144 A 
HETATM   11  O   UNL     1      44.740 -12.215   6.952  1.00  0.00    -0.304 OA
HETATM   12  C   UNL     1      44.951 -10.974   7.475  1.00  0.00     0.086 A 
HETATM   13  C   UNL     1      43.754 -10.273   7.561  1.00  0.00     0.001 A 
HETATM   14  C   UNL     1      46.182 -10.466   7.883  1.00  0.00     0.038 A 
HETATM   15  C   UNL     1      42.754 -11.156   7.082  1.00  0.00     0.057 A 
HETATM   16  C   UNL     1      43.775  -8.964   8.072  1.00  0.00     0.014 A 
HETATM   17  C   UNL     1      45.001  -8.423   8.484  1.00  0.00     0.001 A 
HETATM   18  C   UNL     1      46.181  -9.164   8.394  1.00  0.00     0.003 A 
ENDBRANCH   7  10
ENDBRANCH   5   6
BRANCH   1  19
HETATM   19  C   UNL     1      41.176 -14.296   2.703  1.00  0.00     0.732 A 
HETATM   20  N   UNL     1      40.700 -13.330   3.427  1.00  0.00    -0.067 NA
HETATM   21  C   UNL     1      39.809 -12.491   2.785  1.00  0.00     0.059 A 
HETATM   22  C   UNL     1      39.439 -12.635   1.501  1.00  0.00     0.102 A 
HETATM   23  C   UNL     1      40.015 -13.735   0.710  1.00  0.00     0.261 A 
HETATM   24  N   UNL     1      40.881 -14.528   1.390  1.00  0.00    -0.152 N 
HETATM   25  O   UNL     1      39.716 -13.909  -0.463  1.00  0.00    -0.268 OA
HETATM   26  H   UNL     1      41.303 -15.315   0.904  1.00  0.00     0.187 HD
BRANCH  21  27
HETATM   27  C   UNL     1      39.211 -11.389   3.631  1.00  0.00     0.060 C 
BRANCH  27  28
HETATM   28  C   UNL     1      40.284 -10.598   4.380  1.00  0.00     0.002 C 
HETATM   29  C   UNL     1      40.889  -9.518   3.496  1.00  0.00     0.005 C 
ENDBRANCH  27  28
ENDBRANCH  21  27
ENDBRANCH   1  19
BRANCH   3  30
HETATM   30  C   UNL     1      43.350 -18.590   3.236  1.00  0.00     0.035 A 
HETATM   31  S   UNL     1      44.061 -19.604   4.415  1.00  0.00    -0.100 SA
HETATM   32  C   UNL     1      44.093 -20.937   3.344  1.00  0.00     0.050 A 
HETATM   33  C   UNL     1      43.569 -20.619   2.111  1.00  0.00     0.008 A 
HETATM   34  C   UNL     1      43.138 -19.261   2.049  1.00  0.00     0.022 A 
ENDBRANCH   3  30
TORSDOF 6
ENDMDL
MODEL 8
REMARK VINA RESULT:      -8.6      3.055      4.149
REMARK  6 active torsions:
REMARK  status: ('A' for Active; 'I' for Inactive)
REMARK    1  A    between atoms: C_2  and  C_3 
REMARK    2  A    between atoms: C_3  and  C_4 
REMARK    3  A    between atoms: C_6  and  N_7 
REMARK    4  A    between atoms: C_9  and  C_10 
REMARK    5  A    between atoms: C_16  and  N_17 
REMARK       I    between atoms: N_17  and  C_18 
REMARK    6  A    between atoms: C_18  and  C_19 
ROOT
HETATM    1  N   UNL     1      40.434 -11.967   2.739  1.00  0.00    -0.044 N 
HETATM    2  N   UNL     1      40.018 -10.779   3.255  1.00  0.00    -0.150 NA
HETATM    3  C   UNL     1      40.192 -10.917   4.577  1.00  0.00     0.099 A 
HETATM    4  C   UNL     1      40.722 -12.188   4.908  1.00  0.00     0.086 A 
HETATM    5  C   UNL     1      40.853 -12.857   3.713  1.00  0.00     0.152 A 
ENDROOT
BRANCH   5   6
HETATM    6  N   UNL     1      41.284 -14.159   3.481  1.00  0.00    -0.305 N 
HETATM    7  C   UNL     1      42.604 -14.516   3.054  1.00  0.00     0.281 C 
HETATM    8  O   UNL     1      43.407 -13.661   2.713  1.00  0.00    -0.265 OA
HETATM    9  H   UNL     1      40.603 -14.913   3.608  1.00  0.00     0.170 HD
BRANCH   7  10
HETATM   10  C   UNL     1      42.841 -15.936   3.062  1.00  0.00     0.144 A 
HETATM   11  O   UNL     1      43.331 -16.523   4.200  1.00  0.00    -0.304 OA
HETATM   12  C   UNL     1      43.532 -17.841   3.913  1.00  0.00     0.086 A 
HETATM   13  C   UNL     1      43.139 -18.119   2.609  1.00  0.00     0.001 A 
HETATM   14  C   UNL     1      44.065 -18.787   4.784  1.00  0.00     0.038 A 
HETATM   15  C   UNL     1      42.695 -16.886   2.068  1.00  0.00     0.057 A 
HETATM   16  C   UNL     1      43.264 -19.436   2.133  1.00  0.00     0.014 A 
HETATM   17  C   UNL     1      43.792 -20.412   2.990  1.00  0.00     0.001 A 
HETATM   18  C   UNL     1      44.189 -20.090   4.290  1.00  0.00     0.003 A 
ENDBRANCH   7  10
ENDBRANCH   5   6
BRANCH   1  19
HETATM   19  C   UNL     1      40.432 -12.178   1.352  1.00  0.00     0.732 A 
HETATM   20  N   UNL     1      39.924 -13.242   0.811  1.00  0.00    -0.067 NA
HETATM   21  C   UNL     1      40.026 -13.316  -0.565  1.00  0.00     0.059 A 
HETATM   22  C   UNL     1      40.604 -12.370  -1.323  1.00  0.00     0.102 A 
HETATM   23  C   UNL     1      41.155 -11.170  -0.672  1.00  0.00     0.261 A 
HETATM   24  N   UNL     1      41.030 -11.150   0.679  1.00  0.00    -0.152 N 
HETATM   25  O   UNL     1      41.688 -10.277  -1.315  1.00  0.00    -0.268 OA
HETATM   26  H   UNL     1      41.403 -10.355   1.190  1.00  0.00     0.187 HD
BRANCH  21  27
HETATM   27  C   UNL     1      39.479 -14.574  -1.202  1.00  0.00     0.060 C 
BRANCH  27  28
HETATM   28  C   UNL     1      39.391 -14.452  -2.724  1.00  0.00     0.002 C 
HETATM   29  C   UNL     1      37.964 -14.178  -3.173  1.00  0.00     0.005 C 
ENDBRANCH  27  28
ENDBRANCH  21  27
ENDBRANCH   1  19
BRANCH   3  30
HETATM   30  C   UNL     1      39.836  -9.825   5.542  1.00  0.00     0.035 A 
HETATM   31  S   UNL     1      40.141  -9.890   7.223  1.00  0.00    -0.100 SA
HETATM   32  C   UNL     1      39.444  -8.348   7.475  1.00  0.00     0.050 A 
HETATM   33  C   UNL     1      38.988  -7.792   6.301  1.00  0.00     0.008 A 
HETATM   34  C   UNL     1      39.216  -8.646   5.182  1.00  0.00     0.022 A 
ENDBRANCH   3  30
TORSDOF 6
ENDMDL
MODEL 9
REMARK VINA RESULT:      -8.6      3.964      8.376
REMARK  6 active torsions:
REMARK  status: ('A' for Active; 'I' for Inactive)
REMARK    1  A    between atoms: C_2  and  C_3 
REMARK    2  A    between atoms: C_3  and  C_4 
REMARK    3  A    between atoms: C_6  and  N_7 
REMARK    4  A    between atoms: C_9  and  C_10 
REMARK    5  A    between atoms: C_16  and  N_17 
REMARK       I    between atoms: N_17  and  C_18 
REMARK    6  A    between atoms: C_18  and  C_19 
ROOT
HETATM    1  N   UNL     1      42.384 -15.447   3.360  1.00  0.00    -0.044 N 
HETATM    2  N   UNL     1      42.805 -16.495   4.120  1.00  0.00    -0.150 NA
HETATM    3  C   UNL     1      43.068 -17.461   3.228  1.00  0.00     0.099 A 
HETATM    4  C   UNL     1      42.821 -17.033   1.901  1.00  0.00     0.086 A 
HETATM    5  C   UNL     1      42.363 -15.741   2.008  1.00  0.00     0.152 A 
ENDROOT
BRANCH   5   6
HETATM    6  N   UNL     1      41.933 -14.878   1.004  1.00  0.00    -0.305 N 
HETATM    7  C   UNL     1      40.594 -14.821   0.498  1.00  0.00     0.281 C 
HETATM    8  O   UNL     1      39.763 -15.654   0.824  1.00  0.00    -0.265 OA
HETATM    9  H   UNL     1      42.628 -14.254   0.585  1.00  0.00     0.170 HD
BRANCH   7  10
HETATM   10  C   UNL     1      40.373 -13.723  -0.407  1.00  0.00     0.144 A 
HETATM   11  O   UNL     1      41.111 -12.576  -0.256  1.00  0.00    -0.304 OA
HETATM   12  C   UNL     1      40.653 -11.685  -1.181  1.00  0.00     0.086 A 
HETATM   13  C   UNL     1      39.652 -12.260  -1.955  1.00  0.00     0.001 A 
HETATM   14  C   UNL     1      41.103 -10.377  -1.336  1.00  0.00     0.038 A 
HETATM   15  C   UNL     1      39.478 -13.573  -1.449  1.00  0.00     0.057 A 
HETATM   16  C   UNL     1      39.061 -11.491  -2.972  1.00  0.00     0.014 A 
HETATM   17  C   UNL     1      39.499 -10.171  -3.157  1.00  0.00     0.001 A 
HETATM   18  C   UNL     1      40.499  -9.626  -2.350  1.00  0.00     0.003 A 
ENDBRANCH   7  10
ENDBRANCH   5   6
BRANCH   1  19
HETATM   19  C   UNL     1      42.052 -14.224   3.960  1.00  0.00     0.732 A 
HETATM   20  N   UNL     1      40.934 -13.611   3.718  1.00  0.00    -0.067 NA
HETATM   21  C   UNL     1      40.766 -12.402   4.364  1.00  0.00     0.059 A 
HETATM   22  C   UNL     1      41.676 -11.866   5.195  1.00  0.00     0.102 A 
HETATM   23  C   UNL     1      42.925 -12.600   5.457  1.00  0.00     0.261 A 
HETATM   24  N   UNL     1      43.038 -13.780   4.795  1.00  0.00    -0.152 N 
HETATM   25  O   UNL     1      43.785 -12.160   6.207  1.00  0.00    -0.268 OA
HETATM   26  H   UNL     1      43.884 -14.329   4.922  1.00  0.00     0.187 HD
BRANCH  21  27
HETATM   27  C   UNL     1      39.488 -11.656   4.052  1.00  0.00     0.060 C 
BRANCH  27  28
HETATM   28  C   UNL     1      39.463 -11.142   2.612  1.00  0.00     0.002 C 
HETATM   29  C   UNL     1      38.293 -11.730   1.838  1.00  0.00     0.005 C 
ENDBRANCH  27  28
ENDBRANCH  21  27
ENDBRANCH   1  19
BRANCH   3  30
HETATM   30  C   UNL     1      43.551 -18.818   3.649  1.00  0.00     0.035 A 
HETATM   31  S   UNL     1      43.550 -20.195   2.636  1.00  0.00    -0.100 SA
HETATM   32  C   UNL     1      44.205 -21.183   3.870  1.00  0.00     0.050 A 
HETATM   33  C   UNL     1      44.422 -20.478   5.032  1.00  0.00     0.008 A 
HETATM   34  C   UNL     1      44.045 -19.109   4.904  1.00  0.00     0.022 A 
ENDBRANCH   3  30
TORSDOF 6
ENDMDL
MODEL 10
REMARK VINA RESULT:      -8.5      1.766      2.105
REMARK  6 active torsions:
REMARK  status: ('A' for Active; 'I' for Inactive)
REMARK    1  A    between atoms: C_2  and  C_3 
REMARK    2  A    between atoms: C_3  and  C_4 
REMARK    3  A    between atoms: C_6  and  N_7 
REMARK    4  A    between atoms: C_9  and  C_10 
REMARK    5  A    between atoms: C_16  and  N_17 
REMARK       I    between atoms: N_17  and  C_18 
REMARK    6  A    between atoms: C_18  and  C_19 
ROOT
HETATM    1  N   UNL     1      42.228 -11.002   4.972  1.00  0.00    -0.044 N 
HETATM    2  N   UNL     1      42.074  -9.781   5.554  1.00  0.00    -0.150 NA
HETATM    3  C   UNL     1      42.765  -9.877   6.700  1.00  0.00     0.099 A 
HETATM    4  C   UNL     1      43.362 -11.152   6.850  1.00  0.00     0.086 A 
HETATM    5  C   UNL     1      42.989 -11.868   5.737  1.00  0.00     0.152 A 
ENDROOT
BRANCH   5   6
HETATM    6  N   UNL     1      43.269 -13.193   5.414  1.00  0.00    -0.305 N 
HETATM    7  C   UNL     1      42.466 -14.313   5.803  1.00  0.00     0.281 C 
HETATM    8  O   UNL     1      41.543 -14.181   6.591  1.00  0.00    -0.265 OA
HETATM    9  H   UNL     1      44.120 -13.380   4.876  1.00  0.00     0.170 HD
BRANCH   7  10
HETATM   10  C   UNL     1      42.877 -15.549   5.190  1.00  0.00     0.144 A 
HETATM   11  O   UNL     1      42.552 -15.783   3.878  1.00  0.00    -0.304 OA
HETATM   12  C   UNL     1      42.989 -17.040   3.578  1.00  0.00     0.086 A 
HETATM   13  C   UNL     1      43.629 -17.606   4.675  1.00  0.00     0.001 A 
HETATM   14  C   UNL     1      42.818 -17.686   2.357  1.00  0.00     0.038 A 
HETATM   15  C   UNL     1      43.551 -16.638   5.709  1.00  0.00     0.057 A 
HETATM   16  C   UNL     1      44.155 -18.903   4.552  1.00  0.00     0.014 A 
HETATM   17  C   UNL     1      44.004 -19.577   3.332  1.00  0.00     0.001 A 
HETATM   18  C   UNL     1      43.344 -18.978   2.257  1.00  0.00     0.003 A 
ENDBRANCH   7  10
ENDBRANCH   5   6
BRANCH   1  19
HETATM   19  C   UNL     1      41.663 -11.264   3.715  1.00  0.00     0.732 A 
HETATM   20  N   UNL     1      40.785 -12.201   3.529  1.00  0.00    -0.067 NA
HETATM   21  C   UNL     1      40.347 -12.354   2.228  1.00  0.00     0.059 A 
HETATM   22  C   UNL     1      40.776 -11.602   1.201  1.00  0.00     0.102 A 
HETATM   23  C   UNL     1      41.762 -10.539   1.456  1.00  0.00     0.261 A 
HETATM   24  N   UNL     1      42.159 -10.434   2.750  1.00  0.00    -0.152 N 
HETATM   25  O   UNL     1      42.184  -9.823   0.559  1.00  0.00    -0.268 OA
HETATM   26  H   UNL     1      42.849  -9.728   2.990  1.00  0.00     0.187 HD
BRANCH  21  27
HETATM   27  C   UNL     1      39.358 -13.474   1.990  1.00  0.00     0.060 C 
BRANCH  27  28
HETATM   28  C   UNL     1      39.894 -14.822   2.477  1.00  0.00     0.002 C 
HETATM   29  C   UNL     1      39.875 -15.857   1.363  1.00  0.00     0.005 C 
ENDBRANCH  27  28
ENDBRANCH  21  27
ENDBRANCH   1  19
BRANCH   3  30
HETATM   30  C   UNL     1      42.846  -8.737   7.673  1.00  0.00     0.035 A 
HETATM   31  S   UNL     1      42.110  -7.213   7.433  1.00  0.00    -0.100 SA
HETATM   32  C   UNL     1      42.706  -6.618   8.922  1.00  0.00     0.050 A 
HETATM   33  C   UNL     1      43.449  -7.563   9.593  1.00  0.00     0.008 A 
HETATM   34  C   UNL     1      43.530  -8.790   8.870  1.00  0.00     0.022 A 
ENDBRANCH   3  30
TORSDOF 6
ENDMDL
