MODEL 1
REMARK VINA RESULT:      -8.8      0.000      0.000
REMARK  5 active torsions:
REMARK  status: ('A' for Active; 'I' for Inactive)
REMARK    1  A    between atoms: C_3  and  N_4 
REMARK       I    between atoms: N_4  and  C_5 
REMARK    2  A    between atoms: C_5  and  C_6 
REMARK    3  A    between atoms: C_14  and  C_15 
REMARK    4  A    between atoms: C_21  and  O_22 
REMARK    5  A    between atoms: C_24  and  O_25 
ROOT
HETATM    1  N   UNL     1      41.020 -15.035   2.414  1.00  0.00    -0.322 N 
HETATM    2  C   UNL     1      42.394 -15.097   2.584  1.00  0.00     0.257 C 
HETATM    3  O   UNL     1      43.239 -14.359   2.096  1.00  0.00    -0.267 OA
HETATM    4  H   UNL     1      40.499 -15.836   2.750  1.00  0.00     0.169 HD
ENDROOT
BRANCH   2   5
HETATM    5  C   UNL     1      42.861 -16.214   3.443  1.00  0.00     0.046 A 
HETATM    6  C   UNL     1      42.968 -16.106   4.852  1.00  0.00     0.008 A 
HETATM    7  C   UNL     1      43.507 -17.226   5.513  1.00  0.00     0.068 A 
HETATM    8  C   UNL     1      42.553 -14.992   5.630  1.00  0.00     0.015 A 
HETATM    9  C   UNL     1      43.686 -17.171   6.888  1.00  0.00     0.032 A 
HETATM   10  N   UNL     1      43.846 -18.358   4.876  1.00  0.00    -0.252 NA
HETATM   11  C   UNL     1      43.320 -16.053   7.640  1.00  0.00     0.002 A 
HETATM   12  C   UNL     1      42.737 -14.964   7.011  1.00  0.00     0.001 A 
HETATM   13  C   UNL     1      43.654 -18.461   3.539  1.00  0.00     0.039 A 
HETATM   14  C   UNL     1      43.178 -17.403   2.786  1.00  0.00     0.045 A 
BRANCH  13  15
HETATM   15  C   UNL     1      43.945 -19.800   2.891  1.00  0.00     0.029 C 
HETATM   16  C   UNL     1      43.943 -20.926   3.925  1.00  0.00     0.016 C 
HETATM   17  C   UNL     1      42.932 -20.082   1.779  1.00  0.00     0.016 C 
ENDBRANCH  13  15
ENDBRANCH   2   5
BRANCH   1  18
HETATM   18  C   UNL     1      40.351 -14.225   1.467  1.00  0.00     0.043 A 
HETATM   19  C   UNL     1      39.694 -13.021   1.754  1.00  0.00    -0.032 A 
HETATM   20  C   UNL     1      39.468 -12.492   3.143  1.00  0.00     0.050 C 
HETATM   21  C   UNL     1      39.153 -12.272   0.687  1.00  0.00     0.048 A 
HETATM   22  C   UNL     1      39.221 -12.724  -0.635  1.00  0.00     0.102 A 
HETATM   23  C   UNL     1      39.828 -13.959  -0.904  1.00  0.00     0.103 A 
HETATM   24  C   UNL     1      40.358 -14.711   0.149  1.00  0.00     0.069 A 
BRANCH  22  25
HETATM   25  O   UNL     1      38.725 -12.044  -1.719  1.00  0.00    -0.353 OA
HETATM   26  C   UNL     1      37.440 -11.452  -1.595  1.00  0.00     0.210 C 
ENDBRANCH  22  25
BRANCH  23  27
HETATM   27  O   UNL     1      39.849 -14.360  -2.219  1.00  0.00    -0.353 OA
HETATM   28  C   UNL     1      38.797 -15.210  -2.650  1.00  0.00     0.210 C 
ENDBRANCH  23  27
ENDBRANCH   1  18
TORSDOF 5
ENDMDL
MODEL 2
REMARK VINA RESULT:      -8.6      2.203      7.564
REMARK  5 active torsions:
REMARK  status: ('A' for Active; 'I' for Inactive)
REMARK    1  A    between atoms: C_3  and  N_4 
REMARK       I    between atoms: N_4  and  C_5 
REMARK    2  A    between atoms: C_5  and  C_6 
REMARK    3  A    between atoms: C_14  and  C_15 
REMARK    4  A    between atoms: C_21  and  O_22 
REMARK    5  A    between atoms: C_24  and  O_25 
ROOT
HETATM    1  N   UNL     1      42.035 -15.306   2.614  1.00  0.00    -0.322 N 
HETATM    2  C   UNL     1      40.663 -15.305   2.419  1.00  0.00     0.257 C 
HETATM    3  O   UNL     1      39.836 -16.047   2.930  1.00  0.00    -0.267 OA
HETATM    4  H   UNL     1      42.572 -14.738   1.969  1.00  0.00     0.169 HD
ENDROOT
BRANCH   2   5
HETATM    5  C   UNL     1      40.177 -14.287   1.453  1.00  0.00     0.046 A 
HETATM    6  C   UNL     1      39.650 -13.035   1.857  1.00  0.00     0.008 A 
HETATM    7  C   UNL     1      39.154 -12.217   0.824  1.00  0.00     0.068 A 
HETATM    8  C   UNL     1      39.614 -12.543   3.190  1.00  0.00     0.015 A 
HETATM    9  C   UNL     1      38.579 -10.998   1.152  1.00  0.00     0.032 A 
HETATM   10  N   UNL     1      39.224 -12.555  -0.474  1.00  0.00    -0.252 NA
HETATM   11  C   UNL     1      38.504 -10.543   2.470  1.00  0.00     0.002 A 
HETATM   12  C   UNL     1      39.037 -11.313   3.492  1.00  0.00     0.001 A 
HETATM   13  C   UNL     1      39.809 -13.722  -0.834  1.00  0.00     0.039 A 
HETATM   14  C   UNL     1      40.284 -14.621   0.103  1.00  0.00     0.045 A 
BRANCH  13  15
HETATM   15  C   UNL     1      39.965 -13.998  -2.316  1.00  0.00     0.029 C 
HETATM   16  C   UNL     1      38.758 -14.759  -2.867  1.00  0.00     0.016 C 
HETATM   17  C   UNL     1      40.178 -12.690  -3.081  1.00  0.00     0.016 C 
ENDBRANCH  13  15
ENDBRANCH   2   5
BRANCH   1  18
HETATM   18  C   UNL     1      42.761 -16.315   3.288  1.00  0.00     0.043 A 
HETATM   19  C   UNL     1      43.062 -16.317   4.657  1.00  0.00    -0.032 A 
HETATM   20  C   UNL     1      42.790 -15.163   5.583  1.00  0.00     0.050 C 
HETATM   21  C   UNL     1      43.712 -17.442   5.208  1.00  0.00     0.048 A 
HETATM   22  C   UNL     1      44.099 -18.527   4.415  1.00  0.00     0.102 A 
HETATM   23  C   UNL     1      43.847 -18.489   3.036  1.00  0.00     0.103 A 
HETATM   24  C   UNL     1      43.211 -17.373   2.481  1.00  0.00     0.069 A 
BRANCH  22  25
HETATM   25  O   UNL     1      44.726 -19.653   4.885  1.00  0.00    -0.353 OA
HETATM   26  C   UNL     1      43.933 -20.612   5.570  1.00  0.00     0.210 C 
ENDBRANCH  22  25
BRANCH  23  27
HETATM   27  O   UNL     1      44.266 -19.574   2.305  1.00  0.00    -0.353 OA
HETATM   28  C   UNL     1      43.257 -20.432   1.790  1.00  0.00     0.210 C 
ENDBRANCH  23  27
ENDBRANCH   1  18
TORSDOF 5
ENDMDL
MODEL 3
REMARK VINA RESULT:      -8.0      2.155      4.378
REMARK  5 active torsions:
REMARK  status: ('A' for Active; 'I' for Inactive)
REMARK    1  A    between atoms: C_3  and  N_4 
REMARK       I    between atoms: N_4  and  C_5 
REMARK    2  A    between atoms: C_5  and  C_6 
REMARK    3  A    between atoms: C_14  and  C_15 
REMARK    4  A    between atoms: C_21  and  O_22 
REMARK    5  A    between atoms: C_24  and  O_25 
ROOT
HETATM    1  N   UNL     1      41.504 -13.595   2.402  1.00  0.00    -0.322 N 
HETATM    2  C   UNL     1      42.783 -14.022   2.721  1.00  0.00     0.257 C 
HETATM    3  O   UNL     1      43.680 -14.334   1.950  1.00  0.00    -0.267 OA
HETATM    4  H   UNL     1      40.848 -13.556   3.173  1.00  0.00     0.169 HD
ENDROOT
BRANCH   2   5
HETATM    5  C   UNL     1      43.056 -14.123   4.178  1.00  0.00     0.046 A 
HETATM    6  C   UNL     1      43.202 -15.362   4.848  1.00  0.00     0.008 A 
HETATM    7  C   UNL     1      43.373 -15.288   6.243  1.00  0.00     0.068 A 
HETATM    8  C   UNL     1      43.218 -16.641   4.228  1.00  0.00     0.015 A 
HETATM    9  C   UNL     1      43.474 -16.465   6.970  1.00  0.00     0.032 A 
HETATM   10  N   UNL     1      43.460 -14.124   6.908  1.00  0.00    -0.252 NA
HETATM   11  C   UNL     1      43.440 -17.720   6.359  1.00  0.00     0.002 A 
HETATM   12  C   UNL     1      43.327 -17.808   4.981  1.00  0.00     0.001 A 
HETATM   13  C   UNL     1      43.401 -12.955   6.227  1.00  0.00     0.039 A 
HETATM   14  C   UNL     1      43.184 -12.914   4.863  1.00  0.00     0.045 A 
BRANCH  13  15
HETATM   15  C   UNL     1      43.621 -11.677   7.012  1.00  0.00     0.029 C 
HETATM   16  C   UNL     1      45.110 -11.339   7.111  1.00  0.00     0.016 C 
HETATM   17  C   UNL     1      42.843 -10.523   6.376  1.00  0.00     0.016 C 
ENDBRANCH  13  15
ENDBRANCH   2   5
BRANCH   1  18
HETATM   18  C   UNL     1      40.927 -13.644   1.112  1.00  0.00     0.043 A 
HETATM   19  C   UNL     1      40.183 -14.715   0.599  1.00  0.00    -0.032 A 
HETATM   20  C   UNL     1      40.021 -16.040   1.292  1.00  0.00     0.050 C 
HETATM   21  C   UNL     1      39.587 -14.580  -0.674  1.00  0.00     0.048 A 
HETATM   22  C   UNL     1      39.759 -13.427  -1.446  1.00  0.00     0.102 A 
HETATM   23  C   UNL     1      40.555 -12.385  -0.949  1.00  0.00     0.103 A 
HETATM   24  C   UNL     1      41.156 -12.515   0.307  1.00  0.00     0.069 A 
BRANCH  22  25
HETATM   25  O   UNL     1      39.203 -13.227  -2.684  1.00  0.00    -0.353 OA
HETATM   26  C   UNL     1      38.473 -14.299  -3.261  1.00  0.00     0.210 C 
ENDBRANCH  22  25
BRANCH  23  27
HETATM   27  O   UNL     1      40.702 -11.285  -1.758  1.00  0.00    -0.353 OA
HETATM   28  C   UNL     1      41.494 -10.217  -1.257  1.00  0.00     0.210 C 
ENDBRANCH  23  27
ENDBRANCH   1  18
TORSDOF 5
ENDMDL
MODEL 4
REMARK VINA RESULT:      -7.9      1.763      2.211
REMARK  5 active torsions:
REMARK  status: ('A' for Active; 'I' for Inactive)
REMARK    1  A    between atoms: C_3  and  N_4 
REMARK       I    between atoms: N_4  and  C_5 
REMARK    2  A    between atoms: C_5  and  C_6 
REMARK    3  A    between atoms: C_14  and  C_15 
REMARK    4  A    between atoms: C_21  and  O_22 
REMARK    5  A    between atoms: C_24  and  O_25 
ROOT
HETATM    1  N   UNL     1      41.548 -14.142   0.876  1.00  0.00    -0.322 N 
HETATM    2  C   UNL     1      40.881 -14.724   1.942  1.00  0.00     0.257 C 
HETATM    3  O   UNL     1      39.673 -14.767   2.132  1.00  0.00    -0.267 OA
HETATM    4  H   UNL     1      42.551 -14.049   0.983  1.00  0.00     0.169 HD
ENDROOT
BRANCH   2   5
HETATM    5  C   UNL     1      41.765 -15.337   2.965  1.00  0.00     0.046 A 
HETATM    6  C   UNL     1      42.221 -14.635   4.108  1.00  0.00     0.008 A 
HETATM    7  C   UNL     1      43.121 -15.331   4.937  1.00  0.00     0.068 A 
HETATM    8  C   UNL     1      41.823 -13.324   4.486  1.00  0.00     0.015 A 
HETATM    9  C   UNL     1      43.646 -14.686   6.048  1.00  0.00     0.032 A 
HETATM   10  N   UNL     1      43.488 -16.603   4.712  1.00  0.00    -0.252 NA
HETATM   11  C   UNL     1      43.286 -13.379   6.386  1.00  0.00     0.002 A 
HETATM   12  C   UNL     1      42.360 -12.701   5.610  1.00  0.00     0.001 A 
HETATM   13  C   UNL     1      42.969 -17.276   3.657  1.00  0.00     0.039 A 
HETATM   14  C   UNL     1      42.116 -16.671   2.753  1.00  0.00     0.045 A 
BRANCH  13  15
HETATM   15  C   UNL     1      43.327 -18.742   3.519  1.00  0.00     0.029 C 
HETATM   16  C   UNL     1      43.299 -19.182   2.054  1.00  0.00     0.016 C 
HETATM   17  C   UNL     1      44.697 -19.015   4.142  1.00  0.00     0.016 C 
ENDBRANCH  13  15
ENDBRANCH   2   5
BRANCH   1  18
HETATM   18  C   UNL     1      40.957 -13.298  -0.092  1.00  0.00     0.043 A 
HETATM   19  C   UNL     1      40.879 -11.901  -0.008  1.00  0.00    -0.032 A 
HETATM   20  C   UNL     1      41.275 -11.104   1.205  1.00  0.00     0.050 C 
HETATM   21  C   UNL     1      40.344 -11.184  -1.099  1.00  0.00     0.048 A 
HETATM   22  C   UNL     1      39.854 -11.835  -2.236  1.00  0.00     0.102 A 
HETATM   23  C   UNL     1      39.882 -13.236  -2.285  1.00  0.00     0.103 A 
HETATM   24  C   UNL     1      40.401 -13.954  -1.203  1.00  0.00     0.069 A 
BRANCH  22  25
HETATM   25  O   UNL     1      39.330 -11.201  -3.333  1.00  0.00    -0.353 OA
HETATM   26  C   UNL     1      39.648  -9.829  -3.518  1.00  0.00     0.210 C 
ENDBRANCH  22  25
BRANCH  23  27
HETATM   27  O   UNL     1      39.370 -13.821  -3.418  1.00  0.00    -0.353 OA
HETATM   28  C   UNL     1      38.325 -14.767  -3.240  1.00  0.00     0.210 C 
ENDBRANCH  23  27
ENDBRANCH   1  18
TORSDOF 5
ENDMDL
MODEL 5
REMARK VINA RESULT:      -7.8      2.407      8.032
REMARK  5 active torsions:
REMARK  status: ('A' for Active; 'I' for Inactive)
REMARK    1  A    between atoms: C_3  and  N_4 
REMARK       I    between atoms: N_4  and  C_5 
REMARK    2  A    between atoms: C_5  and  C_6 
REMARK    3  A    between atoms: C_14  and  C_15 
REMARK    4  A    between atoms: C_21  and  O_22 
REMARK    5  A    between atoms: C_24  and  O_25 
ROOT
HETATM    1  N   UNL     1      42.484 -15.056   3.402  1.00  0.00    -0.322 N 
HETATM    2  C   UNL     1      41.132 -14.791   3.559  1.00  0.00     0.257 C 
HETATM    3  O   UNL     1      40.327 -15.404   4.246  1.00  0.00    -0.267 OA
HETATM    4  H   UNL     1      42.947 -14.552   2.655  1.00  0.00     0.169 HD
ENDROOT
BRANCH   2   5
HETATM    5  C   UNL     1      40.632 -13.637   2.769  1.00  0.00     0.046 A 
HETATM    6  C   UNL     1      40.194 -13.757   1.428  1.00  0.00     0.008 A 
HETATM    7  C   UNL     1      39.830 -12.555   0.793  1.00  0.00     0.068 A 
HETATM    8  C   UNL     1      40.068 -14.974   0.704  1.00  0.00     0.015 A 
HETATM    9  C   UNL     1      39.436 -12.591  -0.538  1.00  0.00     0.032 A 
HETATM   10  N   UNL     1      39.829 -11.367   1.420  1.00  0.00    -0.252 NA
HETATM   11  C   UNL     1      39.362 -13.786  -1.257  1.00  0.00     0.002 A 
HETATM   12  C   UNL     1      39.665 -14.984  -0.630  1.00  0.00     0.001 A 
HETATM   13  C   UNL     1      40.174 -11.298   2.728  1.00  0.00     0.039 A 
HETATM   14  C   UNL     1      40.596 -12.410   3.432  1.00  0.00     0.045 A 
BRANCH  13  15
HETATM   15  C   UNL     1      40.044  -9.953   3.415  1.00  0.00     0.029 C 
HETATM   16  C   UNL     1      38.776  -9.889   4.268  1.00  0.00     0.016 C 
HETATM   17  C   UNL     1      41.285  -9.669   4.264  1.00  0.00     0.016 C 
ENDBRANCH  13  15
ENDBRANCH   2   5
BRANCH   1  18
HETATM   18  C   UNL     1      43.142 -16.225   3.850  1.00  0.00     0.043 A 
HETATM   19  C   UNL     1      43.613 -16.438   5.152  1.00  0.00    -0.032 A 
HETATM   20  C   UNL     1      43.626 -15.388   6.229  1.00  0.00     0.050 C 
HETATM   21  C   UNL     1      44.165 -17.696   5.477  1.00  0.00     0.048 A 
HETATM   22  C   UNL     1      44.292 -18.710   4.523  1.00  0.00     0.102 A 
HETATM   23  C   UNL     1      43.872 -18.466   3.207  1.00  0.00     0.103 A 
HETATM   24  C   UNL     1      43.333 -17.219   2.875  1.00  0.00     0.069 A 
BRANCH  22  25
HETATM   25  O   UNL     1      44.810 -19.956   4.771  1.00  0.00    -0.353 OA
HETATM   26  C   UNL     1      43.998 -20.879   5.481  1.00  0.00     0.210 C 
ENDBRANCH  22  25
BRANCH  23  27
HETATM   27  O   UNL     1      44.038 -19.492   2.308  1.00  0.00    -0.353 OA
HETATM   28  C   UNL     1      42.869 -20.193   1.909  1.00  0.00     0.210 C 
ENDBRANCH  23  27
ENDBRANCH   1  18
TORSDOF 5
ENDMDL
MODEL 6
REMARK VINA RESULT:      -7.7      1.683      2.611
REMARK  5 active torsions:
REMARK  status: ('A' for Active; 'I' for Inactive)
REMARK    1  A    between atoms: C_3  and  N_4 
REMARK       I    between atoms: N_4  and  C_5 
REMARK    2  A    between atoms: C_5  and  C_6 
REMARK    3  A    between atoms: C_14  and  C_15 
REMARK    4  A    between atoms: C_21  and  O_22 
REMARK    5  A    between atoms: C_24  and  O_25 
ROOT
HETATM    1  N   UNL     1      41.165 -14.431   1.125  1.00  0.00    -0.322 N 
HETATM    2  C   UNL     1      40.686 -15.328   2.066  1.00  0.00     0.257 C 
HETATM    3  O   UNL     1      39.520 -15.627   2.285  1.00  0.00    -0.267 OA
HETATM    4  H   UNL     1      42.143 -14.182   1.213  1.00  0.00     0.169 HD
ENDROOT
BRANCH   2   5
HETATM    5  C   UNL     1      41.734 -15.966   2.903  1.00  0.00     0.046 A 
HETATM    6  C   UNL     1      42.203 -15.396   4.112  1.00  0.00     0.008 A 
HETATM    7  C   UNL     1      43.258 -16.081   4.743  1.00  0.00     0.068 A 
HETATM    8  C   UNL     1      41.681 -14.229   4.734  1.00  0.00     0.015 A 
HETATM    9  C   UNL     1      43.801 -15.553   5.906  1.00  0.00     0.032 A 
HETATM   10  N   UNL     1      43.759 -17.238   4.281  1.00  0.00    -0.252 NA
HETATM   11  C   UNL     1      43.314 -14.379   6.486  1.00  0.00     0.002 A 
HETATM   12  C   UNL     1      42.240 -13.722   5.905  1.00  0.00     0.001 A 
HETATM   13  C   UNL     1      43.232 -17.802   3.168  1.00  0.00     0.039 A 
HETATM   14  C   UNL     1      42.227 -17.187   2.444  1.00  0.00     0.045 A 
BRANCH  13  15
HETATM   15  C   UNL     1      43.756 -19.164   2.758  1.00  0.00     0.029 C 
HETATM   16  C   UNL     1      44.135 -20.001   3.981  1.00  0.00     0.016 C 
HETATM   17  C   UNL     1      42.722 -19.894   1.899  1.00  0.00     0.016 C 
ENDBRANCH  13  15
ENDBRANCH   2   5
BRANCH   1  18
HETATM   18  C   UNL     1      40.371 -13.530   0.380  1.00  0.00     0.043 A 
HETATM   19  C   UNL     1      39.510 -13.886  -0.668  1.00  0.00    -0.032 A 
HETATM   20  C   UNL     1      39.425 -15.267  -1.258  1.00  0.00     0.050 C 
HETATM   21  C   UNL     1      38.707 -12.886  -1.256  1.00  0.00     0.048 A 
HETATM   22  C   UNL     1      38.781 -11.550  -0.849  1.00  0.00     0.102 A 
HETATM   23  C   UNL     1      39.689 -11.194   0.159  1.00  0.00     0.103 A 
HETATM   24  C   UNL     1      40.495 -12.178   0.741  1.00  0.00     0.069 A 
BRANCH  22  25
HETATM   25  O   UNL     1      38.025 -10.532  -1.370  1.00  0.00    -0.353 OA
HETATM   26  C   UNL     1      37.251 -10.810  -2.528  1.00  0.00     0.210 C 
ENDBRANCH  22  25
BRANCH  23  27
HETATM   27  O   UNL     1      39.731  -9.865   0.506  1.00  0.00    -0.353 OA
HETATM   28  C   UNL     1      41.007  -9.318   0.809  1.00  0.00     0.210 C 
ENDBRANCH  23  27
ENDBRANCH   1  18
TORSDOF 5
ENDMDL
MODEL 7
REMARK VINA RESULT:      -7.6      3.977      7.461
REMARK  5 active torsions:
REMARK  status: ('A' for Active; 'I' for Inactive)
REMARK    1  A    between atoms: C_3  and  N_4 
REMARK       I    between atoms: N_4  and  C_5 
REMARK    2  A    between atoms: C_5  and  C_6 
REMARK    3  A    between atoms: C_14  and  C_15 
REMARK    4  A    between atoms: C_21  and  O_22 
REMARK    5  A    between atoms: C_24  and  O_25 
ROOT
HETATM    1  N   UNL     1      42.642 -14.002   5.511  1.00  0.00    -0.322 N 
HETATM    2  C   UNL     1      43.044 -12.740   5.103  1.00  0.00     0.257 C 
HETATM    3  O   UNL     1      43.416 -12.401   3.987  1.00  0.00    -0.267 OA
HETATM    4  H   UNL     1      42.543 -14.129   6.511  1.00  0.00     0.169 HD
ENDROOT
BRANCH   2   5
HETATM    5  C   UNL     1      43.034 -11.710   6.172  1.00  0.00     0.046 A 
HETATM    6  C   UNL     1      41.880 -10.959   6.504  1.00  0.00     0.008 A 
HETATM    7  C   UNL     1      42.057  -9.964   7.484  1.00  0.00     0.068 A 
HETATM    8  C   UNL     1      40.581 -11.153   5.959  1.00  0.00     0.015 A 
HETATM    9  C   UNL     1      40.980  -9.158   7.823  1.00  0.00     0.032 A 
HETATM   10  N   UNL     1      43.222  -9.764   8.121  1.00  0.00    -0.252 NA
HETATM   11  C   UNL     1      39.718  -9.322   7.246  1.00  0.00     0.002 A 
HETATM   12  C   UNL     1      39.515 -10.333   6.321  1.00  0.00     0.001 A 
HETATM   13  C   UNL     1      44.285 -10.555   7.841  1.00  0.00     0.039 A 
HETATM   14  C   UNL     1      44.233 -11.529   6.861  1.00  0.00     0.045 A 
BRANCH  13  15
HETATM   15  C   UNL     1      45.538 -10.362   8.672  1.00  0.00     0.029 C 
HETATM   16  C   UNL     1      46.435  -9.276   8.076  1.00  0.00     0.016 C 
HETATM   17  C   UNL     1      45.170 -10.028  10.119  1.00  0.00     0.016 C 
ENDBRANCH  13  15
ENDBRANCH   2   5
BRANCH   1  18
HETATM   18  C   UNL     1      42.788 -15.188   4.756  1.00  0.00     0.043 A 
HETATM   19  C   UNL     1      43.632 -16.257   5.086  1.00  0.00    -0.032 A 
HETATM   20  C   UNL     1      44.626 -16.232   6.215  1.00  0.00     0.050 C 
HETATM   21  C   UNL     1      43.601 -17.419   4.285  1.00  0.00     0.048 A 
HETATM   22  C   UNL     1      42.784 -17.509   3.153  1.00  0.00     0.102 A 
HETATM   23  C   UNL     1      41.988 -16.410   2.798  1.00  0.00     0.103 A 
HETATM   24  C   UNL     1      42.021 -15.252   3.581  1.00  0.00     0.069 A 
BRANCH  22  25
HETATM   25  O   UNL     1      42.698 -18.608   2.338  1.00  0.00    -0.353 OA
HETATM   26  C   UNL     1      43.646 -19.647   2.529  1.00  0.00     0.210 C 
ENDBRANCH  22  25
BRANCH  23  27
HETATM   27  O   UNL     1      41.220 -16.548   1.666  1.00  0.00    -0.353 OA
HETATM   28  C   UNL     1      40.040 -15.761   1.588  1.00  0.00     0.210 C 
ENDBRANCH  23  27
ENDBRANCH   1  18
TORSDOF 5
ENDMDL
MODEL 8
REMARK VINA RESULT:      -7.5      1.200      3.482
REMARK  5 active torsions:
REMARK  status: ('A' for Active; 'I' for Inactive)
REMARK    1  A    between atoms: C_3  and  N_4 
REMARK       I    between atoms: N_4  and  C_5 
REMARK    2  A    between atoms: C_5  and  C_6 
REMARK    3  A    between atoms: C_14  and  C_15 
REMARK    4  A    between atoms: C_21  and  O_22 
REMARK    5  A    between atoms: C_24  and  O_25 
ROOT
HETATM    1  N   UNL     1      40.764 -14.073   2.487  1.00  0.00    -0.322 N 
HETATM    2  C   UNL     1      42.150 -14.092   2.508  1.00  0.00     0.257 C 
HETATM    3  O   UNL     1      42.915 -13.468   1.786  1.00  0.00    -0.267 OA
HETATM    4  H   UNL     1      40.307 -14.789   3.039  1.00  0.00     0.169 HD
ENDROOT
BRANCH   2   5
HETATM    5  C   UNL     1      42.741 -15.002   3.522  1.00  0.00     0.046 A 
HETATM    6  C   UNL     1      43.067 -16.352   3.244  1.00  0.00     0.008 A 
HETATM    7  C   UNL     1      43.541 -17.105   4.335  1.00  0.00     0.068 A 
HETATM    8  C   UNL     1      42.984 -16.979   1.971  1.00  0.00     0.015 A 
HETATM    9  C   UNL     1      43.834 -18.448   4.147  1.00  0.00     0.032 A 
HETATM   10  N   UNL     1      43.739 -16.580   5.555  1.00  0.00    -0.252 NA
HETATM   11  C   UNL     1      43.703 -19.069   2.903  1.00  0.00     0.002 A 
HETATM   12  C   UNL     1      43.290 -18.327   1.807  1.00  0.00     0.001 A 
HETATM   13  C   UNL     1      43.497 -15.264   5.768  1.00  0.00     0.039 A 
HETATM   14  C   UNL     1      42.983 -14.447   4.778  1.00  0.00     0.045 A 
BRANCH  13  15
HETATM   15  C   UNL     1      43.848 -14.700   7.130  1.00  0.00     0.029 C 
HETATM   16  C   UNL     1      43.610 -13.190   7.180  1.00  0.00     0.016 C 
HETATM   17  C   UNL     1      43.047 -15.412   8.222  1.00  0.00     0.016 C 
ENDBRANCH  13  15
ENDBRANCH   2   5
BRANCH   1  18
HETATM   18  C   UNL     1      39.973 -13.482   1.476  1.00  0.00     0.043 A 
HETATM   19  C   UNL     1      39.193 -12.328   1.630  1.00  0.00    -0.032 A 
HETATM   20  C   UNL     1      38.959 -11.636   2.945  1.00  0.00     0.050 C 
HETATM   21  C   UNL     1      38.530 -11.800   0.501  1.00  0.00     0.048 A 
HETATM   22  C   UNL     1      38.601 -12.423  -0.749  1.00  0.00     0.102 A 
HETATM   23  C   UNL     1      39.336 -13.610  -0.879  1.00  0.00     0.103 A 
HETATM   24  C   UNL     1      39.987 -14.145   0.237  1.00  0.00     0.069 A 
BRANCH  22  25
HETATM   25  O   UNL     1      37.991 -11.960  -1.887  1.00  0.00    -0.353 OA
HETATM   26  C   UNL     1      38.436 -10.721  -2.418  1.00  0.00     0.210 C 
ENDBRANCH  22  25
BRANCH  23  27
HETATM   27  O   UNL     1      39.354 -14.187  -2.127  1.00  0.00    -0.353 OA
HETATM   28  C   UNL     1      40.463 -13.883  -2.961  1.00  0.00     0.210 C 
ENDBRANCH  23  27
ENDBRANCH   1  18
TORSDOF 5
ENDMDL
MODEL 9
REMARK VINA RESULT:      -7.5      3.431      7.524
REMARK  5 active torsions:
REMARK  status: ('A' for Active; 'I' for Inactive)
REMARK    1  A    between atoms: C_3  and  N_4 
REMARK       I    between atoms: N_4  and  C_5 
REMARK    2  A    between atoms: C_5  and  C_6 
REMARK    3  A    between atoms: C_14  and  C_15 
REMARK    4  A    between atoms: C_21  and  O_22 
REMARK    5  A    between atoms: C_24  and  O_25 
ROOT
HETATM    1  N   UNL     1      42.872 -14.631   4.405  1.00  0.00    -0.322 N 
HETATM    2  C   UNL     1      41.828 -14.228   5.222  1.00  0.00     0.257 C 
HETATM    3  O   UNL     1      41.008 -14.937   5.789  1.00  0.00    -0.267 OA
HETATM    4  H   UNL     1      43.332 -13.894   3.883  1.00  0.00     0.169 HD
ENDROOT
BRANCH   2   5
HETATM    5  C   UNL     1      41.705 -12.757   5.389  1.00  0.00     0.046 A 
HETATM    6  C   UNL     1      42.615 -11.993   6.159  1.00  0.00     0.008 A 
HETATM    7  C   UNL     1      42.312 -10.625   6.287  1.00  0.00     0.068 A 
HETATM    8  C   UNL     1      43.799 -12.486   6.772  1.00  0.00     0.015 A 
HETATM    9  C   UNL     1      43.133  -9.825   7.069  1.00  0.00     0.032 A 
HETATM   10  N   UNL     1      41.266 -10.047   5.673  1.00  0.00    -0.252 NA
HETATM   11  C   UNL     1      44.269 -10.328   7.707  1.00  0.00     0.002 A 
HETATM   12  C   UNL     1      44.611 -11.662   7.547  1.00  0.00     0.001 A 
HETATM   13  C   UNL     1      40.462 -10.789   4.875  1.00  0.00     0.039 A 
HETATM   14  C   UNL     1      40.642 -12.151   4.720  1.00  0.00     0.045 A 
BRANCH  13  15
HETATM   15  C   UNL     1      39.368 -10.063   4.115  1.00  0.00     0.029 C 
HETATM   16  C   UNL     1      38.776 -10.950   3.019  1.00  0.00     0.016 C 
HETATM   17  C   UNL     1      38.278  -9.589   5.079  1.00  0.00     0.016 C 
ENDBRANCH  13  15
ENDBRANCH   2   5
BRANCH   1  18
HETATM   18  C   UNL     1      43.055 -15.940   3.903  1.00  0.00     0.043 A 
HETATM   19  C   UNL     1      42.799 -16.344   2.585  1.00  0.00    -0.032 A 
HETATM   20  C   UNL     1      42.141 -15.476   1.548  1.00  0.00     0.050 C 
HETATM   21  C   UNL     1      43.121 -17.665   2.205  1.00  0.00     0.048 A 
HETATM   22  C   UNL     1      43.645 -18.584   3.119  1.00  0.00     0.102 A 
HETATM   23  C   UNL     1      43.841 -18.188   4.450  1.00  0.00     0.103 A 
HETATM   24  C   UNL     1      43.516 -16.884   4.836  1.00  0.00     0.069 A 
BRANCH  22  25
HETATM   25  O   UNL     1      43.987 -19.877   2.816  1.00  0.00    -0.353 OA
HETATM   26  C   UNL     1      43.546 -20.403   1.573  1.00  0.00     0.210 C 
ENDBRANCH  22  25
BRANCH  23  27
HETATM   27  O   UNL     1      44.341 -19.138   5.307  1.00  0.00    -0.353 OA
HETATM   28  C   UNL     1      43.463 -19.628   6.310  1.00  0.00     0.210 C 
ENDBRANCH  23  27
ENDBRANCH   1  18
TORSDOF 5
ENDMDL
MODEL 10
REMARK VINA RESULT:      -7.3      2.277      4.559
REMARK  5 active torsions:
REMARK  status: ('A' for Active; 'I' for Inactive)
REMARK    1  A    between atoms: C_3  and  N_4 
REMARK       I    between atoms: N_4  and  C_5 
REMARK    2  A    between atoms: C_5  and  C_6 
REMARK    3  A    between atoms: C_14  and  C_15 
REMARK    4  A    between atoms: C_21  and  O_22 
REMARK    5  A    between atoms: C_24  and  O_25 
ROOT
HETATM    1  N   UNL     1      41.369 -13.481   0.846  1.00  0.00    -0.322 N 
HETATM    2  C   UNL     1      40.731 -13.867   2.014  1.00  0.00     0.257 C 
HETATM    3  O   UNL     1      39.527 -13.899   2.230  1.00  0.00    -0.267 OA
HETATM    4  H   UNL     1      42.371 -13.348   0.916  1.00  0.00     0.169 HD
ENDROOT
BRANCH   2   5
HETATM    5  C   UNL     1      41.643 -14.257   3.118  1.00  0.00     0.046 A 
HETATM    6  C   UNL     1      42.301 -15.511   3.164  1.00  0.00     0.008 A 
HETATM    7  C   UNL     1      43.065 -15.760   4.320  1.00  0.00     0.068 A 
HETATM    8  C   UNL     1      42.273 -16.498   2.142  1.00  0.00     0.015 A 
HETATM    9  C   UNL     1      43.698 -16.987   4.454  1.00  0.00     0.032 A 
HETATM   10  N   UNL     1      43.226 -14.855   5.299  1.00  0.00    -0.252 NA
HETATM   11  C   UNL     1      43.625 -17.972   3.466  1.00  0.00     0.002 A 
HETATM   12  C   UNL     1      42.922 -17.721   2.299  1.00  0.00     0.001 A 
HETATM   13  C   UNL     1      42.652 -13.634   5.187  1.00  0.00     0.039 A 
HETATM   14  C   UNL     1      41.841 -13.304   4.117  1.00  0.00     0.045 A 
BRANCH  13  15
HETATM   15  C   UNL     1      42.962 -12.613   6.264  1.00  0.00     0.029 C 
HETATM   16  C   UNL     1      44.433 -12.676   6.678  1.00  0.00     0.016 C 
HETATM   17  C   UNL     1      42.591 -11.208   5.787  1.00  0.00     0.016 C 
ENDBRANCH  13  15
ENDBRANCH   2   5
BRANCH   1  18
HETATM   18  C   UNL     1      40.745 -12.848  -0.253  1.00  0.00     0.043 A 
HETATM   19  C   UNL     1      39.847 -13.462  -1.137  1.00  0.00    -0.032 A 
HETATM   20  C   UNL     1      39.537 -14.933  -1.139  1.00  0.00     0.050 C 
HETATM   21  C   UNL     1      39.229 -12.675  -2.132  1.00  0.00     0.048 A 
HETATM   22  C   UNL     1      39.523 -11.315  -2.281  1.00  0.00     0.102 A 
HETATM   23  C   UNL     1      40.467 -10.724  -1.429  1.00  0.00     0.103 A 
HETATM   24  C   UNL     1      41.091 -11.500  -0.447  1.00  0.00     0.069 A 
BRANCH  22  25
HETATM   25  O   UNL     1      38.953 -10.492  -3.218  1.00  0.00    -0.353 OA
HETATM   26  C   UNL     1      37.557 -10.253  -3.126  1.00  0.00     0.210 C 
ENDBRANCH  22  25
BRANCH  23  27
HETATM   27  O   UNL     1      40.729  -9.391  -1.634  1.00  0.00    -0.353 OA
HETATM   28  C   UNL     1      42.087  -8.981  -1.556  1.00  0.00     0.210 C 
ENDBRANCH  23  27
ENDBRANCH   1  18
TORSDOF 5
ENDMDL
