MODEL 1
REMARK VINA RESULT:      -9.1      0.000      0.000
REMARK  2 active torsions:
REMARK  status: ('A' for Active; 'I' for Inactive)
REMARK       I    between atoms: N_5  and  C_6 
REMARK    1  A    between atoms: C_6  and  C_7 
REMARK    2  A    between atoms: N_11  and  C_12 
ROOT
HETATM    1  C   UNL     1      39.408 -13.296  -1.577  1.00  0.00     0.050 C 
HETATM    2  C   UNL     1      39.987 -13.851  -0.306  1.00  0.00    -0.030 A 
HETATM    3  C   UNL     1      40.764 -13.078   0.579  1.00  0.00     0.087 A 
HETATM    4  C   UNL     1      41.272 -13.660   1.758  1.00  0.00     0.160 A 
HETATM    5  N   UNL     1      42.100 -12.897   2.629  1.00  0.00    -0.287 N 
HETATM    6  C   UNL     1      42.680 -13.319   3.840  1.00  0.00     0.263 C 
HETATM    7  O   UNL     1      43.171 -12.485   4.607  1.00  0.00    -0.267 OA
HETATM    8  C   UNL     1      42.246 -11.469   2.370  1.00  0.00     0.237 C 
HETATM    9  C   UNL     1      41.712 -10.895   1.074  1.00  0.00     0.240 C 
HETATM   10  O   UNL     1      41.860  -9.715   0.759  1.00  0.00    -0.271 OA
HETATM   11  N   UNL     1      41.009 -11.735   0.269  1.00  0.00    -0.322 N 
HETATM   12  N   UNL     1      40.974 -14.935   2.069  1.00  0.00    -0.241 NA
HETATM   13  C   UNL     1      40.225 -15.667   1.219  1.00  0.00     0.119 A 
HETATM   14  C   UNL     1      39.722 -15.178   0.033  1.00  0.00     0.028 A 
HETATM   15  H   UNL     1      40.638 -11.314  -0.573  1.00  0.00     0.169 HD
ENDROOT
BRANCH   6  16
HETATM   16  C   UNL     1      42.722 -14.715   4.241  1.00  0.00     0.076 C 
HETATM   17  C   UNL     1      42.041 -15.309   5.335  1.00  0.00     0.068 C 
HETATM   18  C   UNL     1      41.137 -14.651   6.311  1.00  0.00     0.073 C 
HETATM   19  N   UNL     1      42.285 -16.620   5.427  1.00  0.00    -0.172 NA
HETATM   20  N   UNL     1      43.105 -16.897   4.382  1.00  0.00    -0.244 N 
HETATM   21  C   UNL     1      43.502 -15.742   3.745  1.00  0.00     0.138 C 
BRANCH  20  22
HETATM   22  C   UNL     1      43.431 -18.241   4.049  1.00  0.00     0.058 A 
HETATM   23  C   UNL     1      43.887 -19.108   5.057  1.00  0.00     0.031 A 
HETATM   24  C   UNL     1      44.169 -20.444   4.764  1.00  0.00     0.002 A 
HETATM   25  C   UNL     1      44.001 -20.924   3.468  1.00  0.00     0.000 A 
HETATM   26  C   UNL     1      43.553 -20.069   2.461  1.00  0.00     0.002 A 
HETATM   27  C   UNL     1      43.268 -18.730   2.746  1.00  0.00     0.031 A 
ENDBRANCH  20  22
ENDBRANCH   6  16
TORSDOF 2
ENDMDL
MODEL 2
REMARK VINA RESULT:      -8.8      1.832      6.738
REMARK  2 active torsions:
REMARK  status: ('A' for Active; 'I' for Inactive)
REMARK       I    between atoms: N_5  and  C_6 
REMARK    1  A    between atoms: C_6  and  C_7 
REMARK    2  A    between atoms: N_11  and  C_12 
ROOT
HETATM    1  C   UNL     1      44.008 -18.588   3.948  1.00  0.00     0.050 C 
HETATM    2  C   UNL     1      43.343 -17.356   3.400  1.00  0.00    -0.030 A 
HETATM    3  C   UNL     1      42.672 -16.425   4.216  1.00  0.00     0.087 A 
HETATM    4  C   UNL     1      42.074 -15.287   3.637  1.00  0.00     0.160 A 
HETATM    5  N   UNL     1      41.351 -14.370   4.451  1.00  0.00    -0.287 N 
HETATM    6  C   UNL     1      40.704 -13.190   4.037  1.00  0.00     0.263 C 
HETATM    7  O   UNL     1      40.327 -12.371   4.882  1.00  0.00    -0.267 OA
HETATM    8  C   UNL     1      41.411 -14.535   5.899  1.00  0.00     0.237 C 
HETATM    9  C   UNL     1      42.036 -15.789   6.475  1.00  0.00     0.240 C 
HETATM   10  O   UNL     1      42.059 -16.027   7.681  1.00  0.00    -0.271 OA
HETATM   11  N   UNL     1      42.622 -16.647   5.597  1.00  0.00    -0.322 N 
HETATM   12  N   UNL     1      42.186 -15.060   2.315  1.00  0.00    -0.241 NA
HETATM   13  C   UNL     1      42.834 -15.954   1.541  1.00  0.00     0.119 A 
HETATM   14  C   UNL     1      43.414 -17.105   2.029  1.00  0.00     0.028 A 
HETATM   15  H   UNL     1      43.058 -17.458   6.015  1.00  0.00     0.169 HD
ENDROOT
BRANCH   6  16
HETATM   16  C   UNL     1      40.462 -12.881   2.638  1.00  0.00     0.076 C 
HETATM   17  C   UNL     1      41.132 -11.910   1.851  1.00  0.00     0.068 C 
HETATM   18  C   UNL     1      42.224 -10.996   2.268  1.00  0.00     0.073 C 
HETATM   19  N   UNL     1      40.677 -11.880   0.594  1.00  0.00    -0.172 NA
HETATM   20  N   UNL     1      39.725 -12.847   0.545  1.00  0.00    -0.244 N 
HETATM   21  C   UNL     1      39.473 -13.358   1.799  1.00  0.00     0.138 C 
BRANCH  20  22
HETATM   22  C   UNL     1      39.143 -13.232  -0.695  1.00  0.00     0.058 A 
HETATM   23  C   UNL     1      39.542 -14.435  -1.298  1.00  0.00     0.031 A 
HETATM   24  C   UNL     1      38.951 -14.857  -2.491  1.00  0.00     0.002 A 
HETATM   25  C   UNL     1      37.962 -14.082  -3.091  1.00  0.00     0.000 A 
HETATM   26  C   UNL     1      37.563 -12.883  -2.501  1.00  0.00     0.002 A 
HETATM   27  C   UNL     1      38.149 -12.455  -1.306  1.00  0.00     0.031 A 
ENDBRANCH  20  22
ENDBRANCH   6  16
TORSDOF 2
ENDMDL
MODEL 3
REMARK VINA RESULT:      -8.7      3.858      6.113
REMARK  2 active torsions:
REMARK  status: ('A' for Active; 'I' for Inactive)
REMARK       I    between atoms: N_5  and  C_6 
REMARK    1  A    between atoms: C_6  and  C_7 
REMARK    2  A    between atoms: N_11  and  C_12 
ROOT
HETATM    1  C   UNL     1      45.470  -9.470   9.299  1.00  0.00     0.050 C 
HETATM    2  C   UNL     1      44.881 -10.235   8.147  1.00  0.00    -0.030 A 
HETATM    3  C   UNL     1      43.515 -10.175   7.810  1.00  0.00     0.087 A 
HETATM    4  C   UNL     1      43.030 -10.915   6.713  1.00  0.00     0.160 A 
HETATM    5  N   UNL     1      41.641 -10.898   6.400  1.00  0.00    -0.287 N 
HETATM    6  C   UNL     1      40.997 -11.568   5.343  1.00  0.00     0.263 C 
HETATM    7  O   UNL     1      39.834 -11.271   5.048  1.00  0.00    -0.267 OA
HETATM    8  C   UNL     1      40.783  -9.959   7.116  1.00  0.00     0.237 C 
HETATM    9  C   UNL     1      41.340  -9.211   8.308  1.00  0.00     0.240 C 
HETATM   10  O   UNL     1      40.656  -8.458   8.999  1.00  0.00    -0.271 OA
HETATM   11  N   UNL     1      42.664  -9.369   8.575  1.00  0.00    -0.322 N 
HETATM   12  N   UNL     1      43.875 -11.636   5.952  1.00  0.00    -0.241 NA
HETATM   13  C   UNL     1      45.183 -11.684   6.278  1.00  0.00     0.119 A 
HETATM   14  C   UNL     1      45.725 -11.016   7.355  1.00  0.00     0.028 A 
HETATM   15  H   UNL     1      43.013  -8.831   9.357  1.00  0.00     0.169 HD
ENDROOT
BRANCH   6  16
HETATM   16  C   UNL     1      41.649 -12.607   4.564  1.00  0.00     0.076 C 
HETATM   17  C   UNL     1      42.296 -12.453   3.311  1.00  0.00     0.068 C 
HETATM   18  C   UNL     1      42.456 -11.211   2.515  1.00  0.00     0.073 C 
HETATM   19  N   UNL     1      42.804 -13.606   2.862  1.00  0.00    -0.172 NA
HETATM   20  N   UNL     1      42.515 -14.513   3.830  1.00  0.00    -0.244 N 
HETATM   21  C   UNL     1      41.691 -13.969   4.790  1.00  0.00     0.138 C 
BRANCH  20  22
HETATM   22  C   UNL     1      43.065 -15.825   3.783  1.00  0.00     0.058 A 
HETATM   23  C   UNL     1      43.625 -16.378   4.946  1.00  0.00     0.031 A 
HETATM   24  C   UNL     1      44.128 -17.681   4.937  1.00  0.00     0.002 A 
HETATM   25  C   UNL     1      44.079 -18.439   3.769  1.00  0.00     0.000 A 
HETATM   26  C   UNL     1      43.528 -17.896   2.609  1.00  0.00     0.002 A 
HETATM   27  C   UNL     1      43.022 -16.592   2.611  1.00  0.00     0.031 A 
ENDBRANCH  20  22
ENDBRANCH   6  16
TORSDOF 2
ENDMDL
MODEL 4
REMARK VINA RESULT:      -8.4      1.868      6.708
REMARK  2 active torsions:
REMARK  status: ('A' for Active; 'I' for Inactive)
REMARK       I    between atoms: N_5  and  C_6 
REMARK    1  A    between atoms: C_6  and  C_7 
REMARK    2  A    between atoms: N_11  and  C_12 
ROOT
HETATM    1  C   UNL     1      44.314 -19.754   4.095  1.00  0.00     0.050 C 
HETATM    2  C   UNL     1      43.847 -18.365   3.761  1.00  0.00    -0.030 A 
HETATM    3  C   UNL     1      43.573 -17.396   4.746  1.00  0.00     0.087 A 
HETATM    4  C   UNL     1      43.144 -16.109   4.364  1.00  0.00     0.160 A 
HETATM    5  N   UNL     1      42.817 -15.143   5.357  1.00  0.00    -0.287 N 
HETATM    6  C   UNL     1      42.382 -13.820   5.149  1.00  0.00     0.263 C 
HETATM    7  O   UNL     1      42.369 -13.024   6.094  1.00  0.00    -0.267 OA
HETATM    8  C   UNL     1      43.119 -15.454   6.750  1.00  0.00     0.237 C 
HETATM    9  C   UNL     1      43.546 -16.859   7.117  1.00  0.00     0.240 C 
HETATM   10  O   UNL     1      43.750 -17.211   8.278  1.00  0.00    -0.271 OA
HETATM   11  N   UNL     1      43.744 -17.733   6.094  1.00  0.00    -0.322 N 
HETATM   12  N   UNL     1      43.045 -15.785   3.061  1.00  0.00    -0.241 NA
HETATM   13  C   UNL     1      43.314 -16.717   2.124  1.00  0.00     0.119 A 
HETATM   14  C   UNL     1      43.706 -18.005   2.421  1.00  0.00     0.028 A 
HETATM   15  H   UNL     1      44.061 -18.653   6.369  1.00  0.00     0.169 HD
ENDROOT
BRANCH   6  16
HETATM   16  C   UNL     1      41.948 -13.336   3.849  1.00  0.00     0.076 C 
HETATM   17  C   UNL     1      42.575 -12.340   3.057  1.00  0.00     0.068 C 
HETATM   18  C   UNL     1      43.806 -11.571   3.368  1.00  0.00     0.073 C 
HETATM   19  N   UNL     1      41.927 -12.130   1.907  1.00  0.00    -0.172 NA
HETATM   20  N   UNL     1      40.889 -13.004   1.928  1.00  0.00    -0.244 N 
HETATM   21  C   UNL     1      40.794 -13.632   3.150  1.00  0.00     0.138 C 
BRANCH  20  22
HETATM   22  C   UNL     1      40.077 -13.197   0.775  1.00  0.00     0.058 A 
HETATM   23  C   UNL     1      39.157 -12.202   0.407  1.00  0.00     0.031 A 
HETATM   24  C   UNL     1      38.383 -12.347  -0.746  1.00  0.00     0.002 A 
HETATM   25  C   UNL     1      38.519 -13.484  -1.538  1.00  0.00     0.000 A 
HETATM   26  C   UNL     1      39.428 -14.479  -1.178  1.00  0.00     0.002 A 
HETATM   27  C   UNL     1      40.207 -14.340  -0.025  1.00  0.00     0.031 A 
ENDBRANCH  20  22
ENDBRANCH   6  16
TORSDOF 2
ENDMDL
MODEL 5
REMARK VINA RESULT:      -8.3      3.021      6.983
REMARK  2 active torsions:
REMARK  status: ('A' for Active; 'I' for Inactive)
REMARK       I    between atoms: N_5  and  C_6 
REMARK    1  A    between atoms: C_6  and  C_7 
REMARK    2  A    between atoms: N_11  and  C_12 
ROOT
HETATM    1  C   UNL     1      45.172 -11.270   6.791  1.00  0.00     0.050 C 
HETATM    2  C   UNL     1      44.277 -11.892   5.756  1.00  0.00    -0.030 A 
HETATM    3  C   UNL     1      43.579 -13.096   5.975  1.00  0.00     0.087 A 
HETATM    4  C   UNL     1      42.752 -13.621   4.962  1.00  0.00     0.160 A 
HETATM    5  N   UNL     1      42.085 -14.863   5.159  1.00  0.00    -0.287 N 
HETATM    6  C   UNL     1      41.224 -15.521   4.261  1.00  0.00     0.263 C 
HETATM    7  O   UNL     1      40.530 -16.464   4.656  1.00  0.00    -0.267 OA
HETATM    8  C   UNL     1      42.129 -15.468   6.486  1.00  0.00     0.237 C 
HETATM    9  C   UNL     1      43.057 -14.887   7.532  1.00  0.00     0.240 C 
HETATM   10  O   UNL     1      43.197 -15.386   8.648  1.00  0.00    -0.271 OA
HETATM   11  N   UNL     1      43.718 -13.744   7.207  1.00  0.00    -0.322 N 
HETATM   12  N   UNL     1      42.583 -12.951   3.806  1.00  0.00    -0.241 NA
HETATM   13  C   UNL     1      43.251 -11.796   3.606  1.00  0.00     0.119 A 
HETATM   14  C   UNL     1      44.102 -11.238   4.535  1.00  0.00     0.028 A 
HETATM   15  H   UNL     1      44.304 -13.363   7.938  1.00  0.00     0.169 HD
ENDROOT
BRANCH   6  16
HETATM   16  C   UNL     1      41.105 -15.131   2.866  1.00  0.00     0.076 C 
HETATM   17  C   UNL     1      41.981 -15.479   1.806  1.00  0.00     0.068 C 
HETATM   18  C   UNL     1      43.207 -16.313   1.874  1.00  0.00     0.073 C 
HETATM   19  N   UNL     1      41.585 -14.966   0.636  1.00  0.00    -0.172 NA
HETATM   20  N   UNL     1      40.436 -14.301   0.920  1.00  0.00    -0.244 N 
HETATM   21  C   UNL     1      40.209 -14.260   2.277  1.00  0.00     0.138 C 
BRANCH  20  22
HETATM   22  C   UNL     1      39.624 -13.775  -0.124  1.00  0.00     0.058 A 
HETATM   23  C   UNL     1      39.443 -14.524  -1.298  1.00  0.00     0.031 A 
HETATM   24  C   UNL     1      38.614 -14.050  -2.317  1.00  0.00     0.002 A 
HETATM   25  C   UNL     1      37.963 -12.827  -2.174  1.00  0.00     0.000 A 
HETATM   26  C   UNL     1      38.141 -12.076  -1.013  1.00  0.00     0.002 A 
HETATM   27  C   UNL     1      38.969 -12.544   0.012  1.00  0.00     0.031 A 
ENDBRANCH  20  22
ENDBRANCH   6  16
TORSDOF 2
ENDMDL
MODEL 6
REMARK VINA RESULT:      -8.3      2.611      3.577
REMARK  2 active torsions:
REMARK  status: ('A' for Active; 'I' for Inactive)
REMARK       I    between atoms: N_5  and  C_6 
REMARK    1  A    between atoms: C_6  and  C_7 
REMARK    2  A    between atoms: N_11  and  C_12 
ROOT
HETATM    1  C   UNL     1      40.670  -8.852   1.983  1.00  0.00     0.050 C 
HETATM    2  C   UNL     1      40.991 -10.222   2.512  1.00  0.00    -0.030 A 
HETATM    3  C   UNL     1      40.389 -10.752   3.670  1.00  0.00     0.087 A 
HETATM    4  C   UNL     1      40.732 -12.047   4.108  1.00  0.00     0.160 A 
HETATM    5  N   UNL     1      40.165 -12.567   5.305  1.00  0.00    -0.287 N 
HETATM    6  C   UNL     1      40.393 -13.833   5.877  1.00  0.00     0.263 C 
HETATM    7  O   UNL     1      39.653 -14.240   6.779  1.00  0.00    -0.267 OA
HETATM    8  C   UNL     1      39.093 -11.813   5.947  1.00  0.00     0.237 C 
HETATM    9  C   UNL     1      38.781 -10.413   5.462  1.00  0.00     0.240 C 
HETATM   10  O   UNL     1      37.940  -9.695   5.999  1.00  0.00    -0.271 OA
HETATM   11  N   UNL     1      39.448  -9.978   4.360  1.00  0.00    -0.322 N 
HETATM   12  N   UNL     1      41.593 -12.799   3.397  1.00  0.00    -0.241 NA
HETATM   13  C   UNL     1      42.162 -12.286   2.287  1.00  0.00     0.119 A 
HETATM   14  C   UNL     1      41.901 -11.017   1.815  1.00  0.00     0.028 A 
HETATM   15  H   UNL     1      39.195  -9.053   4.041  1.00  0.00     0.169 HD
ENDROOT
BRANCH   6  16
HETATM   16  C   UNL     1      41.473 -14.703   5.442  1.00  0.00     0.076 C 
HETATM   17  C   UNL     1      42.852 -14.566   5.744  1.00  0.00     0.068 C 
HETATM   18  C   UNL     1      43.505 -13.515   6.563  1.00  0.00     0.073 C 
HETATM   19  N   UNL     1      43.586 -15.540   5.196  1.00  0.00    -0.172 NA
HETATM   20  N   UNL     1      42.690 -16.333   4.556  1.00  0.00    -0.244 N 
HETATM   21  C   UNL     1      41.434 -15.768   4.563  1.00  0.00     0.138 C 
BRANCH  20  22
HETATM   22  C   UNL     1      43.089 -17.584   4.006  1.00  0.00     0.058 A 
HETATM   23  C   UNL     1      42.739 -17.896   2.682  1.00  0.00     0.031 A 
HETATM   24  C   UNL     1      43.159 -19.096   2.105  1.00  0.00     0.002 A 
HETATM   25  C   UNL     1      43.928 -19.993   2.843  1.00  0.00     0.000 A 
HETATM   26  C   UNL     1      44.276 -19.692   4.159  1.00  0.00     0.002 A 
HETATM   27  C   UNL     1      43.860 -18.492   4.744  1.00  0.00     0.031 A 
ENDBRANCH  20  22
ENDBRANCH   6  16
TORSDOF 2
ENDMDL
MODEL 7
REMARK VINA RESULT:      -8.2      3.003      4.963
REMARK  2 active torsions:
REMARK  status: ('A' for Active; 'I' for Inactive)
REMARK       I    between atoms: N_5  and  C_6 
REMARK    1  A    between atoms: C_6  and  C_7 
REMARK    2  A    between atoms: N_11  and  C_12 
ROOT
HETATM    1  C   UNL     1      43.055  -9.731   7.708  1.00  0.00     0.050 C 
HETATM    2  C   UNL     1      42.788 -10.737   6.623  1.00  0.00    -0.030 A 
HETATM    3  C   UNL     1      41.522 -10.897   6.027  1.00  0.00     0.087 A 
HETATM    4  C   UNL     1      41.342 -11.856   5.010  1.00  0.00     0.160 A 
HETATM    5  N   UNL     1      40.053 -12.057   4.441  1.00  0.00    -0.287 N 
HETATM    6  C   UNL     1      39.704 -12.962   3.420  1.00  0.00     0.263 C 
HETATM    7  O   UNL     1      38.607 -12.859   2.860  1.00  0.00    -0.267 OA
HETATM    8  C   UNL     1      38.987 -11.126   4.796  1.00  0.00     0.237 C 
HETATM    9  C   UNL     1      39.216 -10.134   5.916  1.00  0.00     0.240 C 
HETATM   10  O   UNL     1      38.342  -9.367   6.315  1.00  0.00    -0.271 OA
HETATM   11  N   UNL     1      40.464 -10.086   6.455  1.00  0.00    -0.322 N 
HETATM   12  N   UNL     1      42.386 -12.584   4.570  1.00  0.00    -0.241 NA
HETATM   13  C   UNL     1      43.596 -12.421   5.143  1.00  0.00     0.119 A 
HETATM   14  C   UNL     1      43.842 -11.528   6.163  1.00  0.00     0.028 A 
HETATM   15  H   UNL     1      40.595  -9.391   7.178  1.00  0.00     0.169 HD
ENDROOT
BRANCH   6  16
HETATM   16  C   UNL     1      40.591 -14.027   2.983  1.00  0.00     0.076 C 
HETATM   17  C   UNL     1      41.295 -14.098   1.753  1.00  0.00     0.068 C 
HETATM   18  C   UNL     1      41.290 -13.114   0.642  1.00  0.00     0.073 C 
HETATM   19  N   UNL     1      42.035 -15.208   1.661  1.00  0.00    -0.172 NA
HETATM   20  N   UNL     1      41.840 -15.855   2.838  1.00  0.00    -0.244 N 
HETATM   21  C   UNL     1      40.859 -15.241   3.585  1.00  0.00     0.138 C 
BRANCH  20  22
HETATM   22  C   UNL     1      42.618 -16.997   3.177  1.00  0.00     0.058 A 
HETATM   23  C   UNL     1      42.726 -18.054   2.259  1.00  0.00     0.031 A 
HETATM   24  C   UNL     1      43.521 -19.164   2.550  1.00  0.00     0.002 A 
HETATM   25  C   UNL     1      44.212 -19.229   3.757  1.00  0.00     0.000 A 
HETATM   26  C   UNL     1      44.107 -18.186   4.676  1.00  0.00     0.002 A 
HETATM   27  C   UNL     1      43.313 -17.071   4.392  1.00  0.00     0.031 A 
ENDBRANCH  20  22
ENDBRANCH   6  16
TORSDOF 2
ENDMDL
MODEL 8
REMARK VINA RESULT:      -8.2      3.675      7.395
REMARK  2 active torsions:
REMARK  status: ('A' for Active; 'I' for Inactive)
REMARK       I    between atoms: N_5  and  C_6 
REMARK    1  A    between atoms: C_6  and  C_7 
REMARK    2  A    between atoms: N_11  and  C_12 
ROOT
HETATM    1  C   UNL     1      43.575 -19.209   6.522  1.00  0.00     0.050 C 
HETATM    2  C   UNL     1      43.329 -17.734   6.375  1.00  0.00    -0.030 A 
HETATM    3  C   UNL     1      43.196 -17.104   5.122  1.00  0.00     0.087 A 
HETATM    4  C   UNL     1      42.961 -15.716   5.057  1.00  0.00     0.160 A 
HETATM    5  N   UNL     1      42.876 -15.067   3.793  1.00  0.00    -0.287 N 
HETATM    6  C   UNL     1      42.641 -13.700   3.550  1.00  0.00     0.263 C 
HETATM    7  O   UNL     1      42.354 -13.322   2.409  1.00  0.00    -0.267 OA
HETATM    8  C   UNL     1      42.848 -15.894   2.591  1.00  0.00     0.237 C 
HETATM    9  C   UNL     1      43.138 -17.376   2.707  1.00  0.00     0.240 C 
HETATM   10  O   UNL     1      43.198 -18.120   1.730  1.00  0.00    -0.271 OA
HETATM   11  N   UNL     1      43.292 -17.879   3.961  1.00  0.00    -0.322 N 
HETATM   12  N   UNL     1      42.810 -14.998   6.185  1.00  0.00    -0.241 NA
HETATM   13  C   UNL     1      42.935 -15.609   7.381  1.00  0.00     0.119 A 
HETATM   14  C   UNL     1      43.197 -16.954   7.525  1.00  0.00     0.028 A 
HETATM   15  H   UNL     1      43.452 -18.877   4.008  1.00  0.00     0.169 HD
ENDROOT
BRANCH   6  16
HETATM   16  C   UNL     1      42.715 -12.697   4.598  1.00  0.00     0.076 C 
HETATM   17  C   UNL     1      41.635 -12.169   5.351  1.00  0.00     0.068 C 
HETATM   18  C   UNL     1      40.196 -12.516   5.245  1.00  0.00     0.073 C 
HETATM   19  N   UNL     1      42.041 -11.265   6.248  1.00  0.00    -0.172 NA
HETATM   20  N   UNL     1      43.390 -11.214   6.105  1.00  0.00    -0.244 N 
HETATM   21  C   UNL     1      43.801 -11.952   5.018  1.00  0.00     0.138 C 
BRANCH  20  22
HETATM   22  C   UNL     1      44.191 -10.485   7.028  1.00  0.00     0.058 A 
HETATM   23  C   UNL     1      45.581 -10.691   7.044  1.00  0.00     0.031 A 
HETATM   24  C   UNL     1      46.393  -9.955   7.909  1.00  0.00     0.002 A 
HETATM   25  C   UNL     1      45.828  -9.011   8.762  1.00  0.00     0.000 A 
HETATM   26  C   UNL     1      44.449  -8.803   8.755  1.00  0.00     0.002 A 
HETATM   27  C   UNL     1      43.629  -9.536   7.892  1.00  0.00     0.031 A 
ENDBRANCH  20  22
ENDBRANCH   6  16
TORSDOF 2
ENDMDL
MODEL 9
REMARK VINA RESULT:      -8.1      2.974      4.770
REMARK  2 active torsions:
REMARK  status: ('A' for Active; 'I' for Inactive)
REMARK       I    between atoms: N_5  and  C_6 
REMARK    1  A    between atoms: C_6  and  C_7 
REMARK    2  A    between atoms: N_11  and  C_12 
ROOT
HETATM    1  C   UNL     1      44.264  -9.185   8.084  1.00  0.00     0.050 C 
HETATM    2  C   UNL     1      43.852 -10.424   7.340  1.00  0.00    -0.030 A 
HETATM    3  C   UNL     1      42.801 -10.436   6.402  1.00  0.00     0.087 A 
HETATM    4  C   UNL     1      42.470 -11.633   5.735  1.00  0.00     0.160 A 
HETATM    5  N   UNL     1      41.376 -11.662   4.824  1.00  0.00    -0.287 N 
HETATM    6  C   UNL     1      40.919 -12.763   4.076  1.00  0.00     0.263 C 
HETATM    7  O   UNL     1      40.120 -12.585   3.151  1.00  0.00    -0.267 OA
HETATM    8  C   UNL     1      40.745 -10.398   4.462  1.00  0.00     0.237 C 
HETATM    9  C   UNL     1      41.110  -9.143   5.228  1.00  0.00     0.240 C 
HETATM   10  O   UNL     1      40.569  -8.058   5.024  1.00  0.00    -0.271 OA
HETATM   11  N   UNL     1      42.110  -9.247   6.143  1.00  0.00    -0.322 N 
HETATM   12  N   UNL     1      43.186 -12.752   5.952  1.00  0.00    -0.241 NA
HETATM   13  C   UNL     1      44.193 -12.732   6.849  1.00  0.00     0.119 A 
HETATM   14  C   UNL     1      44.554 -11.609   7.563  1.00  0.00     0.028 A 
HETATM   15  H   UNL     1      42.353  -8.386   6.614  1.00  0.00     0.169 HD
ENDROOT
BRANCH   6  16
HETATM   16  C   UNL     1      41.356 -14.124   4.342  1.00  0.00     0.076 C 
HETATM   17  C   UNL     1      40.976 -14.943   5.436  1.00  0.00     0.068 C 
HETATM   18  C   UNL     1      40.055 -14.606   6.550  1.00  0.00     0.073 C 
HETATM   19  N   UNL     1      41.550 -16.149   5.384  1.00  0.00    -0.172 NA
HETATM   20  N   UNL     1      42.287 -16.135   4.244  1.00  0.00    -0.244 N 
HETATM   21  C   UNL     1      42.306 -14.879   3.682  1.00  0.00     0.138 C 
BRANCH  20  22
HETATM   22  C   UNL     1      42.900 -17.325   3.761  1.00  0.00     0.058 A 
HETATM   23  C   UNL     1      43.795 -18.023   4.587  1.00  0.00     0.031 A 
HETATM   24  C   UNL     1      44.373 -19.218   4.152  1.00  0.00     0.002 A 
HETATM   25  C   UNL     1      44.064 -19.723   2.892  1.00  0.00     0.000 A 
HETATM   26  C   UNL     1      43.180 -19.034   2.063  1.00  0.00     0.002 A 
HETATM   27  C   UNL     1      42.597 -17.837   2.492  1.00  0.00     0.031 A 
ENDBRANCH  20  22
ENDBRANCH   6  16
TORSDOF 2
ENDMDL
MODEL 10
REMARK VINA RESULT:      -7.9      3.579      6.394
REMARK  2 active torsions:
REMARK  status: ('A' for Active; 'I' for Inactive)
REMARK       I    between atoms: N_5  and  C_6 
REMARK    1  A    between atoms: C_6  and  C_7 
REMARK    2  A    between atoms: N_11  and  C_12 
ROOT
HETATM    1  C   UNL     1      42.832 -17.750   2.618  1.00  0.00     0.050 C 
HETATM    2  C   UNL     1      42.557 -16.444   3.311  1.00  0.00    -0.030 A 
HETATM    3  C   UNL     1      41.776 -15.424   2.732  1.00  0.00     0.087 A 
HETATM    4  C   UNL     1      41.553 -14.225   3.440  1.00  0.00     0.160 A 
HETATM    5  N   UNL     1      40.809 -13.172   2.839  1.00  0.00    -0.287 N 
HETATM    6  C   UNL     1      40.491 -11.922   3.404  1.00  0.00     0.263 C 
HETATM    7  O   UNL     1      39.639 -11.206   2.867  1.00  0.00    -0.267 OA
HETATM    8  C   UNL     1      40.133 -13.437   1.573  1.00  0.00     0.237 C 
HETATM    9  C   UNL     1      40.429 -14.725   0.834  1.00  0.00     0.240 C 
HETATM   10  O   UNL     1      39.950 -14.984  -0.269  1.00  0.00    -0.271 OA
HETATM   11  N   UNL     1      41.228 -15.629   1.461  1.00  0.00    -0.322 N 
HETATM   12  N   UNL     1      42.038 -14.072   4.686  1.00  0.00    -0.241 NA
HETATM   13  C   UNL     1      42.780 -15.055   5.235  1.00  0.00     0.119 A 
HETATM   14  C   UNL     1      43.069 -16.240   4.593  1.00  0.00     0.028 A 
HETATM   15  H   UNL     1      41.381 -16.492   0.957  1.00  0.00     0.169 HD
ENDROOT
BRANCH   6  16
HETATM   16  C   UNL     1      41.123 -11.429   4.616  1.00  0.00     0.076 C 
HETATM   17  C   UNL     1      40.506 -11.220   5.875  1.00  0.00     0.068 C 
HETATM   18  C   UNL     1      39.087 -11.453   6.244  1.00  0.00     0.073 C 
HETATM   19  N   UNL     1      41.369 -10.765   6.790  1.00  0.00    -0.172 NA
HETATM   20  N   UNL     1      42.560 -10.700   6.142  1.00  0.00    -0.244 N 
HETATM   21  C   UNL     1      42.406 -10.949   4.796  1.00  0.00     0.138 C 
BRANCH  20  22
HETATM   22  C   UNL     1      43.761 -10.428   6.855  1.00  0.00     0.058 A 
HETATM   23  C   UNL     1      44.927 -11.144   6.536  1.00  0.00     0.031 A 
HETATM   24  C   UNL     1      46.128 -10.864   7.189  1.00  0.00     0.002 A 
HETATM   25  C   UNL     1      46.176  -9.871   8.165  1.00  0.00     0.000 A 
HETATM   26  C   UNL     1      45.022  -9.159   8.490  1.00  0.00     0.002 A 
HETATM   27  C   UNL     1      43.815  -9.433   7.840  1.00  0.00     0.031 A 
ENDBRANCH  20  22
ENDBRANCH   6  16
TORSDOF 2
ENDMDL
