MODEL 1
REMARK VINA RESULT:      -7.4      0.000      0.000
REMARK  4 active torsions:
REMARK  status: ('A' for Active; 'I' for Inactive)
REMARK    1  A    between atoms: S_2  and  N_3 
REMARK    2  A    between atoms: N_3  and  N_4 
REMARK    3  A    between atoms: C_10  and  C_11 
REMARK    4  A    between atoms: C_14  and  O_15 
ROOT
HETATM    1  N   UNL     1      40.653 -14.021   3.371  1.00  0.00    -0.241 N 
HETATM    2  C   UNL     1      41.172 -14.931   2.466  1.00  0.00     0.272 C 
HETATM    3  O   UNL     1      40.831 -14.946   1.282  1.00  0.00    -0.266 OA
HETATM    4  C   UNL     1      42.099 -15.937   3.016  1.00  0.00     0.054 A 
HETATM    5  C   UNL     1      42.090 -16.125   4.407  1.00  0.00     0.026 A 
HETATM    6  N   UNL     1      41.254 -15.347   5.227  1.00  0.00    -0.265 NA
HETATM    7  C   UNL     1      41.097 -13.956   4.768  1.00  0.00     0.217 C 
HETATM    8  C   UNL     1      42.866 -16.747   2.175  1.00  0.00     0.019 A 
HETATM    9  C   UNL     1      43.635 -17.767   2.727  1.00  0.00     0.001 A 
HETATM   10  C   UNL     1      43.609 -17.992   4.105  1.00  0.00     0.002 A 
HETATM   11  C   UNL     1      42.826 -17.186   4.938  1.00  0.00     0.024 A 
HETATM   12  H   UNL     1      41.483 -15.411   6.212  1.00  0.00     0.130 HD
ENDROOT
BRANCH   7  13
HETATM   13  C   UNL     1      42.390 -13.152   4.990  1.00  0.00    -0.020 A 
HETATM   14  C   UNL     1      42.905 -12.282   4.010  1.00  0.00     0.013 A 
HETATM   15  C   UNL     1      44.067 -11.534   4.236  1.00  0.00     0.037 A 
HETATM   16  C   UNL     1      44.732 -11.651   5.449  1.00  0.00     0.065 A 
HETATM   17  C   UNL     1      44.248 -12.487   6.440  1.00  0.00     0.037 A 
HETATM   18  C   UNL     1      43.077 -13.220   6.221  1.00  0.00     0.013 A 
BRANCH  16  19
HETATM   19  O   UNL     1      45.869 -10.945   5.710  1.00  0.00    -0.361 OA
HETATM   20  H   UNL     1      46.480 -11.511   6.208  1.00  0.00     0.217 HD
ENDBRANCH  16  19
ENDBRANCH   7  13
BRANCH   1  21
HETATM   21  N   UNL     1      39.283 -13.540   3.059  1.00  0.00    -0.123 NA
HETATM   22  H   UNL     1      38.737 -14.227   2.523  1.00  0.00     0.165 HD
BRANCH  21  23
HETATM   23  S   UNL     1      39.056 -11.967   2.475  1.00  0.00     0.222 S 
HETATM   24  C   UNL     1      39.115 -11.040   3.994  1.00  0.00     0.181 C 
HETATM   25  O   UNL     1      37.727 -11.859   1.917  1.00  0.00    -0.210 OA
HETATM   26  O   UNL     1      40.231 -11.629   1.703  1.00  0.00    -0.210 OA
ENDBRANCH  21  23
ENDBRANCH   1  21
TORSDOF 4
ENDMDL
MODEL 2
REMARK VINA RESULT:      -7.1      1.234      2.001
REMARK  4 active torsions:
REMARK  status: ('A' for Active; 'I' for Inactive)
REMARK    1  A    between atoms: S_2  and  N_3 
REMARK    2  A    between atoms: N_3  and  N_4 
REMARK    3  A    between atoms: C_10  and  C_11 
REMARK    4  A    between atoms: C_14  and  O_15 
ROOT
HETATM    1  N   UNL     1      41.077 -14.615   2.825  1.00  0.00    -0.241 N 
HETATM    2  C   UNL     1      41.813 -15.706   2.397  1.00  0.00     0.272 C 
HETATM    3  O   UNL     1      41.843 -16.055   1.216  1.00  0.00    -0.266 OA
HETATM    4  C   UNL     1      42.499 -16.479   3.448  1.00  0.00     0.054 A 
HETATM    5  C   UNL     1      42.069 -16.288   4.770  1.00  0.00     0.026 A 
HETATM    6  N   UNL     1      41.050 -15.362   5.062  1.00  0.00    -0.265 NA
HETATM    7  C   UNL     1      41.084 -14.155   4.218  1.00  0.00     0.217 C 
HETATM    8  C   UNL     1      43.456 -17.444   3.125  1.00  0.00     0.019 A 
HETATM    9  C   UNL     1      43.991 -18.239   4.136  1.00  0.00     0.001 A 
HETATM   10  C   UNL     1      43.545 -18.087   5.450  1.00  0.00     0.002 A 
HETATM   11  C   UNL     1      42.576 -17.129   5.762  1.00  0.00     0.024 A 
HETATM   12  H   UNL     1      40.972 -15.148   6.049  1.00  0.00     0.130 HD
ENDROOT
BRANCH   7  13
HETATM   13  C   UNL     1      42.277 -13.256   4.588  1.00  0.00    -0.020 A 
HETATM   14  C   UNL     1      42.772 -13.176   5.903  1.00  0.00     0.013 A 
HETATM   15  C   UNL     1      43.876 -12.376   6.220  1.00  0.00     0.037 A 
HETATM   16  C   UNL     1      44.499 -11.641   5.221  1.00  0.00     0.065 A 
HETATM   17  C   UNL     1      44.047 -11.705   3.914  1.00  0.00     0.037 A 
HETATM   18  C   UNL     1      42.956 -12.519   3.594  1.00  0.00     0.013 A 
BRANCH  16  19
HETATM   19  O   UNL     1      45.574 -10.845   5.486  1.00  0.00    -0.361 OA
HETATM   20  H   UNL     1      45.347 -10.247   6.216  1.00  0.00     0.217 HD
ENDBRANCH  16  19
ENDBRANCH   7  13
BRANCH   1  21
HETATM   21  N   UNL     1      39.880 -14.305   2.002  1.00  0.00    -0.123 NA
HETATM   22  H   UNL     1      39.399 -15.153   1.673  1.00  0.00     0.165 HD
BRANCH  21  23
HETATM   23  S   UNL     1      39.974 -13.128   0.789  1.00  0.00     0.222 S 
HETATM   24  C   UNL     1      39.589 -14.106  -0.649  1.00  0.00     0.181 C 
HETATM   25  O   UNL     1      41.341 -12.669   0.684  1.00  0.00    -0.210 OA
HETATM   26  O   UNL     1      38.881 -12.208   1.005  1.00  0.00    -0.210 OA
ENDBRANCH  21  23
ENDBRANCH   1  21
TORSDOF 4
ENDMDL
MODEL 3
REMARK VINA RESULT:      -7.0      2.130      2.877
REMARK  4 active torsions:
REMARK  status: ('A' for Active; 'I' for Inactive)
REMARK    1  A    between atoms: S_2  and  N_3 
REMARK    2  A    between atoms: N_3  and  N_4 
REMARK    3  A    between atoms: C_10  and  C_11 
REMARK    4  A    between atoms: C_14  and  O_15 
ROOT
HETATM    1  N   UNL     1      42.112 -13.083   4.527  1.00  0.00    -0.241 N 
HETATM    2  C   UNL     1      42.620 -14.322   4.176  1.00  0.00     0.272 C 
HETATM    3  O   UNL     1      42.650 -14.713   3.008  1.00  0.00    -0.266 OA
HETATM    4  C   UNL     1      43.051 -15.186   5.291  1.00  0.00     0.054 A 
HETATM    5  C   UNL     1      42.586 -14.859   6.573  1.00  0.00     0.026 A 
HETATM    6  N   UNL     1      41.777 -13.725   6.772  1.00  0.00    -0.265 NA
HETATM    7  C   UNL     1      42.128 -12.586   5.907  1.00  0.00     0.217 C 
HETATM    8  C   UNL     1      43.794 -16.346   5.057  1.00  0.00     0.019 A 
HETATM    9  C   UNL     1      44.076 -17.200   6.121  1.00  0.00     0.001 A 
HETATM   10  C   UNL     1      43.588 -16.909   7.396  1.00  0.00     0.002 A 
HETATM   11  C   UNL     1      42.833 -15.753   7.618  1.00  0.00     0.024 A 
HETATM   12  H   UNL     1      41.683 -13.464   7.746  1.00  0.00     0.130 HD
ENDROOT
BRANCH   7  13
HETATM   13  C   UNL     1      43.461 -11.952   6.342  1.00  0.00    -0.020 A 
HETATM   14  C   UNL     1      43.694 -11.541   7.668  1.00  0.00     0.013 A 
HETATM   15  C   UNL     1      44.922 -10.992   8.057  1.00  0.00     0.037 A 
HETATM   16  C   UNL     1      45.935 -10.845   7.119  1.00  0.00     0.065 A 
HETATM   17  C   UNL     1      45.745 -11.250   5.809  1.00  0.00     0.037 A 
HETATM   18  C   UNL     1      44.525 -11.815   5.425  1.00  0.00     0.013 A 
BRANCH  16  19
HETATM   19  O   UNL     1      47.144 -10.311   7.453  1.00  0.00    -0.361 OA
HETATM   20  H   UNL     1      47.326  -9.560   6.866  1.00  0.00     0.217 HD
ENDBRANCH  16  19
ENDBRANCH   7  13
BRANCH   1  21
HETATM   21  N   UNL     1      41.068 -12.553   3.614  1.00  0.00    -0.123 NA
HETATM   22  H   UNL     1      40.498 -13.299   3.193  1.00  0.00     0.165 HD
BRANCH  21  23
HETATM   23  S   UNL     1      41.466 -11.357   2.485  1.00  0.00     0.222 S 
HETATM   24  C   UNL     1      41.105 -12.208   0.963  1.00  0.00     0.181 C 
HETATM   25  O   UNL     1      42.889 -11.105   2.548  1.00  0.00    -0.210 OA
HETATM   26  O   UNL     1      40.502 -10.291   2.637  1.00  0.00    -0.210 OA
ENDBRANCH  21  23
ENDBRANCH   1  21
TORSDOF 4
ENDMDL
MODEL 4
REMARK VINA RESULT:      -7.0     15.796     17.434
REMARK  4 active torsions:
REMARK  status: ('A' for Active; 'I' for Inactive)
REMARK    1  A    between atoms: S_2  and  N_3 
REMARK    2  A    between atoms: N_3  and  N_4 
REMARK    3  A    between atoms: C_10  and  C_11 
REMARK    4  A    between atoms: C_14  and  O_15 
ROOT
HETATM    1  N   UNL     1      45.047 -29.584   0.680  1.00  0.00    -0.241 N 
HETATM    2  C   UNL     1      45.956 -30.591   0.957  1.00  0.00     0.272 C 
HETATM    3  O   UNL     1      45.703 -31.505   1.743  1.00  0.00    -0.266 OA
HETATM    4  C   UNL     1      47.279 -30.464   0.319  1.00  0.00     0.054 A 
HETATM    5  C   UNL     1      47.629 -29.204  -0.189  1.00  0.00     0.026 A 
HETATM    6  N   UNL     1      46.723 -28.130  -0.119  1.00  0.00    -0.265 NA
HETATM    7  C   UNL     1      45.316 -28.526  -0.300  1.00  0.00     0.217 C 
HETATM    8  C   UNL     1      48.187 -31.526   0.328  1.00  0.00     0.019 A 
HETATM    9  C   UNL     1      49.471 -31.328  -0.175  1.00  0.00     0.001 A 
HETATM   10  C   UNL     1      49.847 -30.070  -0.650  1.00  0.00     0.002 A 
HETATM   11  C   UNL     1      48.936 -29.009  -0.640  1.00  0.00     0.024 A 
HETATM   12  H   UNL     1      46.987 -27.343  -0.700  1.00  0.00     0.130 HD
ENDROOT
BRANCH   7  13
HETATM   13  C   UNL     1      45.037 -28.921  -1.760  1.00  0.00    -0.020 A 
HETATM   14  C   UNL     1      44.344 -30.100  -2.095  1.00  0.00     0.013 A 
HETATM   15  C   UNL     1      44.071 -30.433  -3.427  1.00  0.00     0.037 A 
HETATM   16  C   UNL     1      44.492 -29.589  -4.445  1.00  0.00     0.065 A 
HETATM   17  C   UNL     1      45.165 -28.415  -4.153  1.00  0.00     0.037 A 
HETATM   18  C   UNL     1      45.421 -28.073  -2.821  1.00  0.00     0.013 A 
BRANCH  16  19
HETATM   19  O   UNL     1      44.252 -29.877  -5.755  1.00  0.00    -0.361 OA
HETATM   20  H   UNL     1      43.886 -29.087  -6.186  1.00  0.00     0.217 HD
ENDBRANCH  16  19
ENDBRANCH   7  13
BRANCH   1  21
HETATM   21  N   UNL     1      44.091 -29.284   1.776  1.00  0.00    -0.123 NA
HETATM   22  H   UNL     1      44.480 -29.494   2.705  1.00  0.00     0.165 HD
BRANCH  21  23
HETATM   23  S   UNL     1      42.478 -29.779   1.646  1.00  0.00     0.222 S 
HETATM   24  C   UNL     1      42.056 -29.982   3.364  1.00  0.00     0.181 C 
HETATM   25  O   UNL     1      42.433 -31.072   1.002  1.00  0.00    -0.210 OA
HETATM   26  O   UNL     1      41.729 -28.653   1.135  1.00  0.00    -0.210 OA
ENDBRANCH  21  23
ENDBRANCH   1  21
TORSDOF 4
ENDMDL
MODEL 5
REMARK VINA RESULT:      -6.9      2.709      5.026
REMARK  4 active torsions:
REMARK  status: ('A' for Active; 'I' for Inactive)
REMARK    1  A    between atoms: S_2  and  N_3 
REMARK    2  A    between atoms: N_3  and  N_4 
REMARK    3  A    between atoms: C_10  and  C_11 
REMARK    4  A    between atoms: C_14  and  O_15 
ROOT
HETATM    1  N   UNL     1      42.034 -12.722   4.747  1.00  0.00    -0.241 N 
HETATM    2  C   UNL     1      41.968 -14.081   4.999  1.00  0.00     0.272 C 
HETATM    3  O   UNL     1      41.702 -14.530   6.115  1.00  0.00    -0.266 OA
HETATM    4  C   UNL     1      42.314 -14.968   3.873  1.00  0.00     0.054 A 
HETATM    5  C   UNL     1      43.015 -14.398   2.799  1.00  0.00     0.026 A 
HETATM    6  N   UNL     1      43.329 -13.026   2.799  1.00  0.00    -0.265 NA
HETATM    7  C   UNL     1      42.289 -12.179   3.408  1.00  0.00     0.217 C 
HETATM    8  C   UNL     1      42.055 -16.340   3.930  1.00  0.00     0.019 A 
HETATM    9  C   UNL     1      42.508 -17.161   2.901  1.00  0.00     0.001 A 
HETATM   10  C   UNL     1      43.239 -16.616   1.844  1.00  0.00     0.002 A 
HETATM   11  C   UNL     1      43.507 -15.244   1.803  1.00  0.00     0.024 A 
HETATM   12  H   UNL     1      43.635 -12.684   1.897  1.00  0.00     0.130 HD
ENDROOT
BRANCH   7  13
HETATM   13  C   UNL     1      41.046 -12.094   2.505  1.00  0.00    -0.020 A 
HETATM   14  C   UNL     1      41.145 -12.058   1.102  1.00  0.00     0.013 A 
HETATM   15  C   UNL     1      40.004 -12.009   0.291  1.00  0.00     0.037 A 
HETATM   16  C   UNL     1      38.746 -11.994   0.878  1.00  0.00     0.065 A 
HETATM   17  C   UNL     1      38.611 -12.042   2.255  1.00  0.00     0.037 A 
HETATM   18  C   UNL     1      39.750 -12.109   3.063  1.00  0.00     0.013 A 
BRANCH  16  19
HETATM   19  O   UNL     1      37.610 -11.944   0.127  1.00  0.00    -0.361 OA
HETATM   20  H   UNL     1      37.797 -12.321  -0.748  1.00  0.00     0.217 HD
ENDBRANCH  16  19
ENDBRANCH   7  13
BRANCH   1  21
HETATM   21  N   UNL     1      42.411 -11.886   5.915  1.00  0.00    -0.123 NA
HETATM   22  H   UNL     1      41.904 -10.992   5.939  1.00  0.00     0.165 HD
BRANCH  21  23
HETATM   23  S   UNL     1      44.044 -11.690   6.317  1.00  0.00     0.222 S 
HETATM   24  C   UNL     1      43.947 -10.293   7.416  1.00  0.00     0.181 C 
HETATM   25  O   UNL     1      44.776 -11.298   5.134  1.00  0.00    -0.210 OA
HETATM   26  O   UNL     1      44.429 -12.843   7.099  1.00  0.00    -0.210 OA
ENDBRANCH  21  23
ENDBRANCH   1  21
TORSDOF 4
ENDMDL
MODEL 6
REMARK VINA RESULT:      -6.8      3.394      5.516
REMARK  4 active torsions:
REMARK  status: ('A' for Active; 'I' for Inactive)
REMARK    1  A    between atoms: S_2  and  N_3 
REMARK    2  A    between atoms: N_3  and  N_4 
REMARK    3  A    between atoms: C_10  and  C_11 
REMARK    4  A    between atoms: C_14  and  O_15 
ROOT
HETATM    1  N   UNL     1      40.901 -11.756   1.757  1.00  0.00    -0.241 N 
HETATM    2  C   UNL     1      41.256 -11.353   0.481  1.00  0.00     0.272 C 
HETATM    3  O   UNL     1      41.888 -10.317   0.272  1.00  0.00    -0.266 OA
HETATM    4  C   UNL     1      40.763 -12.193  -0.625  1.00  0.00     0.054 A 
HETATM    5  C   UNL     1      39.710 -13.076  -0.341  1.00  0.00     0.026 A 
HETATM    6  N   UNL     1      39.188 -13.168   0.962  1.00  0.00    -0.265 NA
HETATM    7  C   UNL     1      40.201 -13.018   2.020  1.00  0.00     0.217 C 
HETATM    8  C   UNL     1      41.248 -12.030  -1.925  1.00  0.00     0.019 A 
HETATM    9  C   UNL     1      40.670 -12.756  -2.964  1.00  0.00     0.001 A 
HETATM   10  C   UNL     1      39.596 -13.610  -2.704  1.00  0.00     0.002 A 
HETATM   11  C   UNL     1      39.107 -13.755  -1.402  1.00  0.00     0.024 A 
HETATM   12  H   UNL     1      38.593 -13.976   1.101  1.00  0.00     0.130 HD
ENDROOT
BRANCH   7  13
HETATM   13  C   UNL     1      41.116 -14.253   2.089  1.00  0.00    -0.020 A 
HETATM   14  C   UNL     1      40.604 -15.552   2.264  1.00  0.00     0.013 A 
HETATM   15  C   UNL     1      41.445 -16.671   2.296  1.00  0.00     0.037 A 
HETATM   16  C   UNL     1      42.816 -16.502   2.154  1.00  0.00     0.065 A 
HETATM   17  C   UNL     1      43.354 -15.240   1.967  1.00  0.00     0.037 A 
HETATM   18  C   UNL     1      42.511 -14.125   1.917  1.00  0.00     0.013 A 
BRANCH  16  19
HETATM   19  O   UNL     1      43.672 -17.562   2.183  1.00  0.00    -0.361 OA
HETATM   20  H   UNL     1      43.837 -17.804   3.109  1.00  0.00     0.217 HD
ENDBRANCH  16  19
ENDBRANCH   7  13
BRANCH   1  21
HETATM   21  N   UNL     1      40.729 -10.653   2.737  1.00  0.00    -0.123 NA
HETATM   22  H   UNL     1      40.629  -9.736   2.283  1.00  0.00     0.165 HD
BRANCH  21  23
HETATM   23  S   UNL     1      41.732 -10.572   4.098  1.00  0.00     0.222 S 
HETATM   24  C   UNL     1      41.480  -8.879   4.591  1.00  0.00     0.181 C 
HETATM   25  O   UNL     1      43.107 -10.732   3.679  1.00  0.00    -0.210 OA
HETATM   26  O   UNL     1      41.145 -11.421   5.109  1.00  0.00    -0.210 OA
ENDBRANCH  21  23
ENDBRANCH   1  21
TORSDOF 4
ENDMDL
MODEL 7
REMARK VINA RESULT:      -6.8     16.323     18.502
REMARK  4 active torsions:
REMARK  status: ('A' for Active; 'I' for Inactive)
REMARK    1  A    between atoms: S_2  and  N_3 
REMARK    2  A    between atoms: N_3  and  N_4 
REMARK    3  A    between atoms: C_10  and  C_11 
REMARK    4  A    between atoms: C_14  and  O_15 
ROOT
HETATM    1  N   UNL     1      48.658 -30.254  -1.886  1.00  0.00    -0.241 N 
HETATM    2  C   UNL     1      47.784 -30.912  -2.735  1.00  0.00     0.272 C 
HETATM    3  O   UNL     1      48.094 -31.950  -3.320  1.00  0.00    -0.266 OA
HETATM    4  C   UNL     1      46.485 -30.254  -2.964  1.00  0.00     0.054 A 
HETATM    5  C   UNL     1      46.383 -28.896  -2.625  1.00  0.00     0.026 A 
HETATM    6  N   UNL     1      47.477 -28.220  -2.053  1.00  0.00    -0.265 NA
HETATM    7  C   UNL     1      48.277 -29.051  -1.138  1.00  0.00     0.217 C 
HETATM    8  C   UNL     1      45.438 -30.928  -3.600  1.00  0.00     0.019 A 
HETATM    9  C   UNL     1      44.270 -30.235  -3.908  1.00  0.00     0.001 A 
HETATM   10  C   UNL     1      44.168 -28.874  -3.612  1.00  0.00     0.002 A 
HETATM   11  C   UNL     1      45.226 -28.205  -2.990  1.00  0.00     0.024 A 
HETATM   12  H   UNL     1      47.230 -27.323  -1.653  1.00  0.00     0.130 HD
ENDROOT
BRANCH   7  13
HETATM   13  C   UNL     1      47.514 -29.327   0.169  1.00  0.00    -0.020 A 
HETATM   14  C   UNL     1      47.377 -30.626   0.694  1.00  0.00     0.013 A 
HETATM   15  C   UNL     1      46.705 -30.859   1.899  1.00  0.00     0.037 A 
HETATM   16  C   UNL     1      46.156 -29.791   2.596  1.00  0.00     0.065 A 
HETATM   17  C   UNL     1      46.281 -28.498   2.116  1.00  0.00     0.037 A 
HETATM   18  C   UNL     1      46.970 -28.264   0.922  1.00  0.00     0.013 A 
BRANCH  16  19
HETATM   19  O   UNL     1      45.489 -29.973   3.771  1.00  0.00    -0.361 OA
HETATM   20  H   UNL     1      44.538 -30.028   3.584  1.00  0.00     0.217 HD
ENDBRANCH  16  19
ENDBRANCH   7  13
BRANCH   1  21
HETATM   21  N   UNL     1      50.098 -30.447  -2.198  1.00  0.00    -0.123 NA
HETATM   22  H   UNL     1      50.246 -30.879  -3.119  1.00  0.00     0.165 HD
BRANCH  21  23
HETATM   23  S   UNL     1      51.132 -31.099  -1.028  1.00  0.00     0.222 S 
HETATM   24  C   UNL     1      50.284 -32.618  -0.649  1.00  0.00     0.181 C 
HETATM   25  O   UNL     1      51.111 -30.252   0.144  1.00  0.00    -0.210 OA
HETATM   26  O   UNL     1      52.369 -31.436  -1.695  1.00  0.00    -0.210 OA
ENDBRANCH  21  23
ENDBRANCH   1  21
TORSDOF 4
ENDMDL
MODEL 8
REMARK VINA RESULT:      -6.7      3.234      5.213
REMARK  4 active torsions:
REMARK  status: ('A' for Active; 'I' for Inactive)
REMARK    1  A    between atoms: S_2  and  N_3 
REMARK    2  A    between atoms: N_3  and  N_4 
REMARK    3  A    between atoms: C_10  and  C_11 
REMARK    4  A    between atoms: C_14  and  O_15 
ROOT
HETATM    1  N   UNL     1      42.666 -15.607   3.446  1.00  0.00    -0.241 N 
HETATM    2  C   UNL     1      41.783 -16.049   2.475  1.00  0.00     0.272 C 
HETATM    3  O   UNL     1      41.541 -17.244   2.304  1.00  0.00    -0.266 OA
HETATM    4  C   UNL     1      41.207 -15.011   1.601  1.00  0.00     0.054 A 
HETATM    5  C   UNL     1      41.853 -13.766   1.571  1.00  0.00     0.026 A 
HETATM    6  N   UNL     1      42.978 -13.526   2.381  1.00  0.00    -0.265 NA
HETATM    7  C   UNL     1      42.915 -14.183   3.697  1.00  0.00     0.217 C 
HETATM    8  C   UNL     1      40.134 -15.297   0.754  1.00  0.00     0.019 A 
HETATM    9  C   UNL     1      39.698 -14.327  -0.145  1.00  0.00     0.001 A 
HETATM   10  C   UNL     1      40.354 -13.096  -0.214  1.00  0.00     0.002 A 
HETATM   11  C   UNL     1      41.437 -12.824   0.628  1.00  0.00     0.024 A 
HETATM   12  H   UNL     1      43.227 -12.546   2.444  1.00  0.00     0.130 HD
ENDROOT
BRANCH   7  13
HETATM   13  C   UNL     1      41.874 -13.504   4.605  1.00  0.00    -0.020 A 
HETATM   14  C   UNL     1      40.906 -14.242   5.312  1.00  0.00     0.013 A 
HETATM   15  C   UNL     1      39.983 -13.614   6.156  1.00  0.00     0.037 A 
HETATM   16  C   UNL     1      40.015 -12.234   6.303  1.00  0.00     0.065 A 
HETATM   17  C   UNL     1      40.962 -11.477   5.632  1.00  0.00     0.037 A 
HETATM   18  C   UNL     1      41.895 -12.107   4.803  1.00  0.00     0.013 A 
BRANCH  16  19
HETATM   19  O   UNL     1      39.133 -11.581   7.111  1.00  0.00    -0.361 OA
HETATM   20  H   UNL     1      39.571 -11.383   7.954  1.00  0.00     0.217 HD
ENDBRANCH  16  19
ENDBRANCH   7  13
BRANCH   1  21
HETATM   21  N   UNL     1      43.742 -16.569   3.797  1.00  0.00    -0.123 NA
HETATM   22  H   UNL     1      43.909 -17.261   3.055  1.00  0.00     0.165 HD
BRANCH  21  23
HETATM   23  S   UNL     1      43.766 -17.279   5.334  1.00  0.00     0.222 S 
HETATM   24  C   UNL     1      44.209 -18.952   4.916  1.00  0.00     0.181 C 
HETATM   25  O   UNL     1      42.426 -17.276   5.875  1.00  0.00    -0.210 OA
HETATM   26  O   UNL     1      44.875 -16.694   6.054  1.00  0.00    -0.210 OA
ENDBRANCH  21  23
ENDBRANCH   1  21
TORSDOF 4
ENDMDL
MODEL 9
REMARK VINA RESULT:      -6.5      2.982      6.186
REMARK  4 active torsions:
REMARK  status: ('A' for Active; 'I' for Inactive)
REMARK    1  A    between atoms: S_2  and  N_3 
REMARK    2  A    between atoms: N_3  and  N_4 
REMARK    3  A    between atoms: C_10  and  C_11 
REMARK    4  A    between atoms: C_14  and  O_15 
ROOT
HETATM    1  N   UNL     1      42.157 -15.539   5.399  1.00  0.00    -0.241 N 
HETATM    2  C   UNL     1      42.669 -14.363   5.920  1.00  0.00     0.272 C 
HETATM    3  O   UNL     1      43.786 -14.304   6.434  1.00  0.00    -0.266 OA
HETATM    4  C   UNL     1      41.766 -13.197   5.899  1.00  0.00     0.054 A 
HETATM    5  C   UNL     1      40.398 -13.448   5.712  1.00  0.00     0.026 A 
HETATM    6  N   UNL     1      39.933 -14.761   5.513  1.00  0.00    -0.265 NA
HETATM    7  C   UNL     1      40.853 -15.604   4.731  1.00  0.00     0.217 C 
HETATM    8  C   UNL     1      42.242 -11.912   6.171  1.00  0.00     0.019 A 
HETATM    9  C   UNL     1      41.338 -10.856   6.263  1.00  0.00     0.001 A 
HETATM   10  C   UNL     1      39.970 -11.095   6.117  1.00  0.00     0.002 A 
HETATM   11  C   UNL     1      39.502 -12.387   5.861  1.00  0.00     0.024 A 
HETATM   12  H   UNL     1      38.979 -14.803   5.176  1.00  0.00     0.130 HD
ENDROOT
BRANCH   7  13
HETATM   13  C   UNL     1      40.870 -15.179   3.252  1.00  0.00    -0.020 A 
HETATM   14  C   UNL     1      41.900 -14.382   2.717  1.00  0.00     0.013 A 
HETATM   15  C   UNL     1      41.918 -14.026   1.363  1.00  0.00     0.037 A 
HETATM   16  C   UNL     1      40.901 -14.462   0.525  1.00  0.00     0.065 A 
HETATM   17  C   UNL     1      39.879 -15.257   1.014  1.00  0.00     0.037 A 
HETATM   18  C   UNL     1      39.871 -15.629   2.363  1.00  0.00     0.013 A 
BRANCH  16  19
HETATM   19  O   UNL     1      40.878 -14.135  -0.798  1.00  0.00    -0.361 OA
HETATM   20  H   UNL     1      41.768 -14.259  -1.165  1.00  0.00     0.217 HD
ENDBRANCH  16  19
ENDBRANCH   7  13
BRANCH   1  21
HETATM   21  N   UNL     1      42.673 -16.780   6.030  1.00  0.00    -0.123 NA
HETATM   22  H   UNL     1      42.931 -16.641   7.016  1.00  0.00     0.165 HD
BRANCH  21  23
HETATM   23  S   UNL     1      43.813 -17.729   5.213  1.00  0.00     0.222 S 
HETATM   24  C   UNL     1      43.615 -19.282   6.060  1.00  0.00     0.181 C 
HETATM   25  O   UNL     1      45.136 -17.216   5.488  1.00  0.00    -0.210 OA
HETATM   26  O   UNL     1      43.332 -17.897   3.860  1.00  0.00    -0.210 OA
ENDBRANCH  21  23
ENDBRANCH   1  21
TORSDOF 4
ENDMDL
MODEL 10
REMARK VINA RESULT:      -6.4      2.328      3.189
REMARK  4 active torsions:
REMARK  status: ('A' for Active; 'I' for Inactive)
REMARK    1  A    between atoms: S_2  and  N_3 
REMARK    2  A    between atoms: N_3  and  N_4 
REMARK    3  A    between atoms: C_10  and  C_11 
REMARK    4  A    between atoms: C_14  and  O_15 
ROOT
HETATM    1  N   UNL     1      42.636 -11.691   3.509  1.00  0.00    -0.241 N 
HETATM    2  C   UNL     1      42.701 -13.065   3.350  1.00  0.00     0.272 C 
HETATM    3  O   UNL     1      43.214 -13.587   2.360  1.00  0.00    -0.266 OA
HETATM    4  C   UNL     1      42.049 -13.871   4.398  1.00  0.00     0.054 A 
HETATM    5  C   UNL     1      41.130 -13.217   5.233  1.00  0.00     0.026 A 
HETATM    6  N   UNL     1      40.888 -11.838   5.086  1.00  0.00    -0.265 NA
HETATM    7  C   UNL     1      42.082 -11.061   4.713  1.00  0.00     0.217 C 
HETATM    8  C   UNL     1      42.251 -15.251   4.476  1.00  0.00     0.019 A 
HETATM    9  C   UNL     1      41.522 -15.996   5.400  1.00  0.00     0.001 A 
HETATM   10  C   UNL     1      40.577 -15.365   6.212  1.00  0.00     0.002 A 
HETATM   11  C   UNL     1      40.370 -13.986   6.116  1.00  0.00     0.024 A 
HETATM   12  H   UNL     1      40.384 -11.433   5.865  1.00  0.00     0.130 HD
ENDROOT
BRANCH   7  13
HETATM   13  C   UNL     1      43.066 -10.961   5.892  1.00  0.00    -0.020 A 
HETATM   14  C   UNL     1      42.685 -10.431   7.139  1.00  0.00     0.013 A 
HETATM   15  C   UNL     1      43.583 -10.372   8.212  1.00  0.00     0.037 A 
HETATM   16  C   UNL     1      44.878 -10.843   8.049  1.00  0.00     0.065 A 
HETATM   17  C   UNL     1      45.284 -11.382   6.840  1.00  0.00     0.037 A 
HETATM   18  C   UNL     1      44.382 -11.458   5.774  1.00  0.00     0.013 A 
BRANCH  16  19
HETATM   19  O   UNL     1      45.786 -10.801   9.065  1.00  0.00    -0.361 OA
HETATM   20  H   UNL     1      46.355 -10.024   8.942  1.00  0.00     0.217 HD
ENDBRANCH  16  19
ENDBRANCH   7  13
BRANCH   1  21
HETATM   21  N   UNL     1      42.597 -10.915   2.243  1.00  0.00    -0.123 NA
HETATM   22  H   UNL     1      43.125 -10.035   2.305  1.00  0.00     0.165 HD
BRANCH  21  23
HETATM   23  S   UNL     1      41.128 -10.708   1.429  1.00  0.00     0.222 S 
HETATM   24  C   UNL     1      40.721  -9.040   1.902  1.00  0.00     0.181 C 
HETATM   25  O   UNL     1      40.144 -11.603   1.997  1.00  0.00    -0.210 OA
HETATM   26  O   UNL     1      41.423 -10.708   0.014  1.00  0.00    -0.210 OA
ENDBRANCH  21  23
ENDBRANCH   1  21
TORSDOF 4
ENDMDL
