MODEL 1
REMARK VINA RESULT:      -8.3      0.000      0.000
REMARK  9 active torsions:
REMARK  status: ('A' for Active; 'I' for Inactive)
REMARK    1  A    between atoms: C_2  and  O_3 
REMARK    2  A    between atoms: O_3  and  C_4 
REMARK    3  A    between atoms: C_5  and  O_6 
REMARK    4  A    between atoms: O_6  and  C_7 
REMARK    5  A    between atoms: C_7  and  C_8 
REMARK       I    between atoms: C_8  and  N_9 
REMARK    6  A    between atoms: N_9  and  C_10 
REMARK    7  A    between atoms: C_19  and  C_20 
REMARK    8  A    between atoms: C_21  and  C_22 
REMARK    9  A    between atoms: C_27  and  C_28 
ROOT
HETATM    1  C   UNL     1      41.013 -14.346   4.184  1.00  0.00     0.102 A 
HETATM    2  C   UNL     1      42.422 -14.341   4.136  1.00  0.00     0.102 A 
HETATM    3  C   UNL     1      43.076 -14.678   2.949  1.00  0.00     0.040 A 
HETATM    4  C   UNL     1      42.338 -14.982   1.803  1.00  0.00     0.014 A 
HETATM    5  C   UNL     1      40.941 -14.956   1.831  1.00  0.00    -0.033 A 
HETATM    6  C   UNL     1      40.284 -14.661   3.032  1.00  0.00     0.051 A 
ENDROOT
BRANCH   2   7
HETATM    7  O   UNL     1      43.058 -13.980   5.300  1.00  0.00    -0.339 OA
BRANCH   7   8
HETATM    8  C   UNL     1      43.701 -14.998   6.055  1.00  0.00     0.278 C 
BRANCH   8   9
HETATM    9  C   UNL     1      43.257 -16.438   5.759  1.00  0.00     0.246 C 
HETATM   10  N   UNL     1      44.123 -17.097   4.904  1.00  0.00    -0.325 N 
HETATM   11  H   UNL     1      44.892 -16.534   4.549  1.00  0.00     0.169 HD
HETATM   12  O   UNL     1      42.252 -16.902   6.290  1.00  0.00    -0.271 OA
BRANCH  10  13
HETATM   13  C   UNL     1      44.016 -18.405   4.397  1.00  0.00     0.034 A 
HETATM   14  C   UNL     1      43.822 -18.706   3.048  1.00  0.00     0.029 A 
HETATM   15  C   UNL     1      43.734 -20.036   2.625  1.00  0.00     0.002 A 
HETATM   16  C   UNL     1      43.838 -21.075   3.547  1.00  0.00     0.000 A 
HETATM   17  C   UNL     1      44.031 -20.785   4.894  1.00  0.00     0.002 A 
HETATM   18  C   UNL     1      44.119 -19.456   5.317  1.00  0.00     0.029 A 
ENDBRANCH  10  13
ENDBRANCH   8   9
ENDBRANCH   7   8
ENDBRANCH   2   7
BRANCH   1  19
HETATM   19  O   UNL     1      40.453 -13.982   5.384  1.00  0.00    -0.349 OA
BRANCH  19  20
HETATM   20  C   UNL     1      39.603 -12.838   5.395  1.00  0.00     0.171 C 
HETATM   21  C   UNL     1      40.475 -11.607   5.220  1.00  0.00     0.034 C 
ENDBRANCH  19  20
ENDBRANCH   1  19
BRANCH   5  22
HETATM   22  C   UNL     1      40.145 -15.230   0.631  1.00  0.00     0.014 C 
HETATM   23  C   UNL     1      40.032 -14.345  -0.375  1.00  0.00     0.035 C 
BRANCH  23  24
HETATM   24  C   UNL     1      39.228 -14.531  -1.548  1.00  0.00     0.091 A 
HETATM   25  N   UNL     1      38.874 -15.741  -2.015  1.00  0.00    -0.175 NA
HETATM   26  N   UNL     1      38.126 -15.484  -3.093  1.00  0.00    -0.288 N 
HETATM   27  H   UNL     1      37.745 -16.271  -3.609  1.00  0.00     0.188 HD
HETATM   28  C   UNL     1      37.976 -14.156  -3.346  1.00  0.00     0.126 A 
HETATM   29  C   UNL     1      38.685 -13.493  -2.363  1.00  0.00     0.049 A 
BRANCH  29  30
HETATM   30  C   UNL     1      38.796 -12.053  -2.258  1.00  0.00     0.273 C 
HETATM   31  O   UNL     1      38.612 -11.270  -3.184  1.00  0.00    -0.301 OA
ENDBRANCH  29  30
ENDBRANCH  23  24
ENDBRANCH   5  22
TORSDOF 9
ENDMDL
MODEL 2
REMARK VINA RESULT:      -8.2      4.012      7.830
REMARK  9 active torsions:
REMARK  status: ('A' for Active; 'I' for Inactive)
REMARK    1  A    between atoms: C_2  and  O_3 
REMARK    2  A    between atoms: O_3  and  C_4 
REMARK    3  A    between atoms: C_5  and  O_6 
REMARK    4  A    between atoms: O_6  and  C_7 
REMARK    5  A    between atoms: C_7  and  C_8 
REMARK       I    between atoms: C_8  and  N_9 
REMARK    6  A    between atoms: N_9  and  C_10 
REMARK    7  A    between atoms: C_19  and  C_20 
REMARK    8  A    between atoms: C_21  and  C_22 
REMARK    9  A    between atoms: C_27  and  C_28 
ROOT
HETATM    1  C   UNL     1      41.719 -13.297   4.515  1.00  0.00     0.102 A 
HETATM    2  C   UNL     1      42.490 -13.033   3.364  1.00  0.00     0.102 A 
HETATM    3  C   UNL     1      43.437 -12.007   3.385  1.00  0.00     0.040 A 
HETATM    4  C   UNL     1      43.647 -11.271   4.553  1.00  0.00     0.014 A 
HETATM    5  C   UNL     1      42.912 -11.547   5.709  1.00  0.00    -0.033 A 
HETATM    6  C   UNL     1      41.932 -12.547   5.676  1.00  0.00     0.051 A 
ENDROOT
BRANCH   2   7
HETATM    7  O   UNL     1      42.245 -13.844   2.282  1.00  0.00    -0.339 OA
BRANCH   7   8
HETATM    8  C   UNL     1      43.203 -14.843   1.962  1.00  0.00     0.278 C 
BRANCH   8   9
HETATM    9  C   UNL     1      42.804 -16.289   2.291  1.00  0.00     0.246 C 
HETATM   10  N   UNL     1      43.842 -17.013   2.851  1.00  0.00    -0.325 N 
HETATM   11  H   UNL     1      44.728 -16.518   2.916  1.00  0.00     0.169 HD
HETATM   12  O   UNL     1      41.657 -16.680   2.091  1.00  0.00    -0.271 OA
BRANCH  10  13
HETATM   13  C   UNL     1      43.847 -18.363   3.246  1.00  0.00     0.034 A 
HETATM   14  C   UNL     1      43.584 -19.429   2.384  1.00  0.00     0.029 A 
HETATM   15  C   UNL     1      43.616 -20.746   2.855  1.00  0.00     0.002 A 
HETATM   16  C   UNL     1      43.909 -21.006   4.193  1.00  0.00     0.000 A 
HETATM   17  C   UNL     1      44.171 -19.950   5.060  1.00  0.00     0.002 A 
HETATM   18  C   UNL     1      44.140 -18.635   4.588  1.00  0.00     0.029 A 
ENDBRANCH  10  13
ENDBRANCH   8   9
ENDBRANCH   7   8
ENDBRANCH   2   7
BRANCH   1  19
HETATM   19  O   UNL     1      40.826 -14.336   4.412  1.00  0.00    -0.349 OA
BRANCH  19  20
HETATM   20  C   UNL     1      40.533 -15.072   5.598  1.00  0.00     0.171 C 
HETATM   21  C   UNL     1      41.520 -16.223   5.688  1.00  0.00     0.034 C 
ENDBRANCH  19  20
ENDBRANCH   1  19
BRANCH   5  22
HETATM   22  C   UNL     1      43.144 -10.817   6.959  1.00  0.00     0.014 C 
HETATM   23  C   UNL     1      43.886 -11.322   7.960  1.00  0.00     0.035 C 
BRANCH  23  24
HETATM   24  C   UNL     1      44.106 -10.681   9.225  1.00  0.00     0.091 A 
HETATM   25  N   UNL     1      43.801 -11.253  10.403  1.00  0.00    -0.175 NA
HETATM   26  N   UNL     1      44.169 -10.354  11.322  1.00  0.00    -0.288 N 
HETATM   27  H   UNL     1      44.027 -10.586  12.301  1.00  0.00     0.188 HD
HETATM   28  C   UNL     1      44.703  -9.222  10.791  1.00  0.00     0.126 A 
HETATM   29  C   UNL     1      44.679  -9.389   9.420  1.00  0.00     0.049 A 
BRANCH  29  30
HETATM   30  C   UNL     1      45.153  -8.411   8.463  1.00  0.00     0.273 C 
HETATM   31  O   UNL     1      46.200  -8.505   7.830  1.00  0.00    -0.301 OA
ENDBRANCH  29  30
ENDBRANCH  23  24
ENDBRANCH   5  22
TORSDOF 9
ENDMDL
MODEL 3
REMARK VINA RESULT:      -8.0      2.925      5.787
REMARK  9 active torsions:
REMARK  status: ('A' for Active; 'I' for Inactive)
REMARK    1  A    between atoms: C_2  and  O_3 
REMARK    2  A    between atoms: O_3  and  C_4 
REMARK    3  A    between atoms: C_5  and  O_6 
REMARK    4  A    between atoms: O_6  and  C_7 
REMARK    5  A    between atoms: C_7  and  C_8 
REMARK       I    between atoms: C_8  and  N_9 
REMARK    6  A    between atoms: N_9  and  C_10 
REMARK    7  A    between atoms: C_19  and  C_20 
REMARK    8  A    between atoms: C_21  and  C_22 
REMARK    9  A    between atoms: C_27  and  C_28 
ROOT
HETATM    1  C   UNL     1      42.546 -15.895   3.299  1.00  0.00     0.102 A 
HETATM    2  C   UNL     1      42.083 -15.028   4.310  1.00  0.00     0.102 A 
HETATM    3  C   UNL     1      40.927 -14.273   4.100  1.00  0.00     0.040 A 
HETATM    4  C   UNL     1      40.210 -14.406   2.908  1.00  0.00     0.014 A 
HETATM    5  C   UNL     1      40.641 -15.289   1.914  1.00  0.00    -0.033 A 
HETATM    6  C   UNL     1      41.824 -16.013   2.106  1.00  0.00     0.051 A 
ENDROOT
BRANCH   2   7
HETATM    7  O   UNL     1      42.828 -15.004   5.464  1.00  0.00    -0.339 OA
BRANCH   7   8
HETATM    8  C   UNL     1      42.511 -14.028   6.447  1.00  0.00     0.278 C 
BRANCH   8   9
HETATM    9  C   UNL     1      43.313 -12.720   6.379  1.00  0.00     0.246 C 
HETATM   10  N   UNL     1      43.646 -12.235   7.633  1.00  0.00    -0.325 N 
HETATM   11  H   UNL     1      43.274 -12.768   8.415  1.00  0.00     0.169 HD
HETATM   12  O   UNL     1      43.626 -12.235   5.296  1.00  0.00    -0.271 OA
BRANCH  10  13
HETATM   13  C   UNL     1      44.344 -11.056   7.952  1.00  0.00     0.034 A 
HETATM   14  C   UNL     1      45.680 -10.827   7.623  1.00  0.00     0.029 A 
HETATM   15  C   UNL     1      46.299  -9.621   7.970  1.00  0.00     0.002 A 
HETATM   16  C   UNL     1      45.586  -8.636   8.651  1.00  0.00     0.000 A 
HETATM   17  C   UNL     1      44.253  -8.856   8.983  1.00  0.00     0.002 A 
HETATM   18  C   UNL     1      43.635 -10.060   8.636  1.00  0.00     0.029 A 
ENDBRANCH  10  13
ENDBRANCH   8   9
ENDBRANCH   7   8
ENDBRANCH   2   7
BRANCH   1  19
HETATM   19  O   UNL     1      43.678 -16.613   3.598  1.00  0.00    -0.349 OA
BRANCH  19  20
HETATM   20  C   UNL     1      43.507 -17.955   4.049  1.00  0.00     0.171 C 
HETATM   21  C   UNL     1      43.906 -18.883   2.915  1.00  0.00     0.034 C 
ENDBRANCH  19  20
ENDBRANCH   1  19
BRANCH   5  22
HETATM   22  C   UNL     1      39.883 -15.477   0.674  1.00  0.00     0.014 C 
HETATM   23  C   UNL     1      39.909 -14.580  -0.328  1.00  0.00     0.035 C 
BRANCH  23  24
HETATM   24  C   UNL     1      39.150 -14.680  -1.541  1.00  0.00     0.091 A 
HETATM   25  N   UNL     1      38.889 -15.848  -2.153  1.00  0.00    -0.175 NA
HETATM   26  N   UNL     1      38.155 -15.517  -3.220  1.00  0.00    -0.288 N 
HETATM   27  H   UNL     1      37.841 -16.262  -3.834  1.00  0.00     0.188 HD
HETATM   28  C   UNL     1      37.925 -14.180  -3.327  1.00  0.00     0.126 A 
HETATM   29  C   UNL     1      38.561 -13.591  -2.252  1.00  0.00     0.049 A 
BRANCH  29  30
HETATM   30  C   UNL     1      38.575 -12.169  -1.982  1.00  0.00     0.273 C 
HETATM   31  O   UNL     1      38.756 -11.300  -2.828  1.00  0.00    -0.301 OA
ENDBRANCH  29  30
ENDBRANCH  23  24
ENDBRANCH   5  22
TORSDOF 9
ENDMDL
MODEL 4
REMARK VINA RESULT:      -8.0      4.379      8.613
REMARK  9 active torsions:
REMARK  status: ('A' for Active; 'I' for Inactive)
REMARK    1  A    between atoms: C_2  and  O_3 
REMARK    2  A    between atoms: O_3  and  C_4 
REMARK    3  A    between atoms: C_5  and  O_6 
REMARK    4  A    between atoms: O_6  and  C_7 
REMARK    5  A    between atoms: C_7  and  C_8 
REMARK       I    between atoms: C_8  and  N_9 
REMARK    6  A    between atoms: N_9  and  C_10 
REMARK    7  A    between atoms: C_19  and  C_20 
REMARK    8  A    between atoms: C_21  and  C_22 
REMARK    9  A    between atoms: C_27  and  C_28 
ROOT
HETATM    1  C   UNL     1      42.026 -13.454   5.320  1.00  0.00     0.102 A 
HETATM    2  C   UNL     1      42.881 -12.992   6.341  1.00  0.00     0.102 A 
HETATM    3  C   UNL     1      43.672 -13.901   7.046  1.00  0.00     0.040 A 
HETATM    4  C   UNL     1      43.645 -15.258   6.716  1.00  0.00     0.014 A 
HETATM    5  C   UNL     1      42.827 -15.721   5.682  1.00  0.00    -0.033 A 
HETATM    6  C   UNL     1      42.001 -14.817   5.004  1.00  0.00     0.051 A 
ENDROOT
BRANCH   2   7
HETATM    7  O   UNL     1      42.874 -11.635   6.558  1.00  0.00    -0.339 OA
BRANCH   7   8
HETATM    8  C   UNL     1      44.114 -10.992   6.822  1.00  0.00     0.278 C 
BRANCH   8   9
HETATM    9  C   UNL     1      44.370 -10.599   8.284  1.00  0.00     0.246 C 
HETATM   10  N   UNL     1      43.264 -10.017   8.880  1.00  0.00    -0.325 N 
HETATM   11  H   UNL     1      42.464  -9.880   8.266  1.00  0.00     0.169 HD
HETATM   12  O   UNL     1      45.451 -10.840   8.815  1.00  0.00    -0.271 OA
BRANCH  10  13
HETATM   13  C   UNL     1      43.146  -9.511  10.187  1.00  0.00     0.034 A 
HETATM   14  C   UNL     1      43.124  -8.151  10.498  1.00  0.00     0.029 A 
HETATM   15  C   UNL     1      42.997  -7.730  11.827  1.00  0.00     0.002 A 
HETATM   16  C   UNL     1      42.892  -8.666  12.853  1.00  0.00     0.000 A 
HETATM   17  C   UNL     1      42.914 -10.025  12.552  1.00  0.00     0.002 A 
HETATM   18  C   UNL     1      43.041 -10.445  11.226  1.00  0.00     0.029 A 
ENDBRANCH  10  13
ENDBRANCH   8   9
ENDBRANCH   7   8
ENDBRANCH   2   7
BRANCH   1  19
HETATM   19  O   UNL     1      41.300 -12.489   4.665  1.00  0.00    -0.349 OA
BRANCH  19  20
HETATM   20  C   UNL     1      39.879 -12.608   4.685  1.00  0.00     0.171 C 
HETATM   21  C   UNL     1      39.413 -12.876   3.265  1.00  0.00     0.034 C 
ENDBRANCH  19  20
ENDBRANCH   1  19
BRANCH   5  22
HETATM   22  C   UNL     1      42.813 -17.133   5.289  1.00  0.00     0.014 C 
HETATM   23  C   UNL     1      43.938 -17.859   5.174  1.00  0.00     0.035 C 
BRANCH  23  24
HETATM   24  C   UNL     1      43.995 -19.227   4.743  1.00  0.00     0.091 A 
HETATM   25  N   UNL     1      44.270 -20.249   5.570  1.00  0.00    -0.175 NA
HETATM   26  N   UNL     1      44.211 -21.338   4.797  1.00  0.00    -0.288 N 
HETATM   27  H   UNL     1      44.388 -22.241   5.227  1.00  0.00     0.188 HD
HETATM   28  C   UNL     1      43.906 -21.067   3.499  1.00  0.00     0.126 A 
HETATM   29  C   UNL     1      43.760 -19.695   3.416  1.00  0.00     0.049 A 
BRANCH  29  30
HETATM   30  C   UNL     1      43.437 -18.975   2.202  1.00  0.00     0.273 C 
HETATM   31  O   UNL     1      42.420 -18.310   2.035  1.00  0.00    -0.301 OA
ENDBRANCH  29  30
ENDBRANCH  23  24
ENDBRANCH   5  22
TORSDOF 9
ENDMDL
MODEL 5
REMARK VINA RESULT:      -7.9      4.598      8.890
REMARK  9 active torsions:
REMARK  status: ('A' for Active; 'I' for Inactive)
REMARK    1  A    between atoms: C_2  and  O_3 
REMARK    2  A    between atoms: O_3  and  C_4 
REMARK    3  A    between atoms: C_5  and  O_6 
REMARK    4  A    between atoms: O_6  and  C_7 
REMARK    5  A    between atoms: C_7  and  C_8 
REMARK       I    between atoms: C_8  and  N_9 
REMARK    6  A    between atoms: N_9  and  C_10 
REMARK    7  A    between atoms: C_19  and  C_20 
REMARK    8  A    between atoms: C_21  and  C_22 
REMARK    9  A    between atoms: C_27  and  C_28 
ROOT
HETATM    1  C   UNL     1      42.535 -12.977   4.997  1.00  0.00     0.102 A 
HETATM    2  C   UNL     1      43.142 -12.763   6.251  1.00  0.00     0.102 A 
HETATM    3  C   UNL     1      43.568 -13.854   7.011  1.00  0.00     0.040 A 
HETATM    4  C   UNL     1      43.428 -15.152   6.514  1.00  0.00     0.014 A 
HETATM    5  C   UNL     1      42.859 -15.373   5.257  1.00  0.00    -0.033 A 
HETATM    6  C   UNL     1      42.392 -14.282   4.513  1.00  0.00     0.051 A 
ENDROOT
BRANCH   2   7
HETATM    7  O   UNL     1      43.280 -11.449   6.632  1.00  0.00    -0.339 OA
BRANCH   7   8
HETATM    8  C   UNL     1      44.030 -11.166   7.805  1.00  0.00     0.278 C 
BRANCH   8   9
HETATM    9  C   UNL     1      43.458 -10.075   8.722  1.00  0.00     0.246 C 
HETATM   10  N   UNL     1      43.366 -10.484  10.042  1.00  0.00    -0.325 N 
HETATM   11  H   UNL     1      43.631 -11.450  10.214  1.00  0.00     0.169 HD
HETATM   12  O   UNL     1      43.172  -8.969   8.272  1.00  0.00    -0.271 OA
BRANCH  10  13
HETATM   13  C   UNL     1      42.864  -9.763  11.141  1.00  0.00     0.034 A 
HETATM   14  C   UNL     1      41.575  -9.917  11.653  1.00  0.00     0.029 A 
HETATM   15  C   UNL     1      41.157  -9.166  12.757  1.00  0.00     0.002 A 
HETATM   16  C   UNL     1      42.024  -8.255  13.356  1.00  0.00     0.000 A 
HETATM   17  C   UNL     1      43.311  -8.094  12.852  1.00  0.00     0.002 A 
HETATM   18  C   UNL     1      43.729  -8.844  11.750  1.00  0.00     0.029 A 
ENDBRANCH  10  13
ENDBRANCH   8   9
ENDBRANCH   7   8
ENDBRANCH   2   7
BRANCH   1  19
HETATM   19  O   UNL     1      42.165 -11.847   4.310  1.00  0.00    -0.349 OA
BRANCH  19  20
HETATM   20  C   UNL     1      42.879 -11.541   3.114  1.00  0.00     0.171 C 
HETATM   21  C   UNL     1      41.871 -11.424   1.985  1.00  0.00     0.034 C 
ENDBRANCH  19  20
ENDBRANCH   1  19
BRANCH   5  22
HETATM   22  C   UNL     1      42.741 -16.722   4.695  1.00  0.00     0.014 C 
HETATM   23  C   UNL     1      43.729 -17.296   3.986  1.00  0.00     0.035 C 
BRANCH  23  24
HETATM   24  C   UNL     1      43.654 -18.588   3.367  1.00  0.00     0.091 A 
HETATM   25  N   UNL     1      43.374 -18.765   2.064  1.00  0.00    -0.175 NA
HETATM   26  N   UNL     1      43.416 -20.089   1.884  1.00  0.00    -0.288 N 
HETATM   27  H   UNL     1      43.232 -20.451   0.953  1.00  0.00     0.188 HD
HETATM   28  C   UNL     1      43.714 -20.782   3.017  1.00  0.00     0.126 A 
HETATM   29  C   UNL     1      43.874 -19.840   4.015  1.00  0.00     0.049 A 
BRANCH  29  30
HETATM   30  C   UNL     1      44.196 -20.148   5.392  1.00  0.00     0.273 C 
HETATM   31  O   UNL     1      43.424 -20.018   6.336  1.00  0.00    -0.301 OA
ENDBRANCH  29  30
ENDBRANCH  23  24
ENDBRANCH   5  22
TORSDOF 9
ENDMDL
MODEL 6
REMARK VINA RESULT:      -7.9      4.981      7.837
REMARK  9 active torsions:
REMARK  status: ('A' for Active; 'I' for Inactive)
REMARK    1  A    between atoms: C_2  and  O_3 
REMARK    2  A    between atoms: O_3  and  C_4 
REMARK    3  A    between atoms: C_5  and  O_6 
REMARK    4  A    between atoms: O_6  and  C_7 
REMARK    5  A    between atoms: C_7  and  C_8 
REMARK       I    between atoms: C_8  and  N_9 
REMARK    6  A    between atoms: N_9  and  C_10 
REMARK    7  A    between atoms: C_19  and  C_20 
REMARK    8  A    between atoms: C_21  and  C_22 
REMARK    9  A    between atoms: C_27  and  C_28 
ROOT
HETATM    1  C   UNL     1      43.293 -13.640   6.422  1.00  0.00     0.102 A 
HETATM    2  C   UNL     1      43.823 -12.356   6.664  1.00  0.00     0.102 A 
HETATM    3  C   UNL     1      44.002 -11.468   5.601  1.00  0.00     0.040 A 
HETATM    4  C   UNL     1      43.621 -11.836   4.309  1.00  0.00     0.014 A 
HETATM    5  C   UNL     1      43.063 -13.093   4.063  1.00  0.00    -0.033 A 
HETATM    6  C   UNL     1      42.924 -14.000   5.121  1.00  0.00     0.051 A 
ENDROOT
BRANCH   2   7
HETATM    7  O   UNL     1      44.120 -12.070   7.975  1.00  0.00    -0.339 OA
BRANCH   7   8
HETATM    8  C   UNL     1      44.338 -10.712   8.332  1.00  0.00     0.278 C 
BRANCH   8   9
HETATM    9  C   UNL     1      44.315 -10.399   9.835  1.00  0.00     0.246 C 
HETATM   10  N   UNL     1      43.101  -9.878  10.251  1.00  0.00    -0.325 N 
HETATM   11  H   UNL     1      42.422  -9.722   9.511  1.00  0.00     0.169 HD
HETATM   12  O   UNL     1      45.289 -10.648  10.540  1.00  0.00    -0.271 OA
BRANCH  10  13
HETATM   13  C   UNL     1      42.735  -9.451  11.541  1.00  0.00     0.034 A 
HETATM   14  C   UNL     1      41.683 -10.001  12.275  1.00  0.00     0.029 A 
HETATM   15  C   UNL     1      41.388  -9.524  13.557  1.00  0.00     0.002 A 
HETATM   16  C   UNL     1      42.142  -8.493  14.113  1.00  0.00     0.000 A 
HETATM   17  C   UNL     1      43.193  -7.938  13.388  1.00  0.00     0.002 A 
HETATM   18  C   UNL     1      43.487  -8.415  12.108  1.00  0.00     0.029 A 
ENDBRANCH  10  13
ENDBRANCH   8   9
ENDBRANCH   7   8
ENDBRANCH   2   7
BRANCH   1  19
HETATM   19  O   UNL     1      43.133 -14.440   7.527  1.00  0.00    -0.349 OA
BRANCH  19  20
HETATM   20  C   UNL     1      42.643 -15.762   7.316  1.00  0.00     0.171 C 
HETATM   21  C   UNL     1      43.801 -16.725   7.508  1.00  0.00     0.034 C 
ENDBRANCH  19  20
ENDBRANCH   1  19
BRANCH   5  22
HETATM   22  C   UNL     1      42.616 -13.486   2.724  1.00  0.00     0.014 C 
HETATM   23  C   UNL     1      41.567 -12.906   2.116  1.00  0.00     0.035 C 
BRANCH  23  24
HETATM   24  C   UNL     1      41.049 -13.281   0.831  1.00  0.00     0.091 A 
HETATM   25  N   UNL     1      41.095 -12.477  -0.245  1.00  0.00    -0.175 NA
HETATM   26  N   UNL     1      40.535 -13.191  -1.227  1.00  0.00    -0.288 N 
HETATM   27  H   UNL     1      40.467 -12.767  -2.147  1.00  0.00     0.188 HD
HETATM   28  C   UNL     1      40.129 -14.429  -0.835  1.00  0.00     0.126 A 
HETATM   29  C   UNL     1      40.441 -14.530   0.507  1.00  0.00     0.049 A 
BRANCH  29  30
HETATM   30  C   UNL     1      40.173 -15.693   1.328  1.00  0.00     0.273 C 
HETATM   31  O   UNL     1      39.459 -15.694   2.325  1.00  0.00    -0.301 OA
ENDBRANCH  29  30
ENDBRANCH  23  24
ENDBRANCH   5  22
TORSDOF 9
ENDMDL
MODEL 7
REMARK VINA RESULT:      -7.9      4.347      8.191
REMARK  9 active torsions:
REMARK  status: ('A' for Active; 'I' for Inactive)
REMARK    1  A    between atoms: C_2  and  O_3 
REMARK    2  A    between atoms: O_3  and  C_4 
REMARK    3  A    between atoms: C_5  and  O_6 
REMARK    4  A    between atoms: O_6  and  C_7 
REMARK    5  A    between atoms: C_7  and  C_8 
REMARK       I    between atoms: C_8  and  N_9 
REMARK    6  A    between atoms: N_9  and  C_10 
REMARK    7  A    between atoms: C_19  and  C_20 
REMARK    8  A    between atoms: C_21  and  C_22 
REMARK    9  A    between atoms: C_27  and  C_28 
ROOT
HETATM    1  C   UNL     1      43.091 -13.309   5.207  1.00  0.00     0.102 A 
HETATM    2  C   UNL     1      43.113 -12.936   3.848  1.00  0.00     0.102 A 
HETATM    3  C   UNL     1      42.912 -11.600   3.493  1.00  0.00     0.040 A 
HETATM    4  C   UNL     1      42.728 -10.632   4.483  1.00  0.00     0.014 A 
HETATM    5  C   UNL     1      42.739 -10.986   5.834  1.00  0.00    -0.033 A 
HETATM    6  C   UNL     1      42.896 -12.332   6.189  1.00  0.00     0.051 A 
ENDROOT
BRANCH   2   7
HETATM    7  O   UNL     1      43.350 -13.951   2.952  1.00  0.00    -0.339 OA
BRANCH   7   8
HETATM    8  C   UNL     1      42.235 -14.555   2.313  1.00  0.00     0.278 C 
BRANCH   8   9
HETATM    9  C   UNL     1      42.084 -16.070   2.512  1.00  0.00     0.246 C 
HETATM   10  N   UNL     1      43.247 -16.664   2.972  1.00  0.00    -0.325 N 
HETATM   11  H   UNL     1      44.045 -16.040   3.061  1.00  0.00     0.169 HD
HETATM   12  O   UNL     1      41.007 -16.623   2.305  1.00  0.00    -0.271 OA
BRANCH  10  13
HETATM   13  C   UNL     1      43.482 -18.026   3.235  1.00  0.00     0.034 A 
HETATM   14  C   UNL     1      43.929 -18.519   4.461  1.00  0.00     0.029 A 
HETATM   15  C   UNL     1      44.131 -19.891   4.643  1.00  0.00     0.002 A 
HETATM   16  C   UNL     1      43.890 -20.781   3.598  1.00  0.00     0.000 A 
HETATM   17  C   UNL     1      43.444 -20.299   2.371  1.00  0.00     0.002 A 
HETATM   18  C   UNL     1      43.242 -18.928   2.190  1.00  0.00     0.029 A 
ENDBRANCH  10  13
ENDBRANCH   8   9
ENDBRANCH   7   8
ENDBRANCH   2   7
BRANCH   1  19
HETATM   19  O   UNL     1      43.317 -14.639   5.466  1.00  0.00    -0.349 OA
BRANCH  19  20
HETATM   20  C   UNL     1      42.591 -15.234   6.540  1.00  0.00     0.171 C 
HETATM   21  C   UNL     1      41.208 -15.592   6.026  1.00  0.00     0.034 C 
ENDBRANCH  19  20
ENDBRANCH   1  19
BRANCH   5  22
HETATM   22  C   UNL     1      42.590  -9.983   6.892  1.00  0.00     0.014 C 
HETATM   23  C   UNL     1      43.484  -9.850   7.888  1.00  0.00     0.035 C 
BRANCH  23  24
HETATM   24  C   UNL     1      43.368  -8.925   8.979  1.00  0.00     0.091 A 
HETATM   25  N   UNL     1      43.242  -7.598   8.810  1.00  0.00    -0.175 NA
HETATM   26  N   UNL     1      43.148  -7.104  10.049  1.00  0.00    -0.288 N 
HETATM   27  H   UNL     1      43.042  -6.100  10.157  1.00  0.00     0.188 HD
HETATM   28  C   UNL     1      43.205  -8.057  11.019  1.00  0.00     0.126 A 
HETATM   29  C   UNL     1      43.354  -9.265  10.365  1.00  0.00     0.049 A 
BRANCH  29  30
HETATM   30  C   UNL     1      43.462 -10.549  11.025  1.00  0.00     0.273 C 
HETATM   31  O   UNL     1      44.518 -11.128  11.257  1.00  0.00    -0.301 OA
ENDBRANCH  29  30
ENDBRANCH  23  24
ENDBRANCH   5  22
TORSDOF 9
ENDMDL
MODEL 8
REMARK VINA RESULT:      -7.8      2.125      5.296
REMARK  9 active torsions:
REMARK  status: ('A' for Active; 'I' for Inactive)
REMARK    1  A    between atoms: C_2  and  O_3 
REMARK    2  A    between atoms: O_3  and  C_4 
REMARK    3  A    between atoms: C_5  and  O_6 
REMARK    4  A    between atoms: O_6  and  C_7 
REMARK    5  A    between atoms: C_7  and  C_8 
REMARK       I    between atoms: C_8  and  N_9 
REMARK    6  A    between atoms: N_9  and  C_10 
REMARK    7  A    between atoms: C_19  and  C_20 
REMARK    8  A    between atoms: C_21  and  C_22 
REMARK    9  A    between atoms: C_27  and  C_28 
ROOT
HETATM    1  C   UNL     1      42.896 -17.372   3.472  1.00  0.00     0.102 A 
HETATM    2  C   UNL     1      42.467 -16.984   4.757  1.00  0.00     0.102 A 
HETATM    3  C   UNL     1      41.314 -16.208   4.898  1.00  0.00     0.040 A 
HETATM    4  C   UNL     1      40.567 -15.851   3.773  1.00  0.00     0.014 A 
HETATM    5  C   UNL     1      40.965 -16.260   2.498  1.00  0.00    -0.033 A 
HETATM    6  C   UNL     1      42.144 -17.000   2.351  1.00  0.00     0.051 A 
ENDROOT
BRANCH   2   7
HETATM    7  O   UNL     1      43.240 -17.425   5.804  1.00  0.00    -0.339 OA
BRANCH   7   8
HETATM    8  C   UNL     1      44.182 -16.524   6.369  1.00  0.00     0.278 C 
BRANCH   8   9
HETATM    9  C   UNL     1      43.600 -15.248   6.995  1.00  0.00     0.246 C 
HETATM   10  N   UNL     1      43.910 -14.111   6.270  1.00  0.00    -0.325 N 
HETATM   11  H   UNL     1      44.515 -14.262   5.467  1.00  0.00     0.169 HD
HETATM   12  O   UNL     1      42.910 -15.310   8.009  1.00  0.00    -0.271 OA
BRANCH  10  13
HETATM   13  C   UNL     1      43.573 -12.776   6.560  1.00  0.00     0.034 A 
HETATM   14  C   UNL     1      44.384 -11.908   7.292  1.00  0.00     0.029 A 
HETATM   15  C   UNL     1      43.978 -10.590   7.531  1.00  0.00     0.002 A 
HETATM   16  C   UNL     1      42.757 -10.132   7.041  1.00  0.00     0.000 A 
HETATM   17  C   UNL     1      41.941 -10.991   6.310  1.00  0.00     0.002 A 
HETATM   18  C   UNL     1      42.347 -12.306   6.072  1.00  0.00     0.029 A 
ENDBRANCH  10  13
ENDBRANCH   8   9
ENDBRANCH   7   8
ENDBRANCH   2   7
BRANCH   1  19
HETATM   19  O   UNL     1      44.027 -18.149   3.427  1.00  0.00    -0.349 OA
BRANCH  19  20
HETATM   20  C   UNL     1      43.933 -19.413   2.773  1.00  0.00     0.171 C 
HETATM   21  C   UNL     1      43.895 -20.490   3.842  1.00  0.00     0.034 C 
ENDBRANCH  19  20
ENDBRANCH   1  19
BRANCH   5  22
HETATM   22  C   UNL     1      40.175 -15.934   1.307  1.00  0.00     0.014 C 
HETATM   23  C   UNL     1      40.386 -14.818   0.587  1.00  0.00     0.035 C 
BRANCH  23  24
HETATM   24  C   UNL     1      39.614 -14.416  -0.554  1.00  0.00     0.091 A 
HETATM   25  N   UNL     1      39.145 -15.283  -1.468  1.00  0.00    -0.175 NA
HETATM   26  N   UNL     1      38.476 -14.525  -2.343  1.00  0.00    -0.288 N 
HETATM   27  H   UNL     1      38.030 -14.986  -3.131  1.00  0.00     0.188 HD
HETATM   28  C   UNL     1      38.489 -13.200  -2.035  1.00  0.00     0.126 A 
HETATM   29  C   UNL     1      39.226 -13.081  -0.873  1.00  0.00     0.049 A 
BRANCH  29  30
HETATM   30  C   UNL     1      39.495 -11.830  -0.195  1.00  0.00     0.273 C 
HETATM   31  O   UNL     1      40.608 -11.329  -0.071  1.00  0.00    -0.301 OA
ENDBRANCH  29  30
ENDBRANCH  23  24
ENDBRANCH   5  22
TORSDOF 9
ENDMDL
MODEL 9
REMARK VINA RESULT:      -7.8      4.205      8.011
REMARK  9 active torsions:
REMARK  status: ('A' for Active; 'I' for Inactive)
REMARK    1  A    between atoms: C_2  and  O_3 
REMARK    2  A    between atoms: O_3  and  C_4 
REMARK    3  A    between atoms: C_5  and  O_6 
REMARK    4  A    between atoms: O_6  and  C_7 
REMARK    5  A    between atoms: C_7  and  C_8 
REMARK       I    between atoms: C_8  and  N_9 
REMARK    6  A    between atoms: N_9  and  C_10 
REMARK    7  A    between atoms: C_19  and  C_20 
REMARK    8  A    between atoms: C_21  and  C_22 
REMARK    9  A    between atoms: C_27  and  C_28 
ROOT
HETATM    1  C   UNL     1      42.998 -11.856   3.492  1.00  0.00     0.102 A 
HETATM    2  C   UNL     1      43.118 -13.261   3.515  1.00  0.00     0.102 A 
HETATM    3  C   UNL     1      43.270 -13.924   4.734  1.00  0.00     0.040 A 
HETATM    4  C   UNL     1      43.265 -13.202   5.930  1.00  0.00     0.014 A 
HETATM    5  C   UNL     1      43.113 -11.812   5.921  1.00  0.00    -0.033 A 
HETATM    6  C   UNL     1      43.004 -11.143   4.696  1.00  0.00     0.051 A 
ENDROOT
BRANCH   2   7
HETATM    7  O   UNL     1      43.061 -13.885   2.292  1.00  0.00    -0.339 OA
BRANCH   7   8
HETATM    8  C   UNL     1      41.953 -14.733   2.023  1.00  0.00     0.278 C 
BRANCH   8   9
HETATM    9  C   UNL     1      41.947 -16.084   2.752  1.00  0.00     0.246 C 
HETATM   10  N   UNL     1      43.081 -16.834   2.491  1.00  0.00    -0.325 N 
HETATM   11  H   UNL     1      43.727 -16.423   1.822  1.00  0.00     0.169 HD
HETATM   12  O   UNL     1      41.022 -16.385   3.502  1.00  0.00    -0.271 OA
BRANCH  10  13
HETATM   13  C   UNL     1      43.398 -18.123   2.959  1.00  0.00     0.034 A 
HETATM   14  C   UNL     1      43.887 -18.390   4.238  1.00  0.00     0.029 A 
HETATM   15  C   UNL     1      44.170 -19.704   4.628  1.00  0.00     0.002 A 
HETATM   16  C   UNL     1      43.967 -20.759   3.742  1.00  0.00     0.000 A 
HETATM   17  C   UNL     1      43.480 -20.502   2.463  1.00  0.00     0.002 A 
HETATM   18  C   UNL     1      43.197 -19.190   2.074  1.00  0.00     0.029 A 
ENDBRANCH  10  13
ENDBRANCH   8   9
ENDBRANCH   7   8
ENDBRANCH   2   7
BRANCH   1  19
HETATM   19  O   UNL     1      42.833 -11.289   2.252  1.00  0.00    -0.349 OA
BRANCH  19  20
HETATM   20  C   UNL     1      41.658 -10.510   2.036  1.00  0.00     0.171 C 
HETATM   21  C   UNL     1      41.234 -10.695   0.590  1.00  0.00     0.034 C 
ENDBRANCH  19  20
ENDBRANCH   1  19
BRANCH   5  22
HETATM   22  C   UNL     1      43.062 -11.038   7.164  1.00  0.00     0.014 C 
HETATM   23  C   UNL     1      43.966 -11.194   8.146  1.00  0.00     0.035 C 
BRANCH  23  24
HETATM   24  C   UNL     1      43.941 -10.506   9.405  1.00  0.00     0.091 A 
HETATM   25  N   UNL     1      43.888 -11.140  10.590  1.00  0.00    -0.175 NA
HETATM   26  N   UNL     1      43.898 -10.160  11.500  1.00  0.00    -0.288 N 
HETATM   27  H   UNL     1      43.865 -10.420  12.481  1.00  0.00     0.188 HD
HETATM   28  C   UNL     1      43.958  -8.915  10.957  1.00  0.00     0.126 A 
HETATM   29  C   UNL     1      43.983  -9.092   9.587  1.00  0.00     0.049 A 
BRANCH  29  30
HETATM   30  C   UNL     1      44.042  -8.016   8.619  1.00  0.00     0.273 C 
HETATM   31  O   UNL     1      44.866  -7.108   8.634  1.00  0.00    -0.301 OA
ENDBRANCH  29  30
ENDBRANCH  23  24
ENDBRANCH   5  22
TORSDOF 9
ENDMDL
MODEL 10
REMARK VINA RESULT:      -7.8      2.320      7.927
REMARK  9 active torsions:
REMARK  status: ('A' for Active; 'I' for Inactive)
REMARK    1  A    between atoms: C_2  and  O_3 
REMARK    2  A    between atoms: O_3  and  C_4 
REMARK    3  A    between atoms: C_5  and  O_6 
REMARK    4  A    between atoms: O_6  and  C_7 
REMARK    5  A    between atoms: C_7  and  C_8 
REMARK       I    between atoms: C_8  and  N_9 
REMARK    6  A    between atoms: N_9  and  C_10 
REMARK    7  A    between atoms: C_19  and  C_20 
REMARK    8  A    between atoms: C_21  and  C_22 
REMARK    9  A    between atoms: C_27  and  C_28 
ROOT
HETATM    1  C   UNL     1      42.822 -12.826   4.028  1.00  0.00     0.102 A 
HETATM    2  C   UNL     1      42.725 -12.711   2.626  1.00  0.00     0.102 A 
HETATM    3  C   UNL     1      42.804 -13.856   1.830  1.00  0.00     0.040 A 
HETATM    4  C   UNL     1      42.941 -15.113   2.422  1.00  0.00     0.014 A 
HETATM    5  C   UNL     1      43.003 -15.241   3.813  1.00  0.00    -0.033 A 
HETATM    6  C   UNL     1      42.968 -14.090   4.609  1.00  0.00     0.051 A 
ENDROOT
BRANCH   2   7
HETATM    7  O   UNL     1      42.542 -11.438   2.141  1.00  0.00    -0.339 OA
BRANCH   7   8
HETATM    8  C   UNL     1      41.231 -11.052   1.751  1.00  0.00     0.278 C 
BRANCH   8   9
HETATM    9  C   UNL     1      40.810 -11.444   0.327  1.00  0.00     0.246 C 
HETATM   10  N   UNL     1      39.820 -12.412   0.314  1.00  0.00    -0.325 N 
HETATM   11  H   UNL     1      39.549 -12.766   1.227  1.00  0.00     0.169 HD
HETATM   12  O   UNL     1      41.311 -10.890  -0.647  1.00  0.00    -0.271 OA
BRANCH  10  13
HETATM   13  C   UNL     1      39.220 -13.026  -0.801  1.00  0.00     0.034 A 
HETATM   14  C   UNL     1      39.660 -14.225  -1.362  1.00  0.00     0.029 A 
HETATM   15  C   UNL     1      39.002 -14.774  -2.468  1.00  0.00     0.002 A 
HETATM   16  C   UNL     1      37.899 -14.126  -3.022  1.00  0.00     0.000 A 
HETATM   17  C   UNL     1      37.453 -12.929  -2.469  1.00  0.00     0.002 A 
HETATM   18  C   UNL     1      38.111 -12.382  -1.364  1.00  0.00     0.029 A 
ENDBRANCH  10  13
ENDBRANCH   8   9
ENDBRANCH   7   8
ENDBRANCH   2   7
BRANCH   1  19
HETATM   19  O   UNL     1      42.713 -11.652   4.733  1.00  0.00    -0.349 OA
BRANCH  19  20
HETATM   20  C   UNL     1      41.763 -11.608   5.795  1.00  0.00     0.171 C 
HETATM   21  C   UNL     1      40.735 -10.543   5.458  1.00  0.00     0.034 C 
ENDBRANCH  19  20
ENDBRANCH   1  19
BRANCH   5  22
HETATM   22  C   UNL     1      43.104 -16.552   4.459  1.00  0.00     0.014 C 
HETATM   23  C   UNL     1      43.716 -17.598   3.874  1.00  0.00     0.035 C 
BRANCH  23  24
HETATM   24  C   UNL     1      43.801 -18.918   4.430  1.00  0.00     0.091 A 
HETATM   25  N   UNL     1      43.763 -19.165   5.751  1.00  0.00    -0.175 NA
HETATM   26  N   UNL     1      43.851 -20.495   5.851  1.00  0.00    -0.288 N 
HETATM   27  H   UNL     1      43.840 -20.906   6.780  1.00  0.00     0.188 HD
HETATM   28  C   UNL     1      43.943 -21.125   4.649  1.00  0.00     0.126 A 
HETATM   29  C   UNL     1      43.918 -20.131   3.689  1.00  0.00     0.049 A 
BRANCH  29  30
HETATM   30  C   UNL     1      43.998 -20.364   2.263  1.00  0.00     0.273 C 
HETATM   31  O   UNL     1      43.042 -20.642   1.546  1.00  0.00    -0.301 OA
ENDBRANCH  29  30
ENDBRANCH  23  24
ENDBRANCH   5  22
TORSDOF 9
ENDMDL
