MODEL 1
REMARK VINA RESULT:      -9.4      0.000      0.000
REMARK  7 active torsions:
REMARK  status: ('A' for Active; 'I' for Inactive)
REMARK    1  A    between atoms: O_2  and  C_3 
REMARK    2  A    between atoms: C_6  and  C_7 
REMARK    3  A    between atoms: C_7  and  C_8 
REMARK    4  A    between atoms: C_7  and  C_14 
REMARK    5  A    between atoms: C_14  and  C_15 
REMARK       I    between atoms: C_15  and  N_16 
REMARK    6  A    between atoms: N_16  and  C_17 
REMARK    7  A    between atoms: C_17  and  C_18 
ROOT
HETATM    1  C   UNL     1      43.039 -17.033   4.538  1.00  0.00     0.060 C 
ENDROOT
BRANCH   1   2
HETATM    2  C   UNL     1      42.487 -16.136   3.425  1.00  0.00    -0.049 A 
HETATM    3  C   UNL     1      41.105 -16.171   3.151  1.00  0.00     0.010 A 
HETATM    4  C   UNL     1      40.540 -15.377   2.149  1.00  0.00     0.037 A 
HETATM    5  C   UNL     1      41.333 -14.513   1.399  1.00  0.00     0.068 A 
HETATM    6  C   UNL     1      42.696 -14.440   1.676  1.00  0.00     0.037 A 
HETATM    7  C   UNL     1      43.263 -15.237   2.683  1.00  0.00     0.010 A 
BRANCH   5   8
HETATM    8  O   UNL     1      40.664 -13.798   0.446  1.00  0.00    -0.356 OA
HETATM    9  C   UNL     1      39.869 -14.540  -0.470  1.00  0.00     0.210 C 
ENDBRANCH   5   8
ENDBRANCH   1   2
BRANCH   1  10
HETATM   10  C   UNL     1      43.410 -18.457   4.109  1.00  0.00    -0.049 A 
HETATM   11  C   UNL     1      43.331 -18.894   2.779  1.00  0.00     0.008 A 
HETATM   12  C   UNL     1      43.683 -20.201   2.433  1.00  0.00     0.001 A 
HETATM   13  C   UNL     1      44.118 -21.093   3.410  1.00  0.00     0.000 A 
HETATM   14  C   UNL     1      44.203 -20.679   4.736  1.00  0.00     0.001 A 
HETATM   15  C   UNL     1      43.853 -19.373   5.082  1.00  0.00     0.008 A 
ENDBRANCH   1  10
BRANCH   1  16
HETATM   16  C   UNL     1      44.072 -16.447   5.526  1.00  0.00     0.116 C 
BRANCH  16  17
HETATM   17  C   UNL     1      43.654 -15.375   6.514  1.00  0.00     0.218 C 
HETATM   18  N   UNL     1      43.904 -14.074   6.195  1.00  0.00    -0.355 N 
HETATM   19  H   UNL     1      44.221 -13.792   5.275  1.00  0.00     0.162 HD
HETATM   20  O   UNL     1      43.159 -15.689   7.599  1.00  0.00    -0.274 OA
BRANCH  18  21
HETATM   21  C   UNL     1      43.453 -13.007   7.060  1.00  0.00     0.184 C 
BRANCH  21  22
HETATM   22  C   UNL     1      44.498 -11.944   7.173  1.00  0.00     0.080 A 
HETATM   23  N   UNL     1      45.465 -11.790   6.237  1.00  0.00    -0.177 NA
HETATM   24  N   UNL     1      46.181 -10.715   6.650  1.00  0.00    -0.281 N 
HETATM   25  H   UNL     1      46.963 -10.403   6.084  1.00  0.00     0.189 HD
HETATM   26  C   UNL     1      45.697 -10.214   7.803  1.00  0.00     0.036 A 
HETATM   27  C   UNL     1      44.629 -10.972   8.171  1.00  0.00    -0.006 A 
HETATM   28  C   UNL     1      46.018  -9.097   8.697  1.00  0.00     0.059 C 
HETATM   29  C   UNL     1      44.022 -10.485   9.419  1.00  0.00     0.043 C 
HETATM   30  C   UNL     1      45.103  -9.457   9.921  1.00  0.00     0.011 C 
ENDBRANCH  21  22
ENDBRANCH  18  21
ENDBRANCH  16  17
ENDBRANCH   1  16
TORSDOF 7
ENDMDL
MODEL 2
REMARK VINA RESULT:      -8.9      1.791      3.041
REMARK  7 active torsions:
REMARK  status: ('A' for Active; 'I' for Inactive)
REMARK    1  A    between atoms: O_2  and  C_3 
REMARK    2  A    between atoms: C_6  and  C_7 
REMARK    3  A    between atoms: C_7  and  C_8 
REMARK    4  A    between atoms: C_7  and  C_14 
REMARK    5  A    between atoms: C_14  and  C_15 
REMARK       I    between atoms: C_15  and  N_16 
REMARK    6  A    between atoms: N_16  and  C_17 
REMARK    7  A    between atoms: C_17  and  C_18 
ROOT
HETATM    1  C   UNL     1      42.982 -17.084   4.800  1.00  0.00     0.060 C 
ENDROOT
BRANCH   1   2
HETATM    2  C   UNL     1      42.408 -16.167   3.714  1.00  0.00    -0.049 A 
HETATM    3  C   UNL     1      41.035 -16.255   3.412  1.00  0.00     0.010 A 
HETATM    4  C   UNL     1      40.451 -15.447   2.432  1.00  0.00     0.037 A 
HETATM    5  C   UNL     1      41.215 -14.517   1.734  1.00  0.00     0.068 A 
HETATM    6  C   UNL     1      42.568 -14.393   2.040  1.00  0.00     0.037 A 
HETATM    7  C   UNL     1      43.154 -15.204   3.024  1.00  0.00     0.010 A 
BRANCH   5   8
HETATM    8  O   UNL     1      40.530 -13.795   0.797  1.00  0.00    -0.356 OA
HETATM    9  C   UNL     1      39.974 -14.521  -0.291  1.00  0.00     0.210 C 
ENDBRANCH   5   8
ENDBRANCH   1   2
BRANCH   1  10
HETATM   10  C   UNL     1      43.411 -18.477   4.324  1.00  0.00    -0.049 A 
HETATM   11  C   UNL     1      43.807 -19.492   5.208  1.00  0.00     0.008 A 
HETATM   12  C   UNL     1      44.187 -20.748   4.729  1.00  0.00     0.001 A 
HETATM   13  C   UNL     1      44.179 -21.010   3.361  1.00  0.00     0.000 A 
HETATM   14  C   UNL     1      43.791 -20.016   2.469  1.00  0.00     0.001 A 
HETATM   15  C   UNL     1      43.410 -18.761   2.946  1.00  0.00     0.008 A 
ENDBRANCH   1  10
BRANCH   1  16
HETATM   16  C   UNL     1      43.982 -16.496   5.821  1.00  0.00     0.116 C 
BRANCH  16  17
HETATM   17  C   UNL     1      43.594 -15.292   6.657  1.00  0.00     0.218 C 
HETATM   18  N   UNL     1      44.168 -14.093   6.361  1.00  0.00    -0.355 N 
HETATM   19  H   UNL     1      44.724 -13.948   5.527  1.00  0.00     0.162 HD
HETATM   20  O   UNL     1      42.827 -15.422   7.613  1.00  0.00    -0.274 OA
BRANCH  18  21
HETATM   21  C   UNL     1      43.774 -12.896   7.071  1.00  0.00     0.184 C 
BRANCH  21  22
HETATM   22  C   UNL     1      42.934 -12.019   6.199  1.00  0.00     0.080 A 
HETATM   23  N   UNL     1      43.342 -10.783   5.823  1.00  0.00    -0.177 NA
HETATM   24  N   UNL     1      42.357 -10.322   5.013  1.00  0.00    -0.281 N 
HETATM   25  H   UNL     1      42.459  -9.403   4.596  1.00  0.00     0.189 HD
HETATM   26  C   UNL     1      41.362 -11.221   4.888  1.00  0.00     0.036 A 
HETATM   27  C   UNL     1      41.689 -12.312   5.632  1.00  0.00    -0.006 A 
HETATM   28  C   UNL     1      40.089 -11.306   4.166  1.00  0.00     0.059 C 
HETATM   29  C   UNL     1      40.660 -13.359   5.542  1.00  0.00     0.043 C 
HETATM   30  C   UNL     1      39.482 -12.590   4.837  1.00  0.00     0.011 C 
ENDBRANCH  21  22
ENDBRANCH  18  21
ENDBRANCH  16  17
ENDBRANCH   1  16
TORSDOF 7
ENDMDL
MODEL 3
REMARK VINA RESULT:      -8.7      3.543      6.561
REMARK  7 active torsions:
REMARK  status: ('A' for Active; 'I' for Inactive)
REMARK    1  A    between atoms: O_2  and  C_3 
REMARK    2  A    between atoms: C_6  and  C_7 
REMARK    3  A    between atoms: C_7  and  C_8 
REMARK    4  A    between atoms: C_7  and  C_14 
REMARK    5  A    between atoms: C_14  and  C_15 
REMARK       I    between atoms: C_15  and  N_16 
REMARK    6  A    between atoms: N_16  and  C_17 
REMARK    7  A    between atoms: C_17  and  C_18 
ROOT
HETATM    1  C   UNL     1      41.101 -13.110   0.800  1.00  0.00     0.060 C 
ENDROOT
BRANCH   1   2
HETATM    2  C   UNL     1      41.520 -14.407   1.500  1.00  0.00    -0.049 A 
HETATM    3  C   UNL     1      42.878 -14.782   1.473  1.00  0.00     0.010 A 
HETATM    4  C   UNL     1      43.323 -15.953   2.092  1.00  0.00     0.037 A 
HETATM    5  C   UNL     1      42.431 -16.779   2.770  1.00  0.00     0.068 A 
HETATM    6  C   UNL     1      41.090 -16.409   2.836  1.00  0.00     0.037 A 
HETATM    7  C   UNL     1      40.643 -15.233   2.214  1.00  0.00     0.010 A 
BRANCH   5   8
HETATM    8  O   UNL     1      42.988 -17.897   3.326  1.00  0.00    -0.356 OA
HETATM    9  C   UNL     1      43.315 -18.958   2.438  1.00  0.00     0.210 C 
ENDBRANCH   5   8
ENDBRANCH   1   2
BRANCH   1  10
HETATM   10  C   UNL     1      40.015 -13.263  -0.272  1.00  0.00    -0.049 A 
HETATM   11  C   UNL     1      40.017 -14.306  -1.210  1.00  0.00     0.008 A 
HETATM   12  C   UNL     1      39.004 -14.409  -2.167  1.00  0.00     0.001 A 
HETATM   13  C   UNL     1      37.976 -13.471  -2.204  1.00  0.00     0.000 A 
HETATM   14  C   UNL     1      37.956 -12.429  -1.283  1.00  0.00     0.001 A 
HETATM   15  C   UNL     1      38.967 -12.326  -0.325  1.00  0.00     0.008 A 
ENDBRANCH   1  10
BRANCH   1  16
HETATM   16  C   UNL     1      40.887 -11.838   1.650  1.00  0.00     0.116 C 
BRANCH  16  17
HETATM   17  C   UNL     1      41.327 -11.812   3.102  1.00  0.00     0.218 C 
HETATM   18  N   UNL     1      40.386 -12.032   4.062  1.00  0.00    -0.355 N 
HETATM   19  H   UNL     1      39.450 -12.350   3.842  1.00  0.00     0.162 HD
HETATM   20  O   UNL     1      42.493 -11.537   3.392  1.00  0.00    -0.274 OA
BRANCH  18  21
HETATM   21  C   UNL     1      40.764 -12.101   5.456  1.00  0.00     0.184 C 
BRANCH  21  22
HETATM   22  C   UNL     1      40.772 -13.518   5.930  1.00  0.00     0.080 A 
HETATM   23  N   UNL     1      39.651 -14.124   6.391  1.00  0.00    -0.177 NA
HETATM   24  N   UNL     1      40.033 -15.393   6.676  1.00  0.00    -0.281 N 
HETATM   25  H   UNL     1      39.340 -16.044   7.029  1.00  0.00     0.189 HD
HETATM   26  C   UNL     1      41.341 -15.583   6.418  1.00  0.00     0.036 A 
HETATM   27  C   UNL     1      41.848 -14.412   5.947  1.00  0.00    -0.006 A 
HETATM   28  C   UNL     1      42.293 -16.695   6.502  1.00  0.00     0.059 C 
HETATM   29  C   UNL     1      43.278 -14.530   5.621  1.00  0.00     0.043 C 
HETATM   30  C   UNL     1      43.638 -15.921   6.265  1.00  0.00     0.011 C 
ENDBRANCH  21  22
ENDBRANCH  18  21
ENDBRANCH  16  17
ENDBRANCH   1  16
TORSDOF 7
ENDMDL
MODEL 4
REMARK VINA RESULT:      -8.4      3.226      5.538
REMARK  7 active torsions:
REMARK  status: ('A' for Active; 'I' for Inactive)
REMARK    1  A    between atoms: O_2  and  C_3 
REMARK    2  A    between atoms: C_6  and  C_7 
REMARK    3  A    between atoms: C_7  and  C_8 
REMARK    4  A    between atoms: C_7  and  C_14 
REMARK    5  A    between atoms: C_14  and  C_15 
REMARK       I    between atoms: C_15  and  N_16 
REMARK    6  A    between atoms: N_16  and  C_17 
REMARK    7  A    between atoms: C_17  and  C_18 
ROOT
HETATM    1  C   UNL     1      42.884 -15.989   2.603  1.00  0.00     0.060 C 
ENDROOT
BRANCH   1   2
HETATM    2  C   UNL     1      42.622 -14.952   3.700  1.00  0.00    -0.049 A 
HETATM    3  C   UNL     1      43.288 -13.712   3.631  1.00  0.00     0.010 A 
HETATM    4  C   UNL     1      43.092 -12.724   4.601  1.00  0.00     0.037 A 
HETATM    5  C   UNL     1      42.214 -12.937   5.660  1.00  0.00     0.068 A 
HETATM    6  C   UNL     1      41.522 -14.143   5.729  1.00  0.00     0.037 A 
HETATM    7  C   UNL     1      41.719 -15.135   4.755  1.00  0.00     0.010 A 
BRANCH   5   8
HETATM    8  O   UNL     1      42.116 -11.898   6.544  1.00  0.00    -0.356 OA
HETATM    9  C   UNL     1      43.010 -10.809   6.354  1.00  0.00     0.210 C 
ENDBRANCH   5   8
ENDBRANCH   1   2
BRANCH   1  10
HETATM   10  C   UNL     1      43.297 -17.380   3.100  1.00  0.00    -0.049 A 
HETATM   11  C   UNL     1      43.857 -17.597   4.368  1.00  0.00     0.008 A 
HETATM   12  C   UNL     1      44.216 -18.883   4.780  1.00  0.00     0.001 A 
HETATM   13  C   UNL     1      44.021 -19.971   3.933  1.00  0.00     0.000 A 
HETATM   14  C   UNL     1      43.468 -19.776   2.672  1.00  0.00     0.001 A 
HETATM   15  C   UNL     1      43.108 -18.492   2.259  1.00  0.00     0.008 A 
ENDBRANCH   1  10
BRANCH   1  16
HETATM   16  C   UNL     1      41.907 -16.077   1.409  1.00  0.00     0.116 C 
BRANCH  16  17
HETATM   17  C   UNL     1      41.060 -14.877   1.032  1.00  0.00     0.218 C 
HETATM   18  N   UNL     1      41.691 -13.772   0.545  1.00  0.00    -0.355 N 
HETATM   19  H   UNL     1      42.672 -13.774   0.293  1.00  0.00     0.162 HD
HETATM   20  O   UNL     1      39.842 -14.892   1.224  1.00  0.00    -0.274 OA
BRANCH  18  21
HETATM   21  C   UNL     1      40.927 -12.631   0.091  1.00  0.00     0.184 C 
BRANCH  21  22
HETATM   22  C   UNL     1      41.006 -11.516   1.084  1.00  0.00     0.080 A 
HETATM   23  N   UNL     1      41.797 -10.435   0.882  1.00  0.00    -0.177 NA
HETATM   24  N   UNL     1      41.570  -9.634   1.952  1.00  0.00    -0.281 N 
HETATM   25  H   UNL     1      42.054  -8.744   2.007  1.00  0.00     0.189 HD
HETATM   26  C   UNL     1      40.682 -10.185   2.801  1.00  0.00     0.036 A 
HETATM   27  C   UNL     1      40.304 -11.386   2.286  1.00  0.00    -0.006 A 
HETATM   28  C   UNL     1      40.047  -9.812   4.069  1.00  0.00     0.059 C 
HETATM   29  C   UNL     1      39.316 -12.059   3.145  1.00  0.00     0.043 C 
HETATM   30  C   UNL     1      39.376 -11.180   4.449  1.00  0.00     0.011 C 
ENDBRANCH  21  22
ENDBRANCH  18  21
ENDBRANCH  16  17
ENDBRANCH   1  16
TORSDOF 7
ENDMDL
MODEL 5
REMARK VINA RESULT:      -8.4      3.842      7.075
REMARK  7 active torsions:
REMARK  status: ('A' for Active; 'I' for Inactive)
REMARK    1  A    between atoms: O_2  and  C_3 
REMARK    2  A    between atoms: C_6  and  C_7 
REMARK    3  A    between atoms: C_7  and  C_8 
REMARK    4  A    between atoms: C_7  and  C_14 
REMARK    5  A    between atoms: C_14  and  C_15 
REMARK       I    between atoms: C_15  and  N_16 
REMARK    6  A    between atoms: N_16  and  C_17 
REMARK    7  A    between atoms: C_17  and  C_18 
ROOT
HETATM    1  C   UNL     1      42.265 -15.569   2.598  1.00  0.00     0.060 C 
ENDROOT
BRANCH   1   2
HETATM    2  C   UNL     1      42.525 -14.262   3.356  1.00  0.00    -0.049 A 
HETATM    3  C   UNL     1      43.370 -13.298   2.771  1.00  0.00     0.010 A 
HETATM    4  C   UNL     1      43.646 -12.086   3.411  1.00  0.00     0.037 A 
HETATM    5  C   UNL     1      43.077 -11.793   4.647  1.00  0.00     0.068 A 
HETATM    6  C   UNL     1      42.214 -12.719   5.227  1.00  0.00     0.037 A 
HETATM    7  C   UNL     1      41.936 -13.935   4.584  1.00  0.00     0.010 A 
BRANCH   5   8
HETATM    8  O   UNL     1      43.431 -10.581   5.171  1.00  0.00    -0.356 OA
HETATM    9  C   UNL     1      42.903 -10.259   6.452  1.00  0.00     0.210 C 
ENDBRANCH   5   8
ENDBRANCH   1   2
BRANCH   1  10
HETATM   10  C   UNL     1      42.993 -16.801   3.148  1.00  0.00    -0.049 A 
HETATM   11  C   UNL     1      43.572 -16.834   4.425  1.00  0.00     0.008 A 
HETATM   12  C   UNL     1      44.223 -17.982   4.886  1.00  0.00     0.001 A 
HETATM   13  C   UNL     1      44.308 -19.112   4.078  1.00  0.00     0.000 A 
HETATM   14  C   UNL     1      43.741 -19.099   2.807  1.00  0.00     0.001 A 
HETATM   15  C   UNL     1      43.089 -17.954   2.346  1.00  0.00     0.008 A 
ENDBRANCH   1  10
BRANCH   1  16
HETATM   16  C   UNL     1      40.822 -15.906   2.163  1.00  0.00     0.116 C 
BRANCH  16  17
HETATM   17  C   UNL     1      40.052 -14.944   1.278  1.00  0.00     0.218 C 
HETATM   18  N   UNL     1      40.122 -15.115  -0.071  1.00  0.00    -0.355 N 
HETATM   19  H   UNL     1      40.545 -15.933  -0.493  1.00  0.00     0.162 HD
HETATM   20  O   UNL     1      39.433 -14.001   1.778  1.00  0.00    -0.274 OA
BRANCH  18  21
HETATM   21  C   UNL     1      39.343 -14.280  -0.958  1.00  0.00     0.184 C 
BRANCH  21  22
HETATM   22  C   UNL     1      40.215 -13.271  -1.633  1.00  0.00     0.080 A 
HETATM   23  N   UNL     1      40.723 -13.480  -2.871  1.00  0.00    -0.177 NA
HETATM   24  N   UNL     1      41.408 -12.347  -3.163  1.00  0.00    -0.281 N 
HETATM   25  H   UNL     1      41.869 -12.273  -4.063  1.00  0.00     0.189 HD
HETATM   26  C   UNL     1      41.347 -11.461  -2.150  1.00  0.00     0.036 A 
HETATM   27  C   UNL     1      40.601 -12.014  -1.157  1.00  0.00    -0.006 A 
HETATM   28  C   UNL     1      41.849 -10.108  -1.886  1.00  0.00     0.059 C 
HETATM   29  C   UNL     1      40.465 -11.104  -0.008  1.00  0.00     0.043 C 
HETATM   30  C   UNL     1      41.524  -9.992  -0.355  1.00  0.00     0.011 C 
ENDBRANCH  21  22
ENDBRANCH  18  21
ENDBRANCH  16  17
ENDBRANCH   1  16
TORSDOF 7
ENDMDL
MODEL 6
REMARK VINA RESULT:      -8.3      3.643      4.704
REMARK  7 active torsions:
REMARK  status: ('A' for Active; 'I' for Inactive)
REMARK    1  A    between atoms: O_2  and  C_3 
REMARK    2  A    between atoms: C_6  and  C_7 
REMARK    3  A    between atoms: C_7  and  C_8 
REMARK    4  A    between atoms: C_7  and  C_14 
REMARK    5  A    between atoms: C_14  and  C_15 
REMARK       I    between atoms: C_15  and  N_16 
REMARK    6  A    between atoms: N_16  and  C_17 
REMARK    7  A    between atoms: C_17  and  C_18 
ROOT
HETATM    1  C   UNL     1      41.066 -16.320   3.672  1.00  0.00     0.060 C 
ENDROOT
BRANCH   1   2
HETATM    2  C   UNL     1      41.006 -15.398   2.449  1.00  0.00    -0.049 A 
HETATM    3  C   UNL     1      40.002 -15.619   1.485  1.00  0.00     0.010 A 
HETATM    4  C   UNL     1      39.893 -14.814   0.347  1.00  0.00     0.037 A 
HETATM    5  C   UNL     1      40.773 -13.755   0.144  1.00  0.00     0.068 A 
HETATM    6  C   UNL     1      41.752 -13.500   1.100  1.00  0.00     0.037 A 
HETATM    7  C   UNL     1      41.861 -14.308   2.243  1.00  0.00     0.010 A 
BRANCH   5   8
HETATM    8  O   UNL     1      40.568 -13.048  -1.009  1.00  0.00    -0.356 OA
HETATM    9  C   UNL     1      39.584 -13.554  -1.903  1.00  0.00     0.210 C 
ENDBRANCH   5   8
ENDBRANCH   1   2
BRANCH   1  10
HETATM   10  C   UNL     1      42.344 -17.158   3.798  1.00  0.00    -0.049 A 
HETATM   11  C   UNL     1      42.874 -17.900   2.732  1.00  0.00     0.008 A 
HETATM   12  C   UNL     1      44.043 -18.647   2.892  1.00  0.00     0.001 A 
HETATM   13  C   UNL     1      44.700 -18.668   4.120  1.00  0.00     0.000 A 
HETATM   14  C   UNL     1      44.190 -17.940   5.190  1.00  0.00     0.001 A 
HETATM   15  C   UNL     1      43.022 -17.192   5.031  1.00  0.00     0.008 A 
ENDBRANCH   1  10
BRANCH   1  16
HETATM   16  C   UNL     1      40.603 -15.775   5.041  1.00  0.00     0.116 C 
BRANCH  16  17
HETATM   17  C   UNL     1      40.765 -14.302   5.366  1.00  0.00     0.218 C 
HETATM   18  N   UNL     1      39.722 -13.468   5.104  1.00  0.00    -0.355 N 
HETATM   19  H   UNL     1      38.806 -13.810   4.839  1.00  0.00     0.162 HD
HETATM   20  O   UNL     1      41.839 -13.877   5.799  1.00  0.00    -0.274 OA
BRANCH  18  21
HETATM   21  C   UNL     1      39.790 -12.070   5.470  1.00  0.00     0.184 C 
BRANCH  21  22
HETATM   22  C   UNL     1      40.250 -11.244   4.313  1.00  0.00     0.080 A 
HETATM   23  N   UNL     1      41.359 -10.469   4.385  1.00  0.00    -0.177 NA
HETATM   24  N   UNL     1      41.480  -9.920   3.150  1.00  0.00    -0.281 N 
HETATM   25  H   UNL     1      42.264  -9.302   2.966  1.00  0.00     0.189 HD
HETATM   26  C   UNL     1      40.486 -10.320   2.334  1.00  0.00     0.036 A 
HETATM   27  C   UNL     1      39.680 -11.159   3.038  1.00  0.00    -0.006 A 
HETATM   28  C   UNL     1      40.099 -10.094   0.938  1.00  0.00     0.059 C 
HETATM   29  C   UNL     1      38.568 -11.662   2.216  1.00  0.00     0.043 C 
HETATM   30  C   UNL     1      38.666 -10.737   0.947  1.00  0.00     0.011 C 
ENDBRANCH  21  22
ENDBRANCH  18  21
ENDBRANCH  16  17
ENDBRANCH   1  16
TORSDOF 7
ENDMDL
MODEL 7
REMARK VINA RESULT:      -8.2      1.970      4.724
REMARK  7 active torsions:
REMARK  status: ('A' for Active; 'I' for Inactive)
REMARK    1  A    between atoms: O_2  and  C_3 
REMARK    2  A    between atoms: C_6  and  C_7 
REMARK    3  A    between atoms: C_7  and  C_8 
REMARK    4  A    between atoms: C_7  and  C_14 
REMARK    5  A    between atoms: C_14  and  C_15 
REMARK       I    between atoms: C_15  and  N_16 
REMARK    6  A    between atoms: N_16  and  C_17 
REMARK    7  A    between atoms: C_17  and  C_18 
ROOT
HETATM    1  C   UNL     1      42.950 -14.985   3.778  1.00  0.00     0.060 C 
ENDROOT
BRANCH   1   2
HETATM    2  C   UNL     1      43.267 -16.484   3.724  1.00  0.00    -0.049 A 
HETATM    3  C   UNL     1      43.682 -17.131   4.904  1.00  0.00     0.010 A 
HETATM    4  C   UNL     1      43.985 -18.495   4.920  1.00  0.00     0.037 A 
HETATM    5  C   UNL     1      43.870 -19.259   3.762  1.00  0.00     0.068 A 
HETATM    6  C   UNL     1      43.431 -18.645   2.592  1.00  0.00     0.037 A 
HETATM    7  C   UNL     1      43.126 -17.275   2.577  1.00  0.00     0.010 A 
BRANCH   5   8
HETATM    8  O   UNL     1      44.203 -20.577   3.906  1.00  0.00    -0.356 OA
HETATM    9  C   UNL     1      44.215 -21.093   5.231  1.00  0.00     0.210 C 
ENDBRANCH   5   8
ENDBRANCH   1   2
BRANCH   1  10
HETATM   10  C   UNL     1      41.887 -14.502   2.784  1.00  0.00    -0.049 A 
HETATM   11  C   UNL     1      42.210 -13.859   1.581  1.00  0.00     0.008 A 
HETATM   12  C   UNL     1      41.208 -13.439   0.702  1.00  0.00     0.001 A 
HETATM   13  C   UNL     1      39.868 -13.652   1.014  1.00  0.00     0.000 A 
HETATM   14  C   UNL     1      39.526 -14.288   2.204  1.00  0.00     0.001 A 
HETATM   15  C   UNL     1      40.527 -14.709   3.081  1.00  0.00     0.008 A 
ENDBRANCH   1  10
BRANCH   1  16
HETATM   16  C   UNL     1      42.794 -14.305   5.156  1.00  0.00     0.116 C 
BRANCH  16  17
HETATM   17  C   UNL     1      43.029 -12.813   5.297  1.00  0.00     0.218 C 
HETATM   18  N   UNL     1      42.490 -12.176   6.374  1.00  0.00    -0.355 N 
HETATM   19  H   UNL     1      42.067 -12.678   7.146  1.00  0.00     0.162 HD
HETATM   20  O   UNL     1      43.642 -12.196   4.423  1.00  0.00    -0.274 OA
BRANCH  18  21
HETATM   21  C   UNL     1      42.752 -10.772   6.603  1.00  0.00     0.184 C 
BRANCH  21  22
HETATM   22  C   UNL     1      43.903 -10.597   7.540  1.00  0.00     0.080 A 
HETATM   23  N   UNL     1      45.178 -10.853   7.160  1.00  0.00    -0.177 NA
HETATM   24  N   UNL     1      45.933 -10.538   8.242  1.00  0.00    -0.281 N 
HETATM   25  H   UNL     1      46.941 -10.640   8.180  1.00  0.00     0.189 HD
HETATM   26  C   UNL     1      45.171 -10.112   9.267  1.00  0.00     0.036 A 
HETATM   27  C   UNL     1      43.873 -10.141   8.861  1.00  0.00    -0.006 A 
HETATM   28  C   UNL     1      45.395  -9.633  10.634  1.00  0.00     0.059 C 
HETATM   29  C   UNL     1      42.962  -9.673   9.918  1.00  0.00     0.043 C 
HETATM   30  C   UNL     1      43.919  -9.632  11.168  1.00  0.00     0.011 C 
ENDBRANCH  21  22
ENDBRANCH  18  21
ENDBRANCH  16  17
ENDBRANCH   1  16
TORSDOF 7
ENDMDL
MODEL 8
REMARK VINA RESULT:      -8.1      3.813      8.093
REMARK  7 active torsions:
REMARK  status: ('A' for Active; 'I' for Inactive)
REMARK    1  A    between atoms: O_2  and  C_3 
REMARK    2  A    between atoms: C_6  and  C_7 
REMARK    3  A    between atoms: C_7  and  C_8 
REMARK    4  A    between atoms: C_7  and  C_14 
REMARK    5  A    between atoms: C_14  and  C_15 
REMARK       I    between atoms: C_15  and  N_16 
REMARK    6  A    between atoms: N_16  and  C_17 
REMARK    7  A    between atoms: C_17  and  C_18 
ROOT
HETATM    1  C   UNL     1      42.673 -15.677   2.503  1.00  0.00     0.060 C 
ENDROOT
BRANCH   1   2
HETATM    2  C   UNL     1      42.945 -14.465   3.399  1.00  0.00    -0.049 A 
HETATM    3  C   UNL     1      43.467 -13.294   2.814  1.00  0.00     0.010 A 
HETATM    4  C   UNL     1      43.736 -12.155   3.578  1.00  0.00     0.037 A 
HETATM    5  C   UNL     1      43.480 -12.143   4.946  1.00  0.00     0.068 A 
HETATM    6  C   UNL     1      42.935 -13.280   5.538  1.00  0.00     0.037 A 
HETATM    7  C   UNL     1      42.663 -14.423   4.771  1.00  0.00     0.010 A 
BRANCH   5   8
HETATM    8  O   UNL     1      43.793 -10.974   5.581  1.00  0.00    -0.356 OA
HETATM    9  C   UNL     1      42.953 -10.587   6.661  1.00  0.00     0.210 C 
ENDBRANCH   5   8
ENDBRANCH   1   2
BRANCH   1  10
HETATM   10  C   UNL     1      43.196 -17.017   3.035  1.00  0.00    -0.049 A 
HETATM   11  C   UNL     1      43.785 -17.153   4.300  1.00  0.00     0.008 A 
HETATM   12  C   UNL     1      44.244 -18.396   4.745  1.00  0.00     0.001 A 
HETATM   13  C   UNL     1      44.123 -19.520   3.933  1.00  0.00     0.000 A 
HETATM   14  C   UNL     1      43.542 -19.406   2.674  1.00  0.00     0.001 A 
HETATM   15  C   UNL     1      43.082 -18.166   2.229  1.00  0.00     0.008 A 
ENDBRANCH   1  10
BRANCH   1  16
HETATM   16  C   UNL     1      41.281 -15.826   1.849  1.00  0.00     0.116 C 
BRANCH  16  17
HETATM   17  C   UNL     1      40.519 -14.595   1.397  1.00  0.00     0.218 C 
HETATM   18  N   UNL     1      40.930 -13.967   0.261  1.00  0.00    -0.355 N 
HETATM   19  H   UNL     1      41.621 -14.367  -0.361  1.00  0.00     0.162 HD
HETATM   20  O   UNL     1      39.594 -14.152   2.082  1.00  0.00    -0.274 OA
BRANCH  18  21
HETATM   21  C   UNL     1      40.190 -12.839  -0.261  1.00  0.00     0.184 C 
BRANCH  21  22
HETATM   22  C   UNL     1      39.176 -13.292  -1.262  1.00  0.00     0.080 A 
HETATM   23  N   UNL     1      39.187 -14.547  -1.772  1.00  0.00    -0.177 NA
HETATM   24  N   UNL     1      38.109 -14.598  -2.592  1.00  0.00    -0.281 N 
HETATM   25  H   UNL     1      37.907 -15.465  -3.080  1.00  0.00     0.189 HD
HETATM   26  C   UNL     1      37.448 -13.425  -2.612  1.00  0.00     0.036 A 
HETATM   27  C   UNL     1      38.100 -12.566  -1.782  1.00  0.00    -0.006 A 
HETATM   28  C   UNL     1      36.250 -12.888  -3.264  1.00  0.00     0.059 C 
HETATM   29  C   UNL     1      37.435 -11.254  -1.728  1.00  0.00     0.043 C 
HETATM   30  C   UNL     1      36.413 -11.365  -2.918  1.00  0.00     0.011 C 
ENDBRANCH  21  22
ENDBRANCH  18  21
ENDBRANCH  16  17
ENDBRANCH   1  16
TORSDOF 7
ENDMDL
MODEL 9
REMARK VINA RESULT:      -8.1      4.150      8.783
REMARK  7 active torsions:
REMARK  status: ('A' for Active; 'I' for Inactive)
REMARK    1  A    between atoms: O_2  and  C_3 
REMARK    2  A    between atoms: C_6  and  C_7 
REMARK    3  A    between atoms: C_7  and  C_8 
REMARK    4  A    between atoms: C_7  and  C_14 
REMARK    5  A    between atoms: C_14  and  C_15 
REMARK       I    between atoms: C_15  and  N_16 
REMARK    6  A    between atoms: N_16  and  C_17 
REMARK    7  A    between atoms: C_17  and  C_18 
ROOT
HETATM    1  C   UNL     1      42.128 -14.945   2.794  1.00  0.00     0.060 C 
ENDROOT
BRANCH   1   2
HETATM    2  C   UNL     1      42.801 -16.258   3.209  1.00  0.00    -0.049 A 
HETATM    3  C   UNL     1      43.312 -16.372   4.517  1.00  0.00     0.010 A 
HETATM    4  C   UNL     1      43.938 -17.543   4.955  1.00  0.00     0.037 A 
HETATM    5  C   UNL     1      44.059 -18.641   4.108  1.00  0.00     0.068 A 
HETATM    6  C   UNL     1      43.531 -18.559   2.822  1.00  0.00     0.037 A 
HETATM    7  C   UNL     1      42.903 -17.384   2.382  1.00  0.00     0.010 A 
BRANCH   5   8
HETATM    8  O   UNL     1      44.695 -19.721   4.652  1.00  0.00    -0.356 OA
HETATM    9  C   UNL     1      43.941 -20.522   5.553  1.00  0.00     0.210 C 
ENDBRANCH   5   8
ENDBRANCH   1   2
BRANCH   1  10
HETATM   10  C   UNL     1      42.519 -13.717   3.624  1.00  0.00    -0.049 A 
HETATM   11  C   UNL     1      43.510 -12.811   3.218  1.00  0.00     0.008 A 
HETATM   12  C   UNL     1      43.832 -11.702   4.005  1.00  0.00     0.001 A 
HETATM   13  C   UNL     1      43.171 -11.482   5.211  1.00  0.00     0.000 A 
HETATM   14  C   UNL     1      42.185 -12.369   5.632  1.00  0.00     0.001 A 
HETATM   15  C   UNL     1      41.862 -13.476   4.845  1.00  0.00     0.008 A 
ENDBRANCH   1  10
BRANCH   1  16
HETATM   16  C   UNL     1      42.014 -14.606   1.292  1.00  0.00     0.116 C 
BRANCH  16  17
HETATM   17  C   UNL     1      40.712 -14.854   0.554  1.00  0.00     0.218 C 
HETATM   18  N   UNL     1      40.555 -14.295  -0.678  1.00  0.00    -0.355 N 
HETATM   19  H   UNL     1      41.318 -13.850  -1.173  1.00  0.00     0.162 HD
HETATM   20  O   UNL     1      39.805 -15.493   1.093  1.00  0.00    -0.274 OA
BRANCH  18  21
HETATM   21  C   UNL     1      39.370 -14.567  -1.461  1.00  0.00     0.184 C 
BRANCH  21  22
HETATM   22  C   UNL     1      38.851 -13.311  -2.084  1.00  0.00     0.080 A 
HETATM   23  N   UNL     1      37.524 -13.084  -2.236  1.00  0.00    -0.177 NA
HETATM   24  N   UNL     1      37.443 -11.846  -2.782  1.00  0.00    -0.281 N 
HETATM   25  H   UNL     1      36.526 -11.456  -2.974  1.00  0.00     0.189 HD
HETATM   26  C   UNL     1      38.664 -11.313  -2.978  1.00  0.00     0.036 A 
HETATM   27  C   UNL     1      39.586 -12.217  -2.552  1.00  0.00    -0.006 A 
HETATM   28  C   UNL     1      39.206 -10.053  -3.497  1.00  0.00     0.059 C 
HETATM   29  C   UNL     1      40.959 -11.711  -2.714  1.00  0.00     0.043 C 
HETATM   30  C   UNL     1      40.725 -10.435  -3.605  1.00  0.00     0.011 C 
ENDBRANCH  21  22
ENDBRANCH  18  21
ENDBRANCH  16  17
ENDBRANCH   1  16
TORSDOF 7
ENDMDL
MODEL 10
REMARK VINA RESULT:      -8.0      4.005      7.975
REMARK  7 active torsions:
REMARK  status: ('A' for Active; 'I' for Inactive)
REMARK    1  A    between atoms: O_2  and  C_3 
REMARK    2  A    between atoms: C_6  and  C_7 
REMARK    3  A    between atoms: C_7  and  C_8 
REMARK    4  A    between atoms: C_7  and  C_14 
REMARK    5  A    between atoms: C_14  and  C_15 
REMARK       I    between atoms: C_15  and  N_16 
REMARK    6  A    between atoms: N_16  and  C_17 
REMARK    7  A    between atoms: C_17  and  C_18 
ROOT
HETATM    1  C   UNL     1      42.130 -15.093   2.780  1.00  0.00     0.060 C 
ENDROOT
BRANCH   1   2
HETATM    2  C   UNL     1      42.844 -16.284   3.426  1.00  0.00    -0.049 A 
HETATM    3  C   UNL     1      43.050 -17.447   2.657  1.00  0.00     0.010 A 
HETATM    4  C   UNL     1      43.695 -18.568   3.189  1.00  0.00     0.037 A 
HETATM    5  C   UNL     1      44.168 -18.558   4.498  1.00  0.00     0.068 A 
HETATM    6  C   UNL     1      44.003 -17.407   5.264  1.00  0.00     0.037 A 
HETATM    7  C   UNL     1      43.355 -16.281   4.730  1.00  0.00     0.010 A 
BRANCH   5   8
HETATM    8  O   UNL     1      44.773 -19.715   4.901  1.00  0.00    -0.356 OA
HETATM    9  C   UNL     1      43.973 -20.891   4.895  1.00  0.00     0.210 C 
ENDBRANCH   5   8
ENDBRANCH   1   2
BRANCH   1  10
HETATM   10  C   UNL     1      42.397 -13.733   3.436  1.00  0.00    -0.049 A 
HETATM   11  C   UNL     1      41.603 -13.222   4.474  1.00  0.00     0.008 A 
HETATM   12  C   UNL     1      41.887 -11.978   5.045  1.00  0.00     0.001 A 
HETATM   13  C   UNL     1      42.965 -11.225   4.587  1.00  0.00     0.000 A 
HETATM   14  C   UNL     1      43.764 -11.714   3.558  1.00  0.00     0.001 A 
HETATM   15  C   UNL     1      43.482 -12.957   2.988  1.00  0.00     0.008 A 
ENDBRANCH   1  10
BRANCH   1  16
HETATM   16  C   UNL     1      42.098 -14.987   1.239  1.00  0.00     0.116 C 
BRANCH  16  17
HETATM   17  C   UNL     1      40.771 -14.861   0.514  1.00  0.00     0.218 C 
HETATM   18  N   UNL     1      40.654 -13.905  -0.448  1.00  0.00    -0.355 N 
HETATM   19  H   UNL     1      41.448 -13.380  -0.793  1.00  0.00     0.162 HD
HETATM   20  O   UNL     1      39.817 -15.570   0.840  1.00  0.00    -0.274 OA
BRANCH  18  21
HETATM   21  C   UNL     1      39.441 -13.795  -1.228  1.00  0.00     0.184 C 
BRANCH  21  22
HETATM   22  C   UNL     1      38.702 -12.543  -0.881  1.00  0.00     0.080 A 
HETATM   23  N   UNL     1      38.030 -11.827  -1.814  1.00  0.00    -0.177 NA
HETATM   24  N   UNL     1      37.458 -10.808  -1.126  1.00  0.00    -0.281 N 
HETATM   25  H   UNL     1      36.884 -10.140  -1.631  1.00  0.00     0.189 HD
HETATM   26  C   UNL     1      37.762 -10.867   0.184  1.00  0.00     0.036 A 
HETATM   27  C   UNL     1      38.557 -11.953   0.380  1.00  0.00    -0.006 A 
HETATM   28  C   UNL     1      37.444 -10.092   1.387  1.00  0.00     0.059 C 
HETATM   29  C   UNL     1      38.928 -12.108   1.795  1.00  0.00     0.043 C 
HETATM   30  C   UNL     1      38.458 -10.733   2.400  1.00  0.00     0.011 C 
ENDBRANCH  21  22
ENDBRANCH  18  21
ENDBRANCH  16  17
ENDBRANCH   1  16
TORSDOF 7
ENDMDL
