MODEL 1
REMARK VINA RESULT:      -8.6      0.000      0.000
REMARK  7 active torsions:
REMARK  status: ('A' for Active; 'I' for Inactive)
REMARK    1  A    between atoms: C_6  and  C_7 
REMARK    2  A    between atoms: N_13  and  C_15 
REMARK    3  A    between atoms: C_15  and  C_16 
REMARK    4  A    between atoms: C_16  and  N_17 
REMARK       I    between atoms: N_17  and  C_18 
REMARK    5  A    between atoms: C_18  and  C_19 
REMARK    6  A    between atoms: C_19  and  N_20 
REMARK    7  A    between atoms: C_19  and  C_27 
ROOT
HETATM    1  C   UNL     1      43.925 -11.772   3.693  1.00  0.00     0.150 C 
ENDROOT
BRANCH   1   2
HETATM    2  C   UNL     1      42.833 -12.581   2.956  1.00  0.00     0.255 C 
BRANCH   2   3
HETATM    3  N   UNL     1      41.969 -13.417   3.884  1.00  0.00    -0.063 N 
HETATM    4  C   UNL     1      42.401 -14.874   4.085  1.00  0.00     0.272 C 
HETATM    5  C   UNL     1      42.268 -15.774   2.827  1.00  0.00     0.188 C 
HETATM    6  O   UNL     1      40.877 -15.961   2.506  1.00  0.00    -0.339 OA
HETATM    7  C   UNL     1      40.422 -15.002   1.647  1.00  0.00     0.077 A 
HETATM    8  C   UNL     1      40.197 -13.696   2.092  1.00  0.00     0.001 A 
HETATM    9  C   UNL     1      40.129 -15.381   0.339  1.00  0.00     0.037 A 
HETATM   10  C   UNL     1      39.698 -12.753   1.183  1.00  0.00     0.012 A 
HETATM   11  C   UNL     1      40.489 -13.323   3.514  1.00  0.00     0.276 C 
HETATM   12  C   UNL     1      39.427 -13.120  -0.137  1.00  0.00     0.001 A 
HETATM   13  C   UNL     1      39.640 -14.433  -0.557  1.00  0.00     0.003 A 
HETATM   14  H   UNL     1      42.014 -12.985   4.817  1.00  0.00     0.280 HD
BRANCH   5  15
HETATM   15  C   UNL     1      42.919 -17.113   3.094  1.00  0.00    -0.020 A 
HETATM   16  C   UNL     1      43.603 -17.437   4.254  1.00  0.00     0.059 A 
HETATM   17  S   UNL     1      44.196 -19.041   4.254  1.00  0.00    -0.113 SA
HETATM   18  C   UNL     1      43.575 -19.328   2.690  1.00  0.00     0.050 A 
HETATM   19  C   UNL     1      42.919 -18.227   2.186  1.00  0.00     0.017 A 
ENDBRANCH   5  15
ENDBRANCH   2   3
ENDBRANCH   1   2
BRANCH   1  20
HETATM   20  N   UNL     1      43.414 -10.863   4.724  1.00  0.00    -0.357 N 
HETATM   21  C   UNL     1      43.337 -11.247   6.055  1.00  0.00     0.253 C 
HETATM   22  O   UNL     1      43.546 -12.412   6.385  1.00  0.00    -0.271 OA
HETATM   23  H   UNL     1      43.474  -9.868   4.514  1.00  0.00     0.162 HD
BRANCH  21  24
HETATM   24  C   UNL     1      42.914 -10.140   7.081  1.00  0.00     0.314 C 
BRANCH  24  25
HETATM   25  N   UNL     1      41.432 -10.176   7.515  1.00  0.00    -0.050 N 
HETATM   26  H   UNL     1      41.395 -10.789   8.339  1.00  0.00     0.281 HD
HETATM   27  C   UNL     1      40.910  -8.810   7.959  1.00  0.00     0.262 C 
HETATM   28  C   UNL     1      39.473  -8.947   8.473  1.00  0.00     0.195 C 
HETATM   29  O   UNL     1      38.630  -9.508   7.464  1.00  0.00    -0.388 OA
HETATM   30  C   UNL     1      39.050 -10.824   7.089  1.00  0.00     0.195 C 
HETATM   31  C   UNL     1      40.466 -10.798   6.499  1.00  0.00     0.262 C 
ENDBRANCH  24  25
BRANCH  24  32
HETATM   32  C   UNL     1      43.845 -10.047   8.266  1.00  0.00    -0.001 A 
HETATM   33  C   UNL     1      43.598 -10.732   9.454  1.00  0.00     0.126 A 
HETATM   34  N   UNL     1      44.393 -10.662  10.539  1.00  0.00    -0.272 NA
HETATM   35  C   UNL     1      45.483  -9.870  10.467  1.00  0.00     0.116 A 
HETATM   36  C   UNL     1      45.814  -9.138   9.342  1.00  0.00     0.020 A 
HETATM   37  C   UNL     1      44.982  -9.227   8.227  1.00  0.00     0.012 A 
ENDBRANCH  24  32
ENDBRANCH  21  24
ENDBRANCH   1  20
TORSDOF 7
ENDMDL
MODEL 2
REMARK VINA RESULT:      -8.5      2.385      4.214
REMARK  7 active torsions:
REMARK  status: ('A' for Active; 'I' for Inactive)
REMARK    1  A    between atoms: C_6  and  C_7 
REMARK    2  A    between atoms: N_13  and  C_15 
REMARK    3  A    between atoms: C_15  and  C_16 
REMARK    4  A    between atoms: C_16  and  N_17 
REMARK       I    between atoms: N_17  and  C_18 
REMARK    5  A    between atoms: C_18  and  C_19 
REMARK    6  A    between atoms: C_19  and  N_20 
REMARK    7  A    between atoms: C_19  and  C_27 
ROOT
HETATM    1  C   UNL     1      39.958 -13.500   5.947  1.00  0.00     0.150 C 
ENDROOT
BRANCH   1   2
HETATM    2  C   UNL     1      40.617 -14.284   4.788  1.00  0.00     0.255 C 
BRANCH   2   3
HETATM    3  N   UNL     1      41.591 -13.452   3.972  1.00  0.00    -0.063 N 
HETATM    4  C   UNL     1      41.188 -13.163   2.522  1.00  0.00     0.272 C 
HETATM    5  C   UNL     1      41.162 -14.407   1.592  1.00  0.00     0.188 C 
HETATM    6  O   UNL     1      42.502 -14.895   1.394  1.00  0.00    -0.339 OA
HETATM    7  C   UNL     1      42.845 -15.827   2.330  1.00  0.00     0.077 A 
HETATM    8  C   UNL     1      43.124 -15.445   3.646  1.00  0.00     0.001 A 
HETATM    9  C   UNL     1      42.972 -17.152   1.920  1.00  0.00     0.037 A 
HETATM   10  C   UNL     1      43.505 -16.431   4.566  1.00  0.00     0.012 A 
HETATM   11  C   UNL     1      43.013 -14.006   4.053  1.00  0.00     0.276 C 
HETATM   12  C   UNL     1      43.608 -17.766   4.166  1.00  0.00     0.001 A 
HETATM   13  C   UNL     1      43.344 -18.124   2.845  1.00  0.00     0.003 A 
HETATM   14  H   UNL     1      41.664 -12.531   4.426  1.00  0.00     0.280 HD
BRANCH   5  15
HETATM   15  C   UNL     1      40.550 -14.028   0.261  1.00  0.00    -0.020 A 
HETATM   16  C   UNL     1      40.708 -12.798  -0.355  1.00  0.00     0.059 A 
HETATM   17  S   UNL     1      39.910 -12.699  -1.865  1.00  0.00    -0.113 SA
HETATM   18  C   UNL     1      39.311 -14.291  -1.713  1.00  0.00     0.050 A 
HETATM   19  C   UNL     1      39.724 -14.887  -0.542  1.00  0.00     0.017 A 
ENDBRANCH   5  15
ENDBRANCH   2   3
ENDBRANCH   1   2
BRANCH   1  20
HETATM   20  N   UNL     1      40.816 -12.475   6.550  1.00  0.00    -0.357 N 
HETATM   21  C   UNL     1      40.775 -11.155   6.127  1.00  0.00     0.253 C 
HETATM   22  O   UNL     1      40.134 -10.836   5.128  1.00  0.00    -0.271 OA
HETATM   23  H   UNL     1      41.147 -12.667   7.495  1.00  0.00     0.162 HD
BRANCH  21  24
HETATM   24  C   UNL     1      41.630 -10.128   6.948  1.00  0.00     0.314 C 
BRANCH  24  25
HETATM   25  N   UNL     1      41.013  -9.686   8.293  1.00  0.00    -0.050 N 
HETATM   26  H   UNL     1      41.421 -10.305   9.005  1.00  0.00     0.281 HD
HETATM   27  C   UNL     1      41.395  -8.258   8.681  1.00  0.00     0.262 C 
HETATM   28  C   UNL     1      40.838  -7.931  10.070  1.00  0.00     0.195 C 
HETATM   29  O   UNL     1      39.418  -8.101  10.094  1.00  0.00    -0.388 OA
HETATM   30  C   UNL     1      39.037  -9.452   9.816  1.00  0.00     0.195 C 
HETATM   31  C   UNL     1      39.495  -9.870   8.412  1.00  0.00     0.262 C 
ENDBRANCH  24  25
BRANCH  24  32
HETATM   32  C   UNL     1      43.072 -10.548   7.100  1.00  0.00    -0.001 A 
HETATM   33  C   UNL     1      43.712 -10.555   8.337  1.00  0.00     0.126 A 
HETATM   34  N   UNL     1      45.000 -10.905   8.513  1.00  0.00    -0.272 NA
HETATM   35  C   UNL     1      45.709 -11.257   7.419  1.00  0.00     0.116 A 
HETATM   36  C   UNL     1      45.174 -11.273   6.145  1.00  0.00     0.020 A 
HETATM   37  C   UNL     1      43.839 -10.912   5.983  1.00  0.00     0.012 A 
ENDBRANCH  24  32
ENDBRANCH  21  24
ENDBRANCH   1  20
TORSDOF 7
ENDMDL
MODEL 3
REMARK VINA RESULT:      -8.4      2.631      4.591
REMARK  7 active torsions:
REMARK  status: ('A' for Active; 'I' for Inactive)
REMARK    1  A    between atoms: C_6  and  C_7 
REMARK    2  A    between atoms: N_13  and  C_15 
REMARK    3  A    between atoms: C_15  and  C_16 
REMARK    4  A    between atoms: C_16  and  N_17 
REMARK       I    between atoms: N_17  and  C_18 
REMARK    5  A    between atoms: C_18  and  C_19 
REMARK    6  A    between atoms: C_19  and  N_20 
REMARK    7  A    between atoms: C_19  and  C_27 
ROOT
HETATM    1  C   UNL     1      39.477 -11.100   6.476  1.00  0.00     0.150 C 
ENDROOT
BRANCH   1   2
HETATM    2  C   UNL     1      40.059 -12.109   5.461  1.00  0.00     0.255 C 
BRANCH   2   3
HETATM    3  N   UNL     1      41.025 -11.483   4.470  1.00  0.00    -0.063 N 
HETATM    4  C   UNL     1      40.784 -11.803   2.991  1.00  0.00     0.272 C 
HETATM    5  C   UNL     1      41.028 -13.284   2.595  1.00  0.00     0.188 C 
HETATM    6  O   UNL     1      42.431 -13.591   2.699  1.00  0.00    -0.339 OA
HETATM    7  C   UNL     1      42.758 -14.058   3.940  1.00  0.00     0.077 A 
HETATM    8  C   UNL     1      42.814 -13.189   5.034  1.00  0.00     0.001 A 
HETATM    9  C   UNL     1      43.094 -15.403   4.067  1.00  0.00     0.037 A 
HETATM   10  C   UNL     1      43.186 -13.705   6.283  1.00  0.00     0.012 A 
HETATM   11  C   UNL     1      42.480 -11.738   4.863  1.00  0.00     0.276 C 
HETATM   12  C   UNL     1      43.499 -15.059   6.422  1.00  0.00     0.001 A 
HETATM   13  C   UNL     1      43.455 -15.906   5.315  1.00  0.00     0.003 A 
HETATM   14  H   UNL     1      40.928 -10.462   4.550  1.00  0.00     0.280 HD
BRANCH   5  15
HETATM   15  C   UNL     1      40.554 -13.512   1.176  1.00  0.00    -0.020 A 
HETATM   16  C   UNL     1      40.501 -12.533   0.199  1.00  0.00     0.059 A 
HETATM   17  S   UNL     1      39.946 -13.121  -1.307  1.00  0.00    -0.113 SA
HETATM   18  C   UNL     1      39.737 -14.693  -0.677  1.00  0.00     0.050 A 
HETATM   19  C   UNL     1      40.097 -14.769   0.650  1.00  0.00     0.017 A 
ENDBRANCH   5  15
ENDBRANCH   2   3
ENDBRANCH   1   2
BRANCH   1  20
HETATM   20  N   UNL     1      40.416 -10.685   7.524  1.00  0.00    -0.357 N 
HETATM   21  C   UNL     1      41.107  -9.485   7.444  1.00  0.00     0.253 C 
HETATM   22  O   UNL     1      41.073  -8.808   6.419  1.00  0.00    -0.271 OA
HETATM   23  H   UNL     1      40.269 -11.094   8.446  1.00  0.00     0.162 HD
BRANCH  21  24
HETATM   24  C   UNL     1      41.967  -9.086   8.694  1.00  0.00     0.314 C 
BRANCH  24  25
HETATM   25  N   UNL     1      41.510  -9.707  10.032  1.00  0.00    -0.050 N 
HETATM   26  H   UNL     1      41.508 -10.724   9.884  1.00  0.00     0.281 HD
HETATM   27  C   UNL     1      42.483  -9.431  11.178  1.00  0.00     0.262 C 
HETATM   28  C   UNL     1      42.019 -10.165  12.440  1.00  0.00     0.195 C 
HETATM   29  O   UNL     1      40.693  -9.766  12.794  1.00  0.00    -0.388 OA
HETATM   30  C   UNL     1      39.746 -10.089  11.770  1.00  0.00     0.195 C 
HETATM   31  C   UNL     1      40.081  -9.354  10.465  1.00  0.00     0.262 C 
ENDBRANCH  24  25
BRANCH  24  32
HETATM   32  C   UNL     1      43.450  -9.259   8.470  1.00  0.00    -0.001 A 
HETATM   33  C   UNL     1      44.339  -8.191   8.554  1.00  0.00     0.126 A 
HETATM   34  N   UNL     1      45.664  -8.300   8.345  1.00  0.00    -0.272 NA
HETATM   35  C   UNL     1      46.150  -9.517   8.021  1.00  0.00     0.116 A 
HETATM   36  C   UNL     1      45.354 -10.641   7.899  1.00  0.00     0.020 A 
HETATM   37  C   UNL     1      43.985 -10.509   8.125  1.00  0.00     0.012 A 
ENDBRANCH  24  32
ENDBRANCH  21  24
ENDBRANCH   1  20
TORSDOF 7
ENDMDL
MODEL 4
REMARK VINA RESULT:      -8.4      3.345      8.509
REMARK  7 active torsions:
REMARK  status: ('A' for Active; 'I' for Inactive)
REMARK    1  A    between atoms: C_6  and  C_7 
REMARK    2  A    between atoms: N_13  and  C_15 
REMARK    3  A    between atoms: C_15  and  C_16 
REMARK    4  A    between atoms: C_16  and  N_17 
REMARK       I    between atoms: N_17  and  C_18 
REMARK    5  A    between atoms: C_18  and  C_19 
REMARK    6  A    between atoms: C_19  and  N_20 
REMARK    7  A    between atoms: C_19  and  C_27 
ROOT
HETATM    1  C   UNL     1      42.433 -14.371   1.687  1.00  0.00     0.150 C 
ENDROOT
BRANCH   1   2
HETATM    2  C   UNL     1      43.107 -13.545   2.807  1.00  0.00     0.255 C 
BRANCH   2   3
HETATM    3  N   UNL     1      42.181 -13.232   3.969  1.00  0.00    -0.063 N 
HETATM    4  C   UNL     1      42.752 -12.332   5.070  1.00  0.00     0.272 C 
HETATM    5  C   UNL     1      43.903 -12.964   5.898  1.00  0.00     0.188 C 
HETATM    6  O   UNL     1      43.391 -14.049   6.695  1.00  0.00    -0.339 OA
HETATM    7  C   UNL     1      43.457 -15.240   6.031  1.00  0.00     0.077 A 
HETATM    8  C   UNL     1      42.573 -15.522   4.985  1.00  0.00     0.001 A 
HETATM    9  C   UNL     1      44.383 -16.183   6.469  1.00  0.00     0.037 A 
HETATM   10  C   UNL     1      42.655 -16.771   4.353  1.00  0.00     0.012 A 
HETATM   11  C   UNL     1      41.563 -14.501   4.556  1.00  0.00     0.276 C 
HETATM   12  C   UNL     1      43.600 -17.711   4.771  1.00  0.00     0.001 A 
HETATM   13  C   UNL     1      44.461 -17.418   5.828  1.00  0.00     0.003 A 
HETATM   14  H   UNL     1      41.372 -12.723   3.589  1.00  0.00     0.280 HD
BRANCH   5  15
HETATM   15  C   UNL     1      44.516 -11.911   6.796  1.00  0.00    -0.020 A 
HETATM   16  C   UNL     1      43.913 -11.400   7.933  1.00  0.00     0.059 A 
HETATM   17  S   UNL     1      44.880 -10.244   8.740  1.00  0.00    -0.113 SA
HETATM   18  C   UNL     1      46.115 -10.381   7.570  1.00  0.00     0.050 A 
HETATM   19  C   UNL     1      45.800 -11.299   6.593  1.00  0.00     0.017 A 
ENDBRANCH   5  15
ENDBRANCH   2   3
ENDBRANCH   1   2
BRANCH   1  20
HETATM   20  N   UNL     1      41.548 -13.596   0.811  1.00  0.00    -0.357 N 
HETATM   21  C   UNL     1      40.190 -13.485   1.069  1.00  0.00     0.253 C 
HETATM   22  O   UNL     1      39.661 -14.161   1.948  1.00  0.00    -0.271 OA
HETATM   23  H   UNL     1      41.993 -12.866   0.257  1.00  0.00     0.162 HD
BRANCH  21  24
HETATM   24  C   UNL     1      39.378 -12.511   0.146  1.00  0.00     0.314 C 
BRANCH  24  25
HETATM   25  N   UNL     1      40.079 -11.173  -0.176  1.00  0.00    -0.050 N 
HETATM   26  H   UNL     1      39.351 -10.560  -0.563  1.00  0.00     0.281 HD
HETATM   27  C   UNL     1      40.627 -10.474   1.068  1.00  0.00     0.262 C 
HETATM   28  C   UNL     1      41.210  -9.111   0.683  1.00  0.00     0.195 C 
HETATM   29  O   UNL     1      42.232  -9.263  -0.305  1.00  0.00    -0.388 OA
HETATM   30  C   UNL     1      41.726  -9.839  -1.513  1.00  0.00     0.195 C 
HETATM   31  C   UNL     1      41.167 -11.245  -1.255  1.00  0.00     0.262 C 
ENDBRANCH  24  25
BRANCH  24  32
HETATM   32  C   UNL     1      38.846 -13.181  -1.097  1.00  0.00    -0.001 A 
HETATM   33  C   UNL     1      37.770 -12.663  -1.814  1.00  0.00     0.126 A 
HETATM   34  N   UNL     1      37.254 -13.239  -2.915  1.00  0.00    -0.272 NA
HETATM   35  C   UNL     1      37.811 -14.394  -3.337  1.00  0.00     0.116 A 
HETATM   36  C   UNL     1      38.874 -15.000  -2.694  1.00  0.00     0.020 A 
HETATM   37  C   UNL     1      39.397 -14.387  -1.558  1.00  0.00     0.012 A 
ENDBRANCH  24  32
ENDBRANCH  21  24
ENDBRANCH   1  20
TORSDOF 7
ENDMDL
MODEL 5
REMARK VINA RESULT:      -8.3      4.220      7.636
REMARK  7 active torsions:
REMARK  status: ('A' for Active; 'I' for Inactive)
REMARK    1  A    between atoms: C_6  and  C_7 
REMARK    2  A    between atoms: N_13  and  C_15 
REMARK    3  A    between atoms: C_15  and  C_16 
REMARK    4  A    between atoms: C_16  and  N_17 
REMARK       I    between atoms: N_17  and  C_18 
REMARK    5  A    between atoms: C_18  and  C_19 
REMARK    6  A    between atoms: C_19  and  N_20 
REMARK    7  A    between atoms: C_19  and  C_27 
ROOT
HETATM    1  C   UNL     1      40.378 -16.052   1.610  1.00  0.00     0.150 C 
ENDROOT
BRANCH   1   2
HETATM    2  C   UNL     1      39.765 -14.693   2.020  1.00  0.00     0.255 C 
BRANCH   2   3
HETATM    3  N   UNL     1      40.698 -13.516   1.792  1.00  0.00    -0.063 N 
HETATM    4  C   UNL     1      40.297 -12.194   2.456  1.00  0.00     0.272 C 
HETATM    5  C   UNL     1      39.009 -11.540   1.884  1.00  0.00     0.188 C 
HETATM    6  O   UNL     1      39.249 -11.089   0.538  1.00  0.00    -0.339 OA
HETATM    7  C   UNL     1      38.950 -12.054  -0.381  1.00  0.00     0.077 A 
HETATM    8  C   UNL     1      39.788 -13.161  -0.547  1.00  0.00     0.001 A 
HETATM    9  C   UNL     1      37.829 -11.868  -1.186  1.00  0.00     0.037 A 
HETATM   10  C   UNL     1      39.461 -14.111  -1.526  1.00  0.00     0.012 A 
HETATM   11  C   UNL     1      41.008 -13.320   0.308  1.00  0.00     0.276 C 
HETATM   12  C   UNL     1      38.323 -13.943  -2.318  1.00  0.00     0.001 A 
HETATM   13  C   UNL     1      37.510 -12.823  -2.149  1.00  0.00     0.003 A 
HETATM   14  H   UNL     1      41.609 -13.763   2.200  1.00  0.00     0.280 HD
BRANCH   5  15
HETATM   15  C   UNL     1      38.608 -10.370   2.755  1.00  0.00    -0.020 A 
HETATM   16  C   UNL     1      38.731 -10.338   4.134  1.00  0.00     0.059 A 
HETATM   17  S   UNL     1      38.213  -8.859   4.817  1.00  0.00    -0.113 SA
HETATM   18  C   UNL     1      37.785  -8.239   3.285  1.00  0.00     0.050 A 
HETATM   19  C   UNL     1      38.045  -9.138   2.275  1.00  0.00     0.017 A 
ENDBRANCH   5  15
ENDBRANCH   2   3
ENDBRANCH   1   2
BRANCH   1  20
HETATM   20  N   UNL     1      41.357 -16.587   2.562  1.00  0.00    -0.357 N 
HETATM   21  C   UNL     1      42.715 -16.349   2.416  1.00  0.00     0.253 C 
HETATM   22  O   UNL     1      43.153 -15.815   1.399  1.00  0.00    -0.271 OA
HETATM   23  H   UNL     1      41.004 -16.803   3.494  1.00  0.00     0.162 HD
BRANCH  21  24
HETATM   24  C   UNL     1      43.644 -16.847   3.577  1.00  0.00     0.314 C 
BRANCH  24  25
HETATM   25  N   UNL     1      43.355 -16.230   4.962  1.00  0.00    -0.050 N 
HETATM   26  H   UNL     1      44.165 -16.465   5.550  1.00  0.00     0.281 HD
HETATM   27  C   UNL     1      43.266 -14.705   4.926  1.00  0.00     0.262 C 
HETATM   28  C   UNL     1      43.085 -14.162   6.347  1.00  0.00     0.195 C 
HETATM   29  O   UNL     1      41.919 -14.724   6.955  1.00  0.00    -0.388 OA
HETATM   30  C   UNL     1      42.013 -16.146   7.077  1.00  0.00     0.195 C 
HETATM   31  C   UNL     1      42.138 -16.806   5.697  1.00  0.00     0.262 C 
ENDBRANCH  24  25
BRANCH  24  32
HETATM   32  C   UNL     1      43.750 -18.352   3.642  1.00  0.00    -0.001 A 
HETATM   33  C   UNL     1      43.445 -19.163   2.552  1.00  0.00     0.126 A 
HETATM   34  N   UNL     1      43.509 -20.507   2.574  1.00  0.00    -0.272 NA
HETATM   35  C   UNL     1      43.880 -21.097   3.730  1.00  0.00     0.116 A 
HETATM   36  C   UNL     1      44.193 -20.388   4.875  1.00  0.00     0.020 A 
HETATM   37  C   UNL     1      44.126 -18.997   4.831  1.00  0.00     0.012 A 
ENDBRANCH  24  32
ENDBRANCH  21  24
ENDBRANCH   1  20
TORSDOF 7
ENDMDL
MODEL 6
REMARK VINA RESULT:      -8.0      1.723      2.280
REMARK  7 active torsions:
REMARK  status: ('A' for Active; 'I' for Inactive)
REMARK    1  A    between atoms: C_6  and  C_7 
REMARK    2  A    between atoms: N_13  and  C_15 
REMARK    3  A    between atoms: C_15  and  C_16 
REMARK    4  A    between atoms: C_16  and  N_17 
REMARK       I    between atoms: N_17  and  C_18 
REMARK    5  A    between atoms: C_18  and  C_19 
REMARK    6  A    between atoms: C_19  and  N_20 
REMARK    7  A    between atoms: C_19  and  C_27 
ROOT
HETATM    1  C   UNL     1      41.535 -10.560   4.216  1.00  0.00     0.150 C 
ENDROOT
BRANCH   1   2
HETATM    2  C   UNL     1      42.109 -11.989   4.081  1.00  0.00     0.255 C 
BRANCH   2   3
HETATM    3  N   UNL     1      41.245 -13.052   4.738  1.00  0.00    -0.063 N 
HETATM    4  C   UNL     1      41.857 -14.453   4.847  1.00  0.00     0.272 C 
HETATM    5  C   UNL     1      42.069 -15.180   3.490  1.00  0.00     0.188 C 
HETATM    6  O   UNL     1      40.793 -15.502   2.906  1.00  0.00    -0.339 OA
HETATM    7  C   UNL     1      40.341 -14.502   2.093  1.00  0.00     0.077 A 
HETATM    8  C   UNL     1      39.849 -13.311   2.637  1.00  0.00     0.001 A 
HETATM    9  C   UNL     1      40.324 -14.731   0.720  1.00  0.00     0.037 A 
HETATM   10  C   UNL     1      39.364 -12.325   1.767  1.00  0.00     0.012 A 
HETATM   11  C   UNL     1      39.847 -13.104   4.122  1.00  0.00     0.276 C 
HETATM   12  C   UNL     1      39.369 -12.539   0.386  1.00  0.00     0.001 A 
HETATM   13  C   UNL     1      39.846 -13.741  -0.135  1.00  0.00     0.003 A 
HETATM   14  H   UNL     1      41.071 -12.752   5.706  1.00  0.00     0.280 HD
BRANCH   5  15
HETATM   15  C   UNL     1      42.866 -16.445   3.716  1.00  0.00    -0.020 A 
HETATM   16  C   UNL     1      43.079 -17.422   2.757  1.00  0.00     0.059 A 
HETATM   17  S   UNL     1      44.047 -18.714   3.322  1.00  0.00    -0.113 SA
HETATM   18  C   UNL     1      44.178 -18.009   4.871  1.00  0.00     0.050 A 
HETATM   19  C   UNL     1      43.509 -16.808   4.950  1.00  0.00     0.017 A 
ENDBRANCH   5  15
ENDBRANCH   2   3
ENDBRANCH   1   2
BRANCH   1  20
HETATM   20  N   UNL     1      41.960  -9.847   5.425  1.00  0.00    -0.357 N 
HETATM   21  C   UNL     1      41.450 -10.170   6.673  1.00  0.00     0.253 C 
HETATM   22  O   UNL     1      40.511 -10.954   6.784  1.00  0.00    -0.271 OA
HETATM   23  H   UNL     1      42.872  -9.395   5.381  1.00  0.00     0.162 HD
BRANCH  21  24
HETATM   24  C   UNL     1      42.091  -9.439   7.904  1.00  0.00     0.314 C 
BRANCH  24  25
HETATM   25  N   UNL     1      41.472  -9.791   9.274  1.00  0.00    -0.050 N 
HETATM   26  H   UNL     1      41.369 -10.814   9.282  1.00  0.00     0.281 HD
HETATM   27  C   UNL     1      42.382  -9.432  10.448  1.00  0.00     0.262 C 
HETATM   28  C   UNL     1      41.749  -9.907  11.760  1.00  0.00     0.195 C 
HETATM   29  O   UNL     1      40.452  -9.330  11.928  1.00  0.00    -0.388 OA
HETATM   30  C   UNL     1      39.553  -9.720  10.885  1.00  0.00     0.195 C 
HETATM   31  C   UNL     1      40.062  -9.238   9.519  1.00  0.00     0.262 C 
ENDBRANCH  24  25
BRANCH  24  32
HETATM   32  C   UNL     1      43.598  -9.532   7.927  1.00  0.00    -0.001 A 
HETATM   33  C   UNL     1      44.402  -8.433   8.217  1.00  0.00     0.126 A 
HETATM   34  N   UNL     1      45.747  -8.470   8.230  1.00  0.00    -0.272 NA
HETATM   35  C   UNL     1      46.345  -9.643   7.930  1.00  0.00     0.116 A 
HETATM   36  C   UNL     1      45.642 -10.791   7.616  1.00  0.00     0.020 A 
HETATM   37  C   UNL     1      44.250 -10.734   7.613  1.00  0.00     0.012 A 
ENDBRANCH  24  32
ENDBRANCH  21  24
ENDBRANCH   1  20
TORSDOF 7
ENDMDL
MODEL 7
REMARK VINA RESULT:      -7.9      3.264      9.060
REMARK  7 active torsions:
REMARK  status: ('A' for Active; 'I' for Inactive)
REMARK    1  A    between atoms: C_6  and  C_7 
REMARK    2  A    between atoms: N_13  and  C_15 
REMARK    3  A    between atoms: C_15  and  C_16 
REMARK    4  A    between atoms: C_16  and  N_17 
REMARK       I    between atoms: N_17  and  C_18 
REMARK    5  A    between atoms: C_18  and  C_19 
REMARK    6  A    between atoms: C_19  and  N_20 
REMARK    7  A    between atoms: C_19  and  C_27 
ROOT
HETATM    1  C   UNL     1      42.320 -10.826   3.193  1.00  0.00     0.150 C 
ENDROOT
BRANCH   1   2
HETATM    2  C   UNL     1      43.156 -11.013   4.480  1.00  0.00     0.255 C 
BRANCH   2   3
HETATM    3  N   UNL     1      42.357 -11.576   5.643  1.00  0.00    -0.063 N 
HETATM    4  C   UNL     1      41.253 -10.676   6.208  1.00  0.00     0.272 C 
HETATM    5  C   UNL     1      41.758  -9.391   6.918  1.00  0.00     0.188 C 
HETATM    6  O   UNL     1      42.446  -9.744   8.132  1.00  0.00    -0.339 OA
HETATM    7  C   UNL     1      43.782  -9.934   7.920  1.00  0.00     0.077 A 
HETATM    8  C   UNL     1      44.242 -11.080   7.265  1.00  0.00     0.001 A 
HETATM    9  C   UNL     1      44.667  -8.990   8.432  1.00  0.00     0.037 A 
HETATM   10  C   UNL     1      45.624 -11.251   7.098  1.00  0.00     0.012 A 
HETATM   11  C   UNL     1      43.269 -12.099   6.753  1.00  0.00     0.276 C 
HETATM   12  C   UNL     1      46.516 -10.293   7.587  1.00  0.00     0.001 A 
HETATM   13  C   UNL     1      46.038  -9.166   8.255  1.00  0.00     0.003 A 
HETATM   14  H   UNL     1      41.878 -12.422   5.305  1.00  0.00     0.280 HD
BRANCH   5  15
HETATM   15  C   UNL     1      40.581  -8.495   7.236  1.00  0.00    -0.020 A 
HETATM   16  C   UNL     1      40.227  -8.084   8.510  1.00  0.00     0.059 A 
HETATM   17  S   UNL     1      38.863  -7.053   8.525  1.00  0.00    -0.113 SA
HETATM   18  C   UNL     1      38.699  -7.156   6.829  1.00  0.00     0.050 A 
HETATM   19  C   UNL     1      39.672  -7.949   6.264  1.00  0.00     0.017 A 
ENDBRANCH   5  15
ENDBRANCH   2   3
ENDBRANCH   1   2
BRANCH   1  20
HETATM   20  N   UNL     1      42.015 -12.071   2.482  1.00  0.00    -0.357 N 
HETATM   21  C   UNL     1      40.715 -12.409   2.137  1.00  0.00     0.253 C 
HETATM   22  O   UNL     1      39.764 -11.752   2.556  1.00  0.00    -0.271 OA
HETATM   23  H   UNL     1      42.777 -12.475   1.938  1.00  0.00     0.162 HD
BRANCH  21  24
HETATM   24  C   UNL     1      40.533 -13.690   1.251  1.00  0.00     0.314 C 
BRANCH  24  25
HETATM   25  N   UNL     1      40.786 -13.486  -0.259  1.00  0.00    -0.050 N 
HETATM   26  H   UNL     1      41.711 -13.894  -0.446  1.00  0.00     0.281 HD
HETATM   27  C   UNL     1      39.787 -14.239  -1.136  1.00  0.00     0.262 C 
HETATM   28  C   UNL     1      40.166 -14.076  -2.612  1.00  0.00     0.195 C 
HETATM   29  O   UNL     1      40.211 -12.692  -2.968  1.00  0.00    -0.388 OA
HETATM   30  C   UNL     1      41.201 -11.979  -2.218  1.00  0.00     0.195 C 
HETATM   31  C   UNL     1      40.885 -12.025  -0.717  1.00  0.00     0.262 C 
ENDBRANCH  24  25
BRANCH  24  32
HETATM   32  C   UNL     1      41.275 -14.890   1.789  1.00  0.00    -0.001 A 
HETATM   33  C   UNL     1      40.789 -15.640   2.857  1.00  0.00     0.126 A 
HETATM   34  N   UNL     1      41.427 -16.705   3.377  1.00  0.00    -0.272 NA
HETATM   35  C   UNL     1      42.614 -17.051   2.835  1.00  0.00     0.116 A 
HETATM   36  C   UNL     1      43.192 -16.368   1.781  1.00  0.00     0.020 A 
HETATM   37  C   UNL     1      42.514 -15.271   1.253  1.00  0.00     0.012 A 
ENDBRANCH  24  32
ENDBRANCH  21  24
ENDBRANCH   1  20
TORSDOF 7
ENDMDL
MODEL 8
REMARK VINA RESULT:      -7.8      2.435      5.021
REMARK  7 active torsions:
REMARK  status: ('A' for Active; 'I' for Inactive)
REMARK    1  A    between atoms: C_6  and  C_7 
REMARK    2  A    between atoms: N_13  and  C_15 
REMARK    3  A    between atoms: C_15  and  C_16 
REMARK    4  A    between atoms: C_16  and  N_17 
REMARK       I    between atoms: N_17  and  C_18 
REMARK    5  A    between atoms: C_18  and  C_19 
REMARK    6  A    between atoms: C_19  and  N_20 
REMARK    7  A    between atoms: C_19  and  C_27 
ROOT
HETATM    1  C   UNL     1      39.652 -12.363   5.493  1.00  0.00     0.150 C 
ENDROOT
BRANCH   1   2
HETATM    2  C   UNL     1      40.492 -13.358   4.660  1.00  0.00     0.255 C 
BRANCH   2   3
HETATM    3  N   UNL     1      41.528 -12.685   3.777  1.00  0.00    -0.063 N 
HETATM    4  C   UNL     1      41.180 -12.567   2.290  1.00  0.00     0.272 C 
HETATM    5  C   UNL     1      41.117 -13.917   1.526  1.00  0.00     0.188 C 
HETATM    6  O   UNL     1      42.435 -14.488   1.436  1.00  0.00    -0.339 OA
HETATM    7  C   UNL     1      42.706 -15.307   2.494  1.00  0.00     0.077 A 
HETATM    8  C   UNL     1      42.968 -14.772   3.759  1.00  0.00     0.001 A 
HETATM    9  C   UNL     1      42.777 -16.678   2.261  1.00  0.00     0.037 A 
HETATM   10  C   UNL     1      43.274 -15.648   4.810  1.00  0.00     0.012 A 
HETATM   11  C   UNL     1      42.918 -13.289   3.976  1.00  0.00     0.276 C 
HETATM   12  C   UNL     1      43.321 -17.026   4.587  1.00  0.00     0.001 A 
HETATM   13  C   UNL     1      43.075 -17.540   3.314  1.00  0.00     0.003 A 
HETATM   14  H   UNL     1      41.635 -11.718   4.112  1.00  0.00     0.280 HD
BRANCH   5  15
HETATM   15  C   UNL     1      40.560 -13.686   0.138  1.00  0.00    -0.020 A 
HETATM   16  C   UNL     1      39.787 -14.597  -0.561  1.00  0.00     0.059 A 
HETATM   17  S   UNL     1      39.293 -14.019  -2.093  1.00  0.00    -0.113 SA
HETATM   18  C   UNL     1      40.127 -12.547  -1.866  1.00  0.00     0.050 A 
HETATM   19  C   UNL     1      40.756 -12.495  -0.642  1.00  0.00     0.017 A 
ENDBRANCH   5  15
ENDBRANCH   2   3
ENDBRANCH   1   2
BRANCH   1  20
HETATM   20  N   UNL     1      40.407 -11.653   6.531  1.00  0.00    -0.357 N 
HETATM   21  C   UNL     1      41.016 -10.433   6.277  1.00  0.00     0.253 C 
HETATM   22  O   UNL     1      41.075  -9.987   5.134  1.00  0.00    -0.271 OA
HETATM   23  H   UNL     1      40.164 -11.878   7.495  1.00  0.00     0.162 HD
BRANCH  21  24
HETATM   24  C   UNL     1      41.666  -9.704   7.505  1.00  0.00     0.314 C 
BRANCH  24  25
HETATM   25  N   UNL     1      43.192  -9.889   7.647  1.00  0.00    -0.050 N 
HETATM   26  H   UNL     1      43.619  -9.102   7.142  1.00  0.00     0.281 HD
HETATM   27  C   UNL     1      43.670  -9.794   9.095  1.00  0.00     0.262 C 
HETATM   28  C   UNL     1      45.199  -9.880   9.144  1.00  0.00     0.195 C 
HETATM   29  O   UNL     1      45.653 -11.093   8.539  1.00  0.00    -0.388 OA
HETATM   30  C   UNL     1      45.290 -11.169   7.156  1.00  0.00     0.195 C 
HETATM   31  C   UNL     1      43.764 -11.152   6.991  1.00  0.00     0.262 C 
ENDBRANCH  24  25
BRANCH  24  32
HETATM   32  C   UNL     1      41.262  -8.253   7.610  1.00  0.00    -0.001 A 
HETATM   33  C   UNL     1      40.086  -7.858   8.244  1.00  0.00     0.126 A 
HETATM   34  N   UNL     1      39.682  -6.578   8.344  1.00  0.00    -0.272 NA
HETATM   35  C   UNL     1      40.461  -5.628   7.783  1.00  0.00     0.116 A 
HETATM   36  C   UNL     1      41.641  -5.913   7.121  1.00  0.00     0.020 A 
HETATM   37  C   UNL     1      42.045  -7.243   7.032  1.00  0.00     0.012 A 
ENDBRANCH  24  32
ENDBRANCH  21  24
ENDBRANCH   1  20
TORSDOF 7
ENDMDL
MODEL 9
REMARK VINA RESULT:      -7.6      3.912      8.595
REMARK  7 active torsions:
REMARK  status: ('A' for Active; 'I' for Inactive)
REMARK    1  A    between atoms: C_6  and  C_7 
REMARK    2  A    between atoms: N_13  and  C_15 
REMARK    3  A    between atoms: C_15  and  C_16 
REMARK    4  A    between atoms: C_16  and  N_17 
REMARK       I    between atoms: N_17  and  C_18 
REMARK    5  A    between atoms: C_18  and  C_19 
REMARK    6  A    between atoms: C_19  and  N_20 
REMARK    7  A    between atoms: C_19  and  C_27 
ROOT
HETATM    1  C   UNL     1      42.279 -11.879   2.448  1.00  0.00     0.150 C 
ENDROOT
BRANCH   1   2
HETATM    2  C   UNL     1      41.931 -13.240   3.092  1.00  0.00     0.255 C 
BRANCH   2   3
HETATM    3  N   UNL     1      41.288 -13.115   4.462  1.00  0.00    -0.063 N 
HETATM    4  C   UNL     1      42.015 -12.225   5.476  1.00  0.00     0.272 C 
HETATM    5  C   UNL     1      43.390 -12.767   5.952  1.00  0.00     0.188 C 
HETATM    6  O   UNL     1      43.198 -13.953   6.745  1.00  0.00    -0.339 OA
HETATM    7  C   UNL     1      43.221 -15.084   5.979  1.00  0.00     0.077 A 
HETATM    8  C   UNL     1      42.143 -15.401   5.148  1.00  0.00     0.001 A 
HETATM    9  C   UNL     1      44.315 -15.936   6.101  1.00  0.00     0.037 A 
HETATM   10  C   UNL     1      42.194 -16.589   4.404  1.00  0.00     0.012 A 
HETATM   11  C   UNL     1      40.961 -14.483   5.061  1.00  0.00     0.276 C 
HETATM   12  C   UNL     1      43.301 -17.435   4.503  1.00  0.00     0.001 A 
HETATM   13  C   UNL     1      44.358 -17.109   5.352  1.00  0.00     0.003 A 
HETATM   14  H   UNL     1      40.364 -12.682   4.329  1.00  0.00     0.280 HD
BRANCH   5  15
HETATM   15  C   UNL     1      44.093 -11.707   6.772  1.00  0.00    -0.020 A 
HETATM   16  C   UNL     1      45.467 -11.541   6.831  1.00  0.00     0.059 A 
HETATM   17  S   UNL     1      45.941 -10.235   7.827  1.00  0.00    -0.113 SA
HETATM   18  C   UNL     1      44.319  -9.881   8.226  1.00  0.00     0.050 A 
HETATM   19  C   UNL     1      43.436 -10.733   7.600  1.00  0.00     0.017 A 
ENDBRANCH   5  15
ENDBRANCH   2   3
ENDBRANCH   1   2
BRANCH   1  20
HETATM   20  N   UNL     1      41.742 -11.693   1.096  1.00  0.00    -0.357 N 
HETATM   21  C   UNL     1      40.580 -10.970   0.872  1.00  0.00     0.253 C 
HETATM   22  O   UNL     1      39.881 -10.597   1.811  1.00  0.00    -0.271 OA
HETATM   23  H   UNL     1      42.411 -11.776   0.332  1.00  0.00     0.162 HD
BRANCH  21  24
HETATM   24  C   UNL     1      40.189 -10.716  -0.626  1.00  0.00     0.314 C 
BRANCH  24  25
HETATM   25  N   UNL     1      41.168  -9.823  -1.418  1.00  0.00    -0.050 N 
HETATM   26  H   UNL     1      41.877 -10.458  -1.806  1.00  0.00     0.281 HD
HETATM   27  C   UNL     1      40.507  -9.124  -2.606  1.00  0.00     0.262 C 
HETATM   28  C   UNL     1      41.559  -8.346  -3.402  1.00  0.00     0.195 C 
HETATM   29  O   UNL     1      42.224  -7.399  -2.562  1.00  0.00    -0.388 OA
HETATM   30  C   UNL     1      42.923  -8.035  -1.488  1.00  0.00     0.195 C 
HETATM   31  C   UNL     1      41.949  -8.802  -0.582  1.00  0.00     0.262 C 
ENDBRANCH  24  25
BRANCH  24  32
HETATM   32  C   UNL     1      39.855 -11.985  -1.372  1.00  0.00    -0.001 A 
HETATM   33  C   UNL     1      40.785 -12.631  -2.184  1.00  0.00     0.126 A 
HETATM   34  N   UNL     1      40.522 -13.753  -2.880  1.00  0.00    -0.272 NA
HETATM   35  C   UNL     1      39.278 -14.270  -2.789  1.00  0.00     0.116 A 
HETATM   36  C   UNL     1      38.278 -13.702  -2.021  1.00  0.00     0.020 A 
HETATM   37  C   UNL     1      38.570 -12.544  -1.305  1.00  0.00     0.012 A 
ENDBRANCH  24  32
ENDBRANCH  21  24
ENDBRANCH   1  20
TORSDOF 7
ENDMDL
MODEL 10
REMARK VINA RESULT:      -7.6      1.703      3.432
REMARK  7 active torsions:
REMARK  status: ('A' for Active; 'I' for Inactive)
REMARK    1  A    between atoms: C_6  and  C_7 
REMARK    2  A    between atoms: N_13  and  C_15 
REMARK    3  A    between atoms: C_15  and  C_16 
REMARK    4  A    between atoms: C_16  and  N_17 
REMARK       I    between atoms: N_17  and  C_18 
REMARK    5  A    between atoms: C_18  and  C_19 
REMARK    6  A    between atoms: C_19  and  N_20 
REMARK    7  A    between atoms: C_19  and  C_27 
ROOT
HETATM    1  C   UNL     1      41.744 -10.927   4.530  1.00  0.00     0.150 C 
ENDROOT
BRANCH   1   2
HETATM    2  C   UNL     1      42.045 -12.333   3.964  1.00  0.00     0.255 C 
BRANCH   2   3
HETATM    3  N   UNL     1      41.170 -13.424   4.557  1.00  0.00    -0.063 N 
HETATM    4  C   UNL     1      41.778 -14.830   4.608  1.00  0.00     0.272 C 
HETATM    5  C   UNL     1      42.008 -15.492   3.222  1.00  0.00     0.188 C 
HETATM    6  O   UNL     1      40.740 -15.783   2.605  1.00  0.00    -0.339 OA
HETATM    7  C   UNL     1      40.301 -14.745   1.834  1.00  0.00     0.077 A 
HETATM    8  C   UNL     1      39.805 -13.580   2.427  1.00  0.00     0.001 A 
HETATM    9  C   UNL     1      40.304 -14.908   0.451  1.00  0.00     0.037 A 
HETATM   10  C   UNL     1      39.333 -12.552   1.598  1.00  0.00     0.012 A 
HETATM   11  C   UNL     1      39.781 -13.444   3.919  1.00  0.00     0.276 C 
HETATM   12  C   UNL     1      39.358 -12.700   0.209  1.00  0.00     0.001 A 
HETATM   13  C   UNL     1      39.840 -13.877  -0.363  1.00  0.00     0.003 A 
HETATM   14  H   UNL     1      40.983 -13.170   5.536  1.00  0.00     0.280 HD
BRANCH   5  15
HETATM   15  C   UNL     1      42.800 -16.769   3.398  1.00  0.00    -0.020 A 
HETATM   16  C   UNL     1      43.430 -17.147   4.572  1.00  0.00     0.059 A 
HETATM   17  S   UNL     1      44.218 -18.660   4.450  1.00  0.00    -0.113 SA
HETATM   18  C   UNL     1      43.757 -18.829   2.815  1.00  0.00     0.050 A 
HETATM   19  C   UNL     1      43.007 -17.760   2.378  1.00  0.00     0.017 A 
ENDBRANCH   5  15
ENDBRANCH   2   3
ENDBRANCH   1   2
BRANCH   1  20
HETATM   20  N   UNL     1      41.816 -10.834   5.992  1.00  0.00    -0.357 N 
HETATM   21  C   UNL     1      41.764  -9.611   6.644  1.00  0.00     0.253 C 
HETATM   22  O   UNL     1      41.815  -8.559   6.010  1.00  0.00    -0.271 OA
HETATM   23  H   UNL     1      41.533 -11.666   6.509  1.00  0.00     0.162 HD
BRANCH  21  24
HETATM   24  C   UNL     1      41.700  -9.652   8.210  1.00  0.00     0.314 C 
BRANCH  24  25
HETATM   25  N   UNL     1      43.064  -9.546   8.927  1.00  0.00    -0.050 N 
HETATM   26  H   UNL     1      43.283  -8.543   8.967  1.00  0.00     0.281 HD
HETATM   27  C   UNL     1      43.016 -10.045  10.371  1.00  0.00     0.262 C 
HETATM   28  C   UNL     1      44.372  -9.809  11.045  1.00  0.00     0.195 C 
HETATM   29  O   UNL     1      45.415 -10.462  10.317  1.00  0.00    -0.388 OA
HETATM   30  C   UNL     1      45.536  -9.954   8.985  1.00  0.00     0.195 C 
HETATM   31  C   UNL     1      44.244 -10.192   8.191  1.00  0.00     0.262 C 
ENDBRANCH  24  25
BRANCH  24  32
HETATM   32  C   UNL     1      40.686  -8.692   8.785  1.00  0.00    -0.001 A 
HETATM   33  C   UNL     1      39.353  -9.050   8.973  1.00  0.00     0.126 A 
HETATM   34  N   UNL     1      38.416  -8.220   9.465  1.00  0.00    -0.272 NA
HETATM   35  C   UNL     1      38.794  -6.963   9.780  1.00  0.00     0.116 A 
HETATM   36  C   UNL     1      40.088  -6.501   9.622  1.00  0.00     0.020 A 
HETATM   37  C   UNL     1      41.046  -7.377   9.115  1.00  0.00     0.012 A 
ENDBRANCH  24  32
ENDBRANCH  21  24
ENDBRANCH   1  20
TORSDOF 7
ENDMDL
