MODEL 1
REMARK VINA RESULT:      -8.6      0.000      0.000
REMARK  11 active torsions:
REMARK  status: ('A' for Active; 'I' for Inactive)
REMARK    1  A    between atoms: O_2  and  C_3 
REMARK    2  A    between atoms: C_6  and  C_7 
REMARK    3  A    between atoms: C_7  and  S_8 
REMARK    4  A    between atoms: C_7  and  C_22 
REMARK    5  A    between atoms: S_8  and  C_9 
REMARK    6  A    between atoms: C_12  and  C_13 
REMARK    7  A    between atoms: C_22  and  C_23 
REMARK       I    between atoms: C_23  and  N_24 
REMARK    8  A    between atoms: N_24  and  C_25 
REMARK    9  A    between atoms: C_25  and  C_26 
REMARK   10  A    between atoms: C_26  and  C_27 
REMARK   11  A    between atoms: C_27  and  N_28 
ROOT
HETATM    1  C   UNL     1      41.858 -15.279   3.332  1.00  0.00     0.097 C 
ENDROOT
BRANCH   1   2
HETATM    2  C   UNL     1      42.662 -16.510   3.749  1.00  0.00    -0.043 A 
HETATM    3  C   UNL     1      42.979 -17.489   2.791  1.00  0.00     0.011 A 
HETATM    4  C   UNL     1      43.671 -18.655   3.146  1.00  0.00     0.037 A 
HETATM    5  C   UNL     1      44.054 -18.867   4.468  1.00  0.00     0.068 A 
HETATM    6  C   UNL     1      43.743 -17.904   5.427  1.00  0.00     0.037 A 
HETATM    7  C   UNL     1      43.055 -16.739   5.077  1.00  0.00     0.011 A 
BRANCH   5   8
HETATM    8  O   UNL     1      44.718 -19.957   4.953  1.00  0.00    -0.356 OA
HETATM    9  C   UNL     1      43.973 -21.160   5.094  1.00  0.00     0.210 C 
ENDBRANCH   5   8
ENDBRANCH   1   2
BRANCH   1  10
HETATM   10  S   UNL     1      42.864 -14.227   2.191  1.00  0.00    -0.080 SA
BRANCH  10  11
HETATM   11  C   UNL     1      43.040 -12.805   3.133  1.00  0.00     0.190 A 
HETATM   12  N   UNL     1      42.942 -11.564   2.739  1.00  0.00    -0.122 NA
HETATM   13  N   UNL     1      43.269 -10.774   3.820  1.00  0.00    -0.129 NA
HETATM   14  C   UNL     1      43.574 -11.560   4.842  1.00  0.00     0.162 A 
HETATM   15  N   UNL     1      43.402 -12.861   4.440  1.00  0.00    -0.317 N 
HETATM   16  H   UNL     1      43.560 -13.696   4.982  1.00  0.00     0.169 HD
BRANCH  14  17
HETATM   17  C   UNL     1      44.009 -11.146   6.175  1.00  0.00     0.012 A 
HETATM   18  C   UNL     1      45.364 -11.254   6.522  1.00  0.00     0.017 A 
HETATM   19  C   UNL     1      45.814 -10.864   7.787  1.00  0.00     0.025 A 
HETATM   20  C   UNL     1      44.908 -10.368   8.720  1.00  0.00     0.034 A 
HETATM   21 CL   UNL     1      45.457  -9.888  10.277  1.00  0.00    -0.084 Cl
HETATM   22  C   UNL     1      43.557 -10.263   8.399  1.00  0.00     0.025 A 
HETATM   23  C   UNL     1      43.107 -10.651   7.132  1.00  0.00     0.017 A 
ENDBRANCH  14  17
ENDBRANCH  10  11
ENDBRANCH   1  10
BRANCH   1  24
HETATM   24  C   UNL     1      40.448 -15.606   2.813  1.00  0.00     0.123 C 
BRANCH  24  25
HETATM   25  C   UNL     1      39.845 -14.535   1.927  1.00  0.00     0.219 C 
HETATM   26  N   UNL     1      39.327 -13.470   2.637  1.00  0.00    -0.361 N 
HETATM   27  H   UNL     1      39.219 -13.597   3.641  1.00  0.00     0.162 HD
HETATM   28  O   UNL     1      39.849 -14.548   0.698  1.00  0.00    -0.274 OA
BRANCH  26  29
HETATM   29  C   UNL     1      38.502 -12.453   2.018  1.00  0.00     0.124 C 
BRANCH  29  30
HETATM   30  C   UNL     1      39.273 -11.256   1.460  1.00  0.00     0.047 C 
BRANCH  30  31
HETATM   31  C   UNL     1      39.150 -10.968  -0.037  1.00  0.00     0.236 C 
BRANCH  31  32
HETATM   32  N   UNL     1      39.216 -12.193  -0.903  1.00  0.00    -0.067 N 
HETATM   33  H   UNL     1      39.445 -12.980  -0.257  1.00  0.00     0.280 HD
HETATM   34  C   UNL     1      37.953 -12.519  -1.678  1.00  0.00     0.261 C 
HETATM   35  C   UNL     1      38.153 -13.808  -2.482  1.00  0.00     0.195 C 
HETATM   36  O   UNL     1      39.277 -13.699  -3.363  1.00  0.00    -0.388 OA
HETATM   37  C   UNL     1      40.489 -13.468  -2.634  1.00  0.00     0.195 C 
HETATM   38  C   UNL     1      40.411 -12.152  -1.853  1.00  0.00     0.261 C 
ENDBRANCH  31  32
ENDBRANCH  30  31
ENDBRANCH  29  30
ENDBRANCH  26  29
ENDBRANCH  24  25
ENDBRANCH   1  24
TORSDOF 11
ENDMDL
MODEL 2
REMARK VINA RESULT:      -8.4      2.379      2.988
REMARK  11 active torsions:
REMARK  status: ('A' for Active; 'I' for Inactive)
REMARK    1  A    between atoms: O_2  and  C_3 
REMARK    2  A    between atoms: C_6  and  C_7 
REMARK    3  A    between atoms: C_7  and  S_8 
REMARK    4  A    between atoms: C_7  and  C_22 
REMARK    5  A    between atoms: S_8  and  C_9 
REMARK    6  A    between atoms: C_12  and  C_13 
REMARK    7  A    between atoms: C_22  and  C_23 
REMARK       I    between atoms: C_23  and  N_24 
REMARK    8  A    between atoms: N_24  and  C_25 
REMARK    9  A    between atoms: C_25  and  C_26 
REMARK   10  A    between atoms: C_26  and  C_27 
REMARK   11  A    between atoms: C_27  and  N_28 
ROOT
HETATM    1  C   UNL     1      42.075 -14.072   5.682  1.00  0.00     0.097 C 
ENDROOT
BRANCH   1   2
HETATM    2  C   UNL     1      42.663 -15.284   4.960  1.00  0.00    -0.043 A 
HETATM    3  C   UNL     1      42.683 -15.312   3.555  1.00  0.00     0.011 A 
HETATM    4  C   UNL     1      43.167 -16.427   2.857  1.00  0.00     0.037 A 
HETATM    5  C   UNL     1      43.636 -17.539   3.553  1.00  0.00     0.068 A 
HETATM    6  C   UNL     1      43.618 -17.524   4.947  1.00  0.00     0.037 A 
HETATM    7  C   UNL     1      43.138 -16.413   5.646  1.00  0.00     0.011 A 
BRANCH   5   8
HETATM    8  O   UNL     1      44.122 -18.691   3.004  1.00  0.00    -0.356 OA
HETATM    9  C   UNL     1      43.223 -19.462   2.215  1.00  0.00     0.210 C 
ENDBRANCH   5   8
ENDBRANCH   1   2
BRANCH   1  10
HETATM   10  S   UNL     1      42.758 -12.515   4.955  1.00  0.00    -0.080 SA
BRANCH  10  11
HETATM   11  C   UNL     1      43.637 -11.893   6.290  1.00  0.00     0.190 A 
HETATM   12  N   UNL     1      44.869 -12.159   6.634  1.00  0.00    -0.122 NA
HETATM   13  N   UNL     1      45.098 -11.512   7.830  1.00  0.00    -0.129 NA
HETATM   14  C   UNL     1      43.990 -10.880   8.188  1.00  0.00     0.162 A 
HETATM   15  N   UNL     1      43.053 -11.079   7.206  1.00  0.00    -0.317 N 
HETATM   16  H   UNL     1      42.106 -10.737   7.183  1.00  0.00     0.169 HD
BRANCH  14  17
HETATM   17  C   UNL     1      43.776 -10.094   9.403  1.00  0.00     0.012 A 
HETATM   18  C   UNL     1      43.666 -10.751  10.638  1.00  0.00     0.017 A 
HETATM   19  C   UNL     1      43.465 -10.030  11.819  1.00  0.00     0.025 A 
HETATM   20  C   UNL     1      43.365  -8.643  11.772  1.00  0.00     0.034 A 
HETATM   21 CL   UNL     1      43.116  -7.751  13.221  1.00  0.00    -0.084 Cl
HETATM   22  C   UNL     1      43.460  -7.972  10.555  1.00  0.00     0.025 A 
HETATM   23  C   UNL     1      43.664  -8.694   9.373  1.00  0.00     0.017 A 
ENDBRANCH  14  17
ENDBRANCH  10  11
ENDBRANCH   1  10
BRANCH   1  24
HETATM   24  C   UNL     1      40.542 -14.099   5.792  1.00  0.00     0.123 C 
BRANCH  24  25
HETATM   25  C   UNL     1      39.835 -13.069   4.936  1.00  0.00     0.219 C 
HETATM   26  N   UNL     1      39.549 -13.522   3.664  1.00  0.00    -0.361 N 
HETATM   27  H   UNL     1      40.002 -14.385   3.371  1.00  0.00     0.162 HD
HETATM   28  O   UNL     1      39.483 -11.954   5.317  1.00  0.00    -0.274 OA
BRANCH  26  29
HETATM   29  C   UNL     1      39.093 -12.640   2.610  1.00  0.00     0.124 C 
BRANCH  29  30
HETATM   30  C   UNL     1      40.101 -12.415   1.483  1.00  0.00     0.047 C 
BRANCH  30  31
HETATM   31  C   UNL     1      40.770 -13.648   0.872  1.00  0.00     0.236 C 
BRANCH  31  32
HETATM   32  N   UNL     1      40.700 -13.702  -0.628  1.00  0.00    -0.067 N 
HETATM   33  H   UNL     1      41.549 -14.230  -0.928  1.00  0.00     0.280 HD
HETATM   34  C   UNL     1      39.459 -14.359  -1.204  1.00  0.00     0.261 C 
HETATM   35  C   UNL     1      39.543 -14.378  -2.734  1.00  0.00     0.195 C 
HETATM   36  O   UNL     1      39.711 -13.056  -3.259  1.00  0.00    -0.388 OA
HETATM   37  C   UNL     1      40.921 -12.456  -2.782  1.00  0.00     0.195 C 
HETATM   38  C   UNL     1      40.897 -12.324  -1.255  1.00  0.00     0.261 C 
ENDBRANCH  31  32
ENDBRANCH  30  31
ENDBRANCH  29  30
ENDBRANCH  26  29
ENDBRANCH  24  25
ENDBRANCH   1  24
TORSDOF 11
ENDMDL
MODEL 3
REMARK VINA RESULT:      -8.4      2.661      6.445
REMARK  11 active torsions:
REMARK  status: ('A' for Active; 'I' for Inactive)
REMARK    1  A    between atoms: O_2  and  C_3 
REMARK    2  A    between atoms: C_6  and  C_7 
REMARK    3  A    between atoms: C_7  and  S_8 
REMARK    4  A    between atoms: C_7  and  C_22 
REMARK    5  A    between atoms: S_8  and  C_9 
REMARK    6  A    between atoms: C_12  and  C_13 
REMARK    7  A    between atoms: C_22  and  C_23 
REMARK       I    between atoms: C_23  and  N_24 
REMARK    8  A    between atoms: N_24  and  C_25 
REMARK    9  A    between atoms: C_25  and  C_26 
REMARK   10  A    between atoms: C_26  and  C_27 
REMARK   11  A    between atoms: C_27  and  N_28 
ROOT
HETATM    1  C   UNL     1      42.093 -13.049   4.374  1.00  0.00     0.097 C 
ENDROOT
BRANCH   1   2
HETATM    2  C   UNL     1      41.446 -13.349   3.023  1.00  0.00    -0.043 A 
HETATM    3  C   UNL     1      41.650 -12.471   1.945  1.00  0.00     0.011 A 
HETATM    4  C   UNL     1      41.032 -12.686   0.705  1.00  0.00     0.037 A 
HETATM    5  C   UNL     1      40.194 -13.782   0.522  1.00  0.00     0.068 A 
HETATM    6  C   UNL     1      39.981 -14.659   1.585  1.00  0.00     0.037 A 
HETATM    7  C   UNL     1      40.597 -14.449   2.822  1.00  0.00     0.011 A 
BRANCH   5   8
HETATM    8  O   UNL     1      39.522 -14.104  -0.623  1.00  0.00    -0.356 OA
HETATM    9  C   UNL     1      38.919 -13.036  -1.343  1.00  0.00     0.210 C 
ENDBRANCH   5   8
ENDBRANCH   1   2
BRANCH   1  10
HETATM   10  S   UNL     1      43.019 -11.451   4.287  1.00  0.00    -0.080 SA
BRANCH  10  11
HETATM   11  C   UNL     1      43.686 -11.376   5.865  1.00  0.00     0.190 A 
HETATM   12  N   UNL     1      44.542 -12.195   6.415  1.00  0.00    -0.122 NA
HETATM   13  N   UNL     1      44.696 -11.791   7.724  1.00  0.00    -0.129 NA
HETATM   14  C   UNL     1      43.916 -10.743   7.939  1.00  0.00     0.162 A 
HETATM   15  N   UNL     1      43.286 -10.436   6.759  1.00  0.00    -0.317 N 
HETATM   16  H   UNL     1      42.621  -9.697   6.593  1.00  0.00     0.169 HD
BRANCH  14  17
HETATM   17  C   UNL     1      43.742 -10.015   9.195  1.00  0.00     0.012 A 
HETATM   18  C   UNL     1      43.526  -8.629   9.164  1.00  0.00     0.017 A 
HETATM   19  C   UNL     1      43.352  -7.903  10.346  1.00  0.00     0.025 A 
HETATM   20  C   UNL     1      43.401  -8.559  11.573  1.00  0.00     0.034 A 
HETATM   21 CL   UNL     1      43.189  -7.670  13.030  1.00  0.00    -0.084 Cl
HETATM   22  C   UNL     1      43.625  -9.933  11.626  1.00  0.00     0.025 A 
HETATM   23  C   UNL     1      43.796 -10.659  10.442  1.00  0.00     0.017 A 
ENDBRANCH  14  17
ENDBRANCH  10  11
ENDBRANCH   1  10
BRANCH   1  24
HETATM   24  C   UNL     1      41.124 -13.154   5.563  1.00  0.00     0.123 C 
BRANCH  24  25
HETATM   25  C   UNL     1      41.321 -14.386   6.422  1.00  0.00     0.219 C 
HETATM   26  N   UNL     1      42.477 -14.346   7.176  1.00  0.00    -0.361 N 
HETATM   27  H   UNL     1      43.155 -13.625   6.937  1.00  0.00     0.162 HD
HETATM   28  O   UNL     1      40.526 -15.320   6.512  1.00  0.00    -0.274 OA
BRANCH  26  29
HETATM   29  C   UNL     1      42.983 -15.503   7.884  1.00  0.00     0.124 C 
BRANCH  29  30
HETATM   30  C   UNL     1      44.018 -16.322   7.114  1.00  0.00     0.047 C 
BRANCH  30  31
HETATM   31  C   UNL     1      43.563 -17.648   6.502  1.00  0.00     0.236 C 
BRANCH  31  32
HETATM   32  N   UNL     1      43.827 -17.764   5.027  1.00  0.00    -0.067 N 
HETATM   33  H   UNL     1      44.699 -17.217   4.856  1.00  0.00     0.280 HD
HETATM   34  C   UNL     1      43.997 -19.176   4.500  1.00  0.00     0.261 C 
HETATM   35  C   UNL     1      44.299 -19.139   2.997  1.00  0.00     0.195 C 
HETATM   36  O   UNL     1      43.269 -18.448   2.281  1.00  0.00    -0.388 OA
HETATM   37  C   UNL     1      43.152 -17.088   2.718  1.00  0.00     0.195 C 
HETATM   38  C   UNL     1      42.775 -17.025   4.203  1.00  0.00     0.261 C 
ENDBRANCH  31  32
ENDBRANCH  30  31
ENDBRANCH  29  30
ENDBRANCH  26  29
ENDBRANCH  24  25
ENDBRANCH   1  24
TORSDOF 11
ENDMDL
MODEL 4
REMARK VINA RESULT:      -8.3      1.283      2.421
REMARK  11 active torsions:
REMARK  status: ('A' for Active; 'I' for Inactive)
REMARK    1  A    between atoms: O_2  and  C_3 
REMARK    2  A    between atoms: C_6  and  C_7 
REMARK    3  A    between atoms: C_7  and  S_8 
REMARK    4  A    between atoms: C_7  and  C_22 
REMARK    5  A    between atoms: S_8  and  C_9 
REMARK    6  A    between atoms: C_12  and  C_13 
REMARK    7  A    between atoms: C_22  and  C_23 
REMARK       I    between atoms: C_23  and  N_24 
REMARK    8  A    between atoms: N_24  and  C_25 
REMARK    9  A    between atoms: C_25  and  C_26 
REMARK   10  A    between atoms: C_26  and  C_27 
REMARK   11  A    between atoms: C_27  and  N_28 
ROOT
HETATM    1  C   UNL     1      41.933 -15.273   2.930  1.00  0.00     0.097 C 
ENDROOT
BRANCH   1   2
HETATM    2  C   UNL     1      42.630 -16.542   3.418  1.00  0.00    -0.043 A 
HETATM    3  C   UNL     1      43.020 -16.645   4.765  1.00  0.00     0.011 A 
HETATM    4  C   UNL     1      43.706 -17.771   5.238  1.00  0.00     0.037 A 
HETATM    5  C   UNL     1      44.020 -18.816   4.372  1.00  0.00     0.068 A 
HETATM    6  C   UNL     1      43.641 -18.723   3.033  1.00  0.00     0.037 A 
HETATM    7  C   UNL     1      42.955 -17.603   2.558  1.00  0.00     0.011 A 
BRANCH   5   8
HETATM    8  O   UNL     1      44.692 -19.960   4.694  1.00  0.00    -0.356 OA
HETATM    9  C   UNL     1      43.939 -21.006   5.297  1.00  0.00     0.210 C 
ENDBRANCH   5   8
ENDBRANCH   1   2
BRANCH   1  10
HETATM   10  S   UNL     1      43.134 -14.211   2.009  1.00  0.00    -0.080 SA
BRANCH  10  11
HETATM   11  C   UNL     1      43.155 -12.811   3.001  1.00  0.00     0.190 A 
HETATM   12  N   UNL     1      42.888 -11.580   2.657  1.00  0.00    -0.122 NA
HETATM   13  N   UNL     1      43.144 -10.793   3.760  1.00  0.00    -0.129 NA
HETATM   14  C   UNL     1      43.575 -11.569   4.743  1.00  0.00     0.162 A 
HETATM   15  N   UNL     1      43.559 -12.866   4.296  1.00  0.00    -0.317 N 
HETATM   16  H   UNL     1      43.837 -13.693   4.800  1.00  0.00     0.169 HD
BRANCH  14  17
HETATM   17  C   UNL     1      43.992 -11.150   6.080  1.00  0.00     0.012 A 
HETATM   18  C   UNL     1      45.344 -11.248   6.443  1.00  0.00     0.017 A 
HETATM   19  C   UNL     1      45.777 -10.852   7.712  1.00  0.00     0.025 A 
HETATM   20  C   UNL     1      44.857 -10.361   8.634  1.00  0.00     0.034 A 
HETATM   21 CL   UNL     1      45.384  -9.875  10.196  1.00  0.00    -0.084 Cl
HETATM   22  C   UNL     1      43.509 -10.266   8.298  1.00  0.00     0.025 A 
HETATM   23  C   UNL     1      43.076 -10.660   7.026  1.00  0.00     0.017 A 
ENDBRANCH  14  17
ENDBRANCH  10  11
ENDBRANCH   1  10
BRANCH   1  24
HETATM   24  C   UNL     1      40.617 -15.537   2.179  1.00  0.00     0.123 C 
BRANCH  24  25
HETATM   25  C   UNL     1      40.181 -14.409   1.268  1.00  0.00     0.219 C 
HETATM   26  N   UNL     1      40.207 -14.748  -0.070  1.00  0.00    -0.361 N 
HETATM   27  H   UNL     1      40.691 -15.609  -0.316  1.00  0.00     0.162 HD
HETATM   28  O   UNL     1      39.780 -13.309   1.645  1.00  0.00    -0.274 OA
BRANCH  26  29
HETATM   29  C   UNL     1      40.057 -13.765  -1.124  1.00  0.00     0.124 C 
BRANCH  29  30
HETATM   30  C   UNL     1      38.662 -13.704  -1.746  1.00  0.00     0.047 C 
BRANCH  30  31
HETATM   31  C   UNL     1      37.791 -12.489  -1.419  1.00  0.00     0.236 C 
BRANCH  31  32
HETATM   32  N   UNL     1      38.337 -11.623  -0.320  1.00  0.00    -0.067 N 
HETATM   33  H   UNL     1      38.895 -12.262   0.288  1.00  0.00     0.280 HD
HETATM   34  C   UNL     1      39.200 -10.459  -0.769  1.00  0.00     0.261 C 
HETATM   35  C   UNL     1      39.716  -9.691   0.454  1.00  0.00     0.195 C 
HETATM   36  O   UNL     1      38.633  -9.237   1.273  1.00  0.00    -0.388 OA
HETATM   37  C   UNL     1      37.856 -10.335   1.766  1.00  0.00     0.195 C 
HETATM   38  C   UNL     1      37.233 -11.123   0.609  1.00  0.00     0.261 C 
ENDBRANCH  31  32
ENDBRANCH  30  31
ENDBRANCH  29  30
ENDBRANCH  26  29
ENDBRANCH  24  25
ENDBRANCH   1  24
TORSDOF 11
ENDMDL
MODEL 5
REMARK VINA RESULT:      -8.1      4.934      7.850
REMARK  11 active torsions:
REMARK  status: ('A' for Active; 'I' for Inactive)
REMARK    1  A    between atoms: O_2  and  C_3 
REMARK    2  A    between atoms: C_6  and  C_7 
REMARK    3  A    between atoms: C_7  and  S_8 
REMARK    4  A    between atoms: C_7  and  C_22 
REMARK    5  A    between atoms: S_8  and  C_9 
REMARK    6  A    between atoms: C_12  and  C_13 
REMARK    7  A    between atoms: C_22  and  C_23 
REMARK       I    between atoms: C_23  and  N_24 
REMARK    8  A    between atoms: N_24  and  C_25 
REMARK    9  A    between atoms: C_25  and  C_26 
REMARK   10  A    between atoms: C_26  and  C_27 
REMARK   11  A    between atoms: C_27  and  N_28 
ROOT
HETATM    1  C   UNL     1      42.444 -12.555   6.041  1.00  0.00     0.097 C 
ENDROOT
BRANCH   1   2
HETATM    2  C   UNL     1      42.980 -13.965   5.793  1.00  0.00    -0.043 A 
HETATM    3  C   UNL     1      42.733 -14.594   4.561  1.00  0.00     0.011 A 
HETATM    4  C   UNL     1      43.165 -15.904   4.315  1.00  0.00     0.037 A 
HETATM    5  C   UNL     1      43.847 -16.613   5.300  1.00  0.00     0.068 A 
HETATM    6  C   UNL     1      44.094 -16.001   6.528  1.00  0.00     0.037 A 
HETATM    7  C   UNL     1      43.668 -14.693   6.776  1.00  0.00     0.011 A 
BRANCH   5   8
HETATM    8  O   UNL     1      44.312 -17.894   5.202  1.00  0.00    -0.356 OA
HETATM    9  C   UNL     1      44.215 -18.522   3.929  1.00  0.00     0.210 C 
ENDBRANCH   5   8
ENDBRANCH   1   2
BRANCH   1  10
HETATM   10  S   UNL     1      43.771 -11.311   5.712  1.00  0.00    -0.080 SA
BRANCH  10  11
HETATM   11  C   UNL     1      44.295 -10.967   7.309  1.00  0.00     0.190 A 
HETATM   12  N   UNL     1      45.447 -11.255   7.855  1.00  0.00    -0.122 NA
HETATM   13  N   UNL     1      45.364 -10.881   9.179  1.00  0.00    -0.129 NA
HETATM   14  C   UNL     1      44.156 -10.388   9.407  1.00  0.00     0.162 A 
HETATM   15  N   UNL     1      43.465 -10.400   8.221  1.00  0.00    -0.317 N 
HETATM   16  H   UNL     1      42.517 -10.099   8.061  1.00  0.00     0.169 HD
BRANCH  14  17
HETATM   17  C   UNL     1      43.626  -9.902  10.679  1.00  0.00     0.012 A 
HETATM   18  C   UNL     1      43.555  -8.520  10.913  1.00  0.00     0.017 A 
HETATM   19  C   UNL     1      43.051  -8.020  12.118  1.00  0.00     0.025 A 
HETATM   20  C   UNL     1      42.619  -8.902  13.104  1.00  0.00     0.034 A 
HETATM   21 CL   UNL     1      41.999  -8.294  14.588  1.00  0.00    -0.084 Cl
HETATM   22  C   UNL     1      42.691 -10.278  12.896  1.00  0.00     0.025 A 
HETATM   23  C   UNL     1      43.194 -10.777  11.689  1.00  0.00     0.017 A 
ENDBRANCH  14  17
ENDBRANCH  10  11
ENDBRANCH   1  10
BRANCH   1  24
HETATM   24  C   UNL     1      41.112 -12.263   5.329  1.00  0.00     0.123 C 
BRANCH  24  25
HETATM   25  C   UNL     1      39.981 -11.870   6.256  1.00  0.00     0.219 C 
HETATM   26  N   UNL     1      40.229 -10.704   6.953  1.00  0.00    -0.361 N 
HETATM   27  H   UNL     1      41.184 -10.353   6.934  1.00  0.00     0.162 HD
HETATM   28  O   UNL     1      38.912 -12.468   6.361  1.00  0.00    -0.274 OA
BRANCH  26  29
HETATM   29  C   UNL     1      39.398 -10.268   8.057  1.00  0.00     0.124 C 
BRANCH  29  30
HETATM   30  C   UNL     1      40.096  -9.344   9.055  1.00  0.00     0.047 C 
BRANCH  30  31
HETATM   31  C   UNL     1      39.768  -9.524  10.538  1.00  0.00     0.236 C 
BRANCH  31  32
HETATM   32  N   UNL     1      38.973  -8.395  11.130  1.00  0.00    -0.067 N 
HETATM   33  H   UNL     1      37.990  -8.552  10.817  1.00  0.00     0.280 HD
HETATM   34  C   UNL     1      39.016  -8.284  12.642  1.00  0.00     0.261 C 
HETATM   35  C   UNL     1      38.133  -7.120  13.105  1.00  0.00     0.195 C 
HETATM   36  O   UNL     1      38.537  -5.890  12.492  1.00  0.00    -0.388 OA
HETATM   37  C   UNL     1      38.425  -5.958  11.065  1.00  0.00     0.195 C 
HETATM   38  C   UNL     1      39.338  -7.053  10.500  1.00  0.00     0.261 C 
ENDBRANCH  31  32
ENDBRANCH  30  31
ENDBRANCH  29  30
ENDBRANCH  26  29
ENDBRANCH  24  25
ENDBRANCH   1  24
TORSDOF 11
ENDMDL
MODEL 6
REMARK VINA RESULT:      -8.0      3.126      4.526
REMARK  11 active torsions:
REMARK  status: ('A' for Active; 'I' for Inactive)
REMARK    1  A    between atoms: O_2  and  C_3 
REMARK    2  A    between atoms: C_6  and  C_7 
REMARK    3  A    between atoms: C_7  and  S_8 
REMARK    4  A    between atoms: C_7  and  C_22 
REMARK    5  A    between atoms: S_8  and  C_9 
REMARK    6  A    between atoms: C_12  and  C_13 
REMARK    7  A    between atoms: C_22  and  C_23 
REMARK       I    between atoms: C_23  and  N_24 
REMARK    8  A    between atoms: N_24  and  C_25 
REMARK    9  A    between atoms: C_25  and  C_26 
REMARK   10  A    between atoms: C_26  and  C_27 
REMARK   11  A    between atoms: C_27  and  N_28 
ROOT
HETATM    1  C   UNL     1      43.535 -12.278   5.495  1.00  0.00     0.097 C 
ENDROOT
BRANCH   1   2
HETATM    2  C   UNL     1      43.436 -13.799   5.383  1.00  0.00    -0.043 A 
HETATM    3  C   UNL     1      43.823 -14.601   6.470  1.00  0.00     0.011 A 
HETATM    4  C   UNL     1      43.795 -16.000   6.387  1.00  0.00     0.037 A 
HETATM    5  C   UNL     1      43.384 -16.624   5.212  1.00  0.00     0.068 A 
HETATM    6  C   UNL     1      43.001 -15.838   4.126  1.00  0.00     0.037 A 
HETATM    7  C   UNL     1      43.025 -14.443   4.205  1.00  0.00     0.011 A 
BRANCH   5   8
HETATM    8  O   UNL     1      43.319 -17.969   4.990  1.00  0.00    -0.356 OA
HETATM    9  C   UNL     1      43.555 -18.822   6.104  1.00  0.00     0.210 C 
ENDBRANCH   5   8
ENDBRANCH   1   2
BRANCH   1  10
HETATM   10  S   UNL     1      44.672 -11.822   6.879  1.00  0.00    -0.080 SA
BRANCH  10  11
HETATM   11  C   UNL     1      43.662 -10.784   7.799  1.00  0.00     0.190 A 
HETATM   12  N   UNL     1      42.845  -9.863   7.362  1.00  0.00    -0.122 NA
HETATM   13  N   UNL     1      42.337  -9.221   8.471  1.00  0.00    -0.129 NA
HETATM   14  C   UNL     1      42.872  -9.761   9.556  1.00  0.00     0.162 A 
HETATM   15  N   UNL     1      43.695 -10.784   9.156  1.00  0.00    -0.317 N 
HETATM   16  H   UNL     1      44.254 -11.385   9.741  1.00  0.00     0.169 HD
BRANCH  14  17
HETATM   17  C   UNL     1      42.639  -9.367  10.944  1.00  0.00     0.012 A 
HETATM   18  C   UNL     1      41.499  -9.838  11.612  1.00  0.00     0.017 A 
HETATM   19  C   UNL     1      41.248  -9.484  12.942  1.00  0.00     0.025 A 
HETATM   20  C   UNL     1      42.135  -8.647  13.612  1.00  0.00     0.034 A 
HETATM   21 CL   UNL     1      41.831  -8.206  15.246  1.00  0.00    -0.084 Cl
HETATM   22  C   UNL     1      43.267  -8.159  12.963  1.00  0.00     0.025 A 
HETATM   23  C   UNL     1      43.519  -8.517  11.634  1.00  0.00     0.017 A 
ENDBRANCH  14  17
ENDBRANCH  10  11
ENDBRANCH   1  10
BRANCH   1  24
HETATM   24  C   UNL     1      43.847 -11.577   4.162  1.00  0.00     0.123 C 
BRANCH  24  25
HETATM   25  C   UNL     1      42.632 -11.023   3.448  1.00  0.00     0.219 C 
HETATM   26  N   UNL     1      41.639 -10.602   4.310  1.00  0.00    -0.361 N 
HETATM   27  H   UNL     1      41.728 -10.883   5.284  1.00  0.00     0.162 HD
HETATM   28  O   UNL     1      42.526 -10.889   2.231  1.00  0.00    -0.274 OA
BRANCH  26  29
HETATM   29  C   UNL     1      40.308 -10.258   3.853  1.00  0.00     0.124 C 
BRANCH  29  30
HETATM   30  C   UNL     1      39.367 -11.450   3.670  1.00  0.00     0.047 C 
BRANCH  30  31
HETATM   31  C   UNL     1      38.769 -11.675   2.281  1.00  0.00     0.236 C 
BRANCH  31  32
HETATM   32  N   UNL     1      39.078 -13.023   1.693  1.00  0.00    -0.067 N 
HETATM   33  H   UNL     1      38.151 -13.460   1.494  1.00  0.00     0.280 HD
HETATM   34  C   UNL     1      39.920 -13.012   0.431  1.00  0.00     0.261 C 
HETATM   35  C   UNL     1      40.120 -14.445  -0.074  1.00  0.00     0.195 C 
HETATM   36  O   UNL     1      40.720 -15.269   0.932  1.00  0.00    -0.388 OA
HETATM   37  C   UNL     1      39.895 -15.349   2.101  1.00  0.00     0.195 C 
HETATM   38  C   UNL     1      39.699 -13.962   2.724  1.00  0.00     0.261 C 
ENDBRANCH  31  32
ENDBRANCH  30  31
ENDBRANCH  29  30
ENDBRANCH  26  29
ENDBRANCH  24  25
ENDBRANCH   1  24
TORSDOF 11
ENDMDL
MODEL 7
REMARK VINA RESULT:      -7.9      3.687      7.828
REMARK  11 active torsions:
REMARK  status: ('A' for Active; 'I' for Inactive)
REMARK    1  A    between atoms: O_2  and  C_3 
REMARK    2  A    between atoms: C_6  and  C_7 
REMARK    3  A    between atoms: C_7  and  S_8 
REMARK    4  A    between atoms: C_7  and  C_22 
REMARK    5  A    between atoms: S_8  and  C_9 
REMARK    6  A    between atoms: C_12  and  C_13 
REMARK    7  A    between atoms: C_22  and  C_23 
REMARK       I    between atoms: C_23  and  N_24 
REMARK    8  A    between atoms: N_24  and  C_25 
REMARK    9  A    between atoms: C_25  and  C_26 
REMARK   10  A    between atoms: C_26  and  C_27 
REMARK   11  A    between atoms: C_27  and  N_28 
ROOT
HETATM    1  C   UNL     1      42.510 -15.174   3.246  1.00  0.00     0.097 C 
ENDROOT
BRANCH   1   2
HETATM    2  C   UNL     1      43.047 -16.587   3.474  1.00  0.00    -0.043 A 
HETATM    3  C   UNL     1      43.071 -17.500   2.406  1.00  0.00     0.011 A 
HETATM    4  C   UNL     1      43.509 -18.819   2.589  1.00  0.00     0.037 A 
HETATM    5  C   UNL     1      43.926 -19.251   3.845  1.00  0.00     0.068 A 
HETATM    6  C   UNL     1      43.903 -18.355   4.913  1.00  0.00     0.037 A 
HETATM    7  C   UNL     1      43.470 -17.038   4.734  1.00  0.00     0.011 A 
BRANCH   5   8
HETATM    8  O   UNL     1      44.363 -20.505   4.166  1.00  0.00    -0.356 OA
HETATM    9  C   UNL     1      44.077 -20.974   5.478  1.00  0.00     0.210 C 
ENDBRANCH   5   8
ENDBRANCH   1   2
BRANCH   1  10
HETATM   10  S   UNL     1      40.662 -15.193   3.264  1.00  0.00    -0.080 SA
BRANCH  10  11
HETATM   11  C   UNL     1      40.317 -14.741   1.646  1.00  0.00     0.190 A 
HETATM   12  N   UNL     1      39.852 -15.492   0.684  1.00  0.00    -0.122 NA
HETATM   13  N   UNL     1      39.843 -14.718  -0.457  1.00  0.00    -0.129 NA
HETATM   14  C   UNL     1      40.319 -13.518  -0.160  1.00  0.00     0.162 A 
HETATM   15  N   UNL     1      40.597 -13.495   1.184  1.00  0.00    -0.317 N 
HETATM   16  H   UNL     1      40.979 -12.731   1.718  1.00  0.00     0.169 HD
BRANCH  14  17
HETATM   17  C   UNL     1      40.517 -12.396  -1.075  1.00  0.00     0.012 A 
HETATM   18  C   UNL     1      40.634 -12.641  -2.452  1.00  0.00     0.017 A 
HETATM   19  C   UNL     1      40.819 -11.590  -3.355  1.00  0.00     0.025 A 
HETATM   20  C   UNL     1      40.897 -10.282  -2.886  1.00  0.00     0.034 A 
HETATM   21 CL   UNL     1      41.127  -8.986  -3.993  1.00  0.00    -0.084 Cl
HETATM   22  C   UNL     1      40.794 -10.018  -1.522  1.00  0.00     0.025 A 
HETATM   23  C   UNL     1      40.606 -11.070  -0.619  1.00  0.00     0.017 A 
ENDBRANCH  14  17
ENDBRANCH  10  11
ENDBRANCH   1  10
BRANCH   1  24
HETATM   24  C   UNL     1      43.141 -14.115   4.165  1.00  0.00     0.123 C 
BRANCH  24  25
HETATM   25  C   UNL     1      42.964 -12.688   3.687  1.00  0.00     0.219 C 
HETATM   26  N   UNL     1      42.877 -11.775   4.719  1.00  0.00    -0.361 N 
HETATM   27  H   UNL     1      42.738 -12.152   5.654  1.00  0.00     0.162 HD
HETATM   28  O   UNL     1      42.953 -12.332   2.510  1.00  0.00    -0.274 OA
BRANCH  26  29
HETATM   29  C   UNL     1      42.476 -10.400   4.507  1.00  0.00     0.124 C 
BRANCH  29  30
HETATM   30  C   UNL     1      41.833  -9.727   5.720  1.00  0.00     0.047 C 
BRANCH  30  31
HETATM   31  C   UNL     1      42.081 -10.354   7.093  1.00  0.00     0.236 C 
BRANCH  31  32
HETATM   32  N   UNL     1      43.085  -9.616   7.932  1.00  0.00    -0.067 N 
HETATM   33  H   UNL     1      42.852  -9.854   8.921  1.00  0.00     0.280 HD
HETATM   34  C   UNL     1      44.539  -9.945   7.656  1.00  0.00     0.261 C 
HETATM   35  C   UNL     1      45.443  -9.151   8.607  1.00  0.00     0.195 C 
HETATM   36  O   UNL     1      45.207  -7.743   8.488  1.00  0.00    -0.388 OA
HETATM   37  C   UNL     1      43.853  -7.412   8.823  1.00  0.00     0.195 C 
HETATM   38  C   UNL     1      42.873  -8.105   7.870  1.00  0.00     0.261 C 
ENDBRANCH  31  32
ENDBRANCH  30  31
ENDBRANCH  29  30
ENDBRANCH  26  29
ENDBRANCH  24  25
ENDBRANCH   1  24
TORSDOF 11
ENDMDL
MODEL 8
REMARK VINA RESULT:      -7.9      2.210      4.073
REMARK  11 active torsions:
REMARK  status: ('A' for Active; 'I' for Inactive)
REMARK    1  A    between atoms: O_2  and  C_3 
REMARK    2  A    between atoms: C_6  and  C_7 
REMARK    3  A    between atoms: C_7  and  S_8 
REMARK    4  A    between atoms: C_7  and  C_22 
REMARK    5  A    between atoms: S_8  and  C_9 
REMARK    6  A    between atoms: C_12  and  C_13 
REMARK    7  A    between atoms: C_22  and  C_23 
REMARK       I    between atoms: C_23  and  N_24 
REMARK    8  A    between atoms: N_24  and  C_25 
REMARK    9  A    between atoms: C_25  and  C_26 
REMARK   10  A    between atoms: C_26  and  C_27 
REMARK   11  A    between atoms: C_27  and  N_28 
ROOT
HETATM    1  C   UNL     1      41.952 -15.253   2.987  1.00  0.00     0.097 C 
ENDROOT
BRANCH   1   2
HETATM    2  C   UNL     1      42.661 -16.532   3.432  1.00  0.00    -0.043 A 
HETATM    3  C   UNL     1      43.095 -16.657   4.762  1.00  0.00     0.011 A 
HETATM    4  C   UNL     1      43.793 -17.793   5.194  1.00  0.00     0.037 A 
HETATM    5  C   UNL     1      44.075 -18.823   4.302  1.00  0.00     0.068 A 
HETATM    6  C   UNL     1      43.652 -18.709   2.978  1.00  0.00     0.037 A 
HETATM    7  C   UNL     1      42.954 -17.579   2.544  1.00  0.00     0.011 A 
BRANCH   5   8
HETATM    8  O   UNL     1      44.754 -19.975   4.583  1.00  0.00    -0.356 OA
HETATM    9  C   UNL     1      44.108 -20.917   5.430  1.00  0.00     0.210 C 
ENDBRANCH   5   8
ENDBRANCH   1   2
BRANCH   1  10
HETATM   10  S   UNL     1      43.125 -14.178   2.046  1.00  0.00    -0.080 SA
BRANCH  10  11
HETATM   11  C   UNL     1      43.170 -12.789   3.052  1.00  0.00     0.190 A 
HETATM   12  N   UNL     1      42.885 -11.555   2.729  1.00  0.00    -0.122 NA
HETATM   13  N   UNL     1      43.171 -10.779   3.833  1.00  0.00    -0.129 NA
HETATM   14  C   UNL     1      43.637 -11.563   4.794  1.00  0.00     0.162 A 
HETATM   15  N   UNL     1      43.614 -12.855   4.333  1.00  0.00    -0.317 N 
HETATM   16  H   UNL     1      43.912 -13.686   4.820  1.00  0.00     0.169 HD
BRANCH  14  17
HETATM   17  C   UNL     1      44.092 -11.156   6.121  1.00  0.00     0.012 A 
HETATM   18  C   UNL     1      43.157 -10.689   7.058  1.00  0.00     0.017 A 
HETATM   19  C   UNL     1      43.558 -10.295   8.338  1.00  0.00     0.025 A 
HETATM   20  C   UNL     1      44.903 -10.358   8.690  1.00  0.00     0.034 A 
HETATM   21 CL   UNL     1      45.403  -9.873  10.262  1.00  0.00    -0.084 Cl
HETATM   22  C   UNL     1      45.850 -10.807   7.772  1.00  0.00     0.025 A 
HETATM   23  C   UNL     1      45.447 -11.204   6.491  1.00  0.00     0.017 A 
ENDBRANCH  14  17
ENDBRANCH  10  11
ENDBRANCH   1  10
BRANCH   1  24
HETATM   24  C   UNL     1      40.612 -15.502   2.274  1.00  0.00     0.123 C 
BRANCH  24  25
HETATM   25  C   UNL     1      39.915 -14.244   1.797  1.00  0.00     0.219 C 
HETATM   26  N   UNL     1      39.448 -13.455   2.829  1.00  0.00    -0.361 N 
HETATM   27  H   UNL     1      39.433 -13.875   3.756  1.00  0.00     0.162 HD
HETATM   28  O   UNL     1      39.809 -13.897   0.623  1.00  0.00    -0.274 OA
BRANCH  26  29
HETATM   29  C   UNL     1      38.555 -12.336   2.608  1.00  0.00     0.124 C 
BRANCH  29  30
HETATM   30  C   UNL     1      39.254 -10.992   2.405  1.00  0.00     0.047 C 
BRANCH  30  31
HETATM   31  C   UNL     1      38.748  -9.799   3.218  1.00  0.00     0.236 C 
BRANCH  31  32
HETATM   32  N   UNL     1      39.573  -9.494   4.436  1.00  0.00    -0.067 N 
HETATM   33  H   UNL     1      40.251 -10.283   4.519  1.00  0.00     0.280 HD
HETATM   34  C   UNL     1      40.323  -8.176   4.408  1.00  0.00     0.261 C 
HETATM   35  C   UNL     1      41.148  -8.018   5.690  1.00  0.00     0.195 C 
HETATM   36  O   UNL     1      40.316  -8.107   6.853  1.00  0.00    -0.388 OA
HETATM   37  C   UNL     1      39.662  -9.379   6.930  1.00  0.00     0.195 C 
HETATM   38  C   UNL     1      38.750  -9.596   5.718  1.00  0.00     0.261 C 
ENDBRANCH  31  32
ENDBRANCH  30  31
ENDBRANCH  29  30
ENDBRANCH  26  29
ENDBRANCH  24  25
ENDBRANCH   1  24
TORSDOF 11
ENDMDL
MODEL 9
REMARK VINA RESULT:      -7.8      3.025      4.025
REMARK  11 active torsions:
REMARK  status: ('A' for Active; 'I' for Inactive)
REMARK    1  A    between atoms: O_2  and  C_3 
REMARK    2  A    between atoms: C_6  and  C_7 
REMARK    3  A    between atoms: C_7  and  S_8 
REMARK    4  A    between atoms: C_7  and  C_22 
REMARK    5  A    between atoms: S_8  and  C_9 
REMARK    6  A    between atoms: C_12  and  C_13 
REMARK    7  A    between atoms: C_22  and  C_23 
REMARK       I    between atoms: C_23  and  N_24 
REMARK    8  A    between atoms: N_24  and  C_25 
REMARK    9  A    between atoms: C_25  and  C_26 
REMARK   10  A    between atoms: C_26  and  C_27 
REMARK   11  A    between atoms: C_27  and  N_28 
ROOT
HETATM    1  C   UNL     1      42.372 -12.662   6.370  1.00  0.00     0.097 C 
ENDROOT
BRANCH   1   2
HETATM    2  C   UNL     1      42.669 -14.153   6.524  1.00  0.00    -0.043 A 
HETATM    3  C   UNL     1      43.970 -14.629   6.287  1.00  0.00     0.011 A 
HETATM    4  C   UNL     1      44.269 -15.996   6.369  1.00  0.00     0.037 A 
HETATM    5  C   UNL     1      43.270 -16.914   6.684  1.00  0.00     0.068 A 
HETATM    6  C   UNL     1      41.975 -16.453   6.917  1.00  0.00     0.037 A 
HETATM    7  C   UNL     1      41.674 -15.091   6.839  1.00  0.00     0.011 A 
BRANCH   5   8
HETATM    8  O   UNL     1      43.418 -18.268   6.784  1.00  0.00    -0.356 OA
HETATM    9  C   UNL     1      43.789 -18.969   5.604  1.00  0.00     0.210 C 
ENDBRANCH   5   8
ENDBRANCH   1   2
BRANCH   1  10
HETATM   10  S   UNL     1      43.913 -11.759   5.892  1.00  0.00    -0.080 SA
BRANCH  10  11
HETATM   11  C   UNL     1      44.427 -11.166   7.417  1.00  0.00     0.190 A 
HETATM   12  N   UNL     1      45.631 -11.190   7.924  1.00  0.00    -0.122 NA
HETATM   13  N   UNL     1      45.533 -10.701   9.209  1.00  0.00    -0.129 NA
HETATM   14  C   UNL     1      44.265 -10.406   9.455  1.00  0.00     0.162 A 
HETATM   15  N   UNL     1      43.544 -10.661   8.316  1.00  0.00    -0.317 N 
HETATM   16  H   UNL     1      42.552 -10.548   8.180  1.00  0.00     0.169 HD
BRANCH  14  17
HETATM   17  C   UNL     1      43.705  -9.890  10.702  1.00  0.00     0.012 A 
HETATM   18  C   UNL     1      43.223 -10.789  11.666  1.00  0.00     0.017 A 
HETATM   19  C   UNL     1      42.684 -10.330  12.872  1.00  0.00     0.025 A 
HETATM   20  C   UNL     1      42.616  -8.963  13.120  1.00  0.00     0.034 A 
HETATM   21 CL   UNL     1      41.953  -8.392  14.601  1.00  0.00    -0.084 Cl
HETATM   22  C   UNL     1      43.078  -8.052  12.173  1.00  0.00     0.025 A 
HETATM   23  C   UNL     1      43.620  -8.513  10.967  1.00  0.00     0.017 A 
ENDBRANCH  14  17
ENDBRANCH  10  11
ENDBRANCH   1  10
BRANCH   1  24
HETATM   24  C   UNL     1      41.159 -12.360   5.474  1.00  0.00     0.123 C 
BRANCH  24  25
HETATM   25  C   UNL     1      41.240 -12.966   4.089  1.00  0.00     0.219 C 
HETATM   26  N   UNL     1      40.241 -13.886   3.838  1.00  0.00    -0.361 N 
HETATM   27  H   UNL     1      39.701 -14.206   4.639  1.00  0.00     0.162 HD
HETATM   28  O   UNL     1      42.058 -12.653   3.226  1.00  0.00    -0.274 OA
BRANCH  26  29
HETATM   29  C   UNL     1      40.259 -14.754   2.678  1.00  0.00     0.124 C 
BRANCH  29  30
HETATM   30  C   UNL     1      39.687 -14.130   1.405  1.00  0.00     0.047 C 
BRANCH  30  31
HETATM   31  C   UNL     1      40.212 -14.645   0.064  1.00  0.00     0.236 C 
BRANCH  31  32
HETATM   32  N   UNL     1      40.758 -13.571  -0.833  1.00  0.00    -0.067 N 
HETATM   33  H   UNL     1      41.796 -13.647  -0.760  1.00  0.00     0.280 HD
HETATM   34  C   UNL     1      40.341 -13.657  -2.289  1.00  0.00     0.261 C 
HETATM   35  C   UNL     1      41.000 -12.527  -3.088  1.00  0.00     0.195 C 
HETATM   36  O   UNL     1      40.673 -11.246  -2.538  1.00  0.00    -0.388 OA
HETATM   37  C   UNL     1      41.132 -11.126  -1.186  1.00  0.00     0.195 C 
HETATM   38  C   UNL     1      40.464 -12.175  -0.290  1.00  0.00     0.261 C 
ENDBRANCH  31  32
ENDBRANCH  30  31
ENDBRANCH  29  30
ENDBRANCH  26  29
ENDBRANCH  24  25
ENDBRANCH   1  24
TORSDOF 11
ENDMDL
MODEL 10
REMARK VINA RESULT:      -7.8      3.512      6.554
REMARK  11 active torsions:
REMARK  status: ('A' for Active; 'I' for Inactive)
REMARK    1  A    between atoms: O_2  and  C_3 
REMARK    2  A    between atoms: C_6  and  C_7 
REMARK    3  A    between atoms: C_7  and  S_8 
REMARK    4  A    between atoms: C_7  and  C_22 
REMARK    5  A    between atoms: S_8  and  C_9 
REMARK    6  A    between atoms: C_12  and  C_13 
REMARK    7  A    between atoms: C_22  and  C_23 
REMARK       I    between atoms: C_23  and  N_24 
REMARK    8  A    between atoms: N_24  and  C_25 
REMARK    9  A    between atoms: C_25  and  C_26 
REMARK   10  A    between atoms: C_26  and  C_27 
REMARK   11  A    between atoms: C_27  and  N_28 
ROOT
HETATM    1  C   UNL     1      42.058 -11.075   4.900  1.00  0.00     0.097 C 
ENDROOT
BRANCH   1   2
HETATM    2  C   UNL     1      43.079 -10.925   6.028  1.00  0.00    -0.043 A 
HETATM    3  C   UNL     1      44.404 -11.347   5.825  1.00  0.00     0.011 A 
HETATM    4  C   UNL     1      45.355 -11.273   6.851  1.00  0.00     0.037 A 
HETATM    5  C   UNL     1      44.998 -10.778   8.103  1.00  0.00     0.068 A 
HETATM    6  C   UNL     1      43.686 -10.359   8.317  1.00  0.00     0.037 A 
HETATM    7  C   UNL     1      42.735 -10.430   7.295  1.00  0.00     0.011 A 
BRANCH   5   8
HETATM    8  O   UNL     1      45.816 -10.661   9.190  1.00  0.00    -0.356 OA
HETATM    9  C   UNL     1      45.379  -9.808  10.241  1.00  0.00     0.210 C 
ENDBRANCH   5   8
ENDBRANCH   1   2
BRANCH   1  10
HETATM   10  S   UNL     1      40.689 -12.195   5.437  1.00  0.00    -0.080 SA
BRANCH  10  11
HETATM   11  C   UNL     1      41.528 -13.683   5.590  1.00  0.00     0.190 A 
HETATM   12  N   UNL     1      42.260 -14.093   6.591  1.00  0.00    -0.122 NA
HETATM   13  N   UNL     1      42.815 -15.297   6.213  1.00  0.00    -0.129 NA
HETATM   14  C   UNL     1      42.416 -15.580   4.982  1.00  0.00     0.162 A 
HETATM   15  N   UNL     1      41.566 -14.582   4.574  1.00  0.00    -0.317 N 
HETATM   16  H   UNL     1      41.100 -14.499   3.684  1.00  0.00     0.169 HD
BRANCH  14  17
HETATM   17  C   UNL     1      42.788 -16.743   4.179  1.00  0.00     0.012 A 
HETATM   18  C   UNL     1      43.702 -17.674   4.697  1.00  0.00     0.017 A 
HETATM   19  C   UNL     1      44.077 -18.800   3.957  1.00  0.00     0.025 A 
HETATM   20  C   UNL     1      43.546 -18.999   2.687  1.00  0.00     0.034 A 
HETATM   21 CL   UNL     1      44.004 -20.381   1.772  1.00  0.00    -0.084 Cl
HETATM   22  C   UNL     1      42.646 -18.081   2.149  1.00  0.00     0.025 A 
HETATM   23  C   UNL     1      42.268 -16.956   2.892  1.00  0.00     0.017 A 
ENDBRANCH  14  17
ENDBRANCH  10  11
ENDBRANCH   1  10
BRANCH   1  24
HETATM   24  C   UNL     1      41.586  -9.737   4.309  1.00  0.00     0.123 C 
BRANCH  24  25
HETATM   25  C   UNL     1      41.201  -9.802   2.845  1.00  0.00     0.219 C 
HETATM   26  N   UNL     1      41.318 -11.068   2.307  1.00  0.00    -0.361 N 
HETATM   27  H   UNL     1      41.823 -11.757   2.861  1.00  0.00     0.162 HD
HETATM   28  O   UNL     1      40.769  -8.860   2.184  1.00  0.00    -0.274 OA
BRANCH  26  29
HETATM   29  C   UNL     1      41.229 -11.319   0.884  1.00  0.00     0.124 C 
BRANCH  29  30
HETATM   30  C   UNL     1      41.084 -12.792   0.502  1.00  0.00     0.047 C 
BRANCH  30  31
HETATM   31  C   UNL     1      39.683 -13.403   0.551  1.00  0.00     0.236 C 
BRANCH  31  32
HETATM   32  N   UNL     1      39.046 -13.584  -0.798  1.00  0.00    -0.067 N 
HETATM   33  H   UNL     1      38.023 -13.673  -0.614  1.00  0.00     0.280 HD
HETATM   34  C   UNL     1      39.292 -12.468  -1.795  1.00  0.00     0.261 C 
HETATM   35  C   UNL     1      38.555 -12.767  -3.105  1.00  0.00     0.195 C 
HETATM   36  O   UNL     1      38.955 -14.031  -3.646  1.00  0.00    -0.388 OA
HETATM   37  C   UNL     1      38.656 -15.103  -2.743  1.00  0.00     0.195 C 
HETATM   38  C   UNL     1      39.414 -14.928  -1.423  1.00  0.00     0.261 C 
ENDBRANCH  31  32
ENDBRANCH  30  31
ENDBRANCH  29  30
ENDBRANCH  26  29
ENDBRANCH  24  25
ENDBRANCH   1  24
TORSDOF 11
ENDMDL
