MODEL 1
REMARK VINA RESULT:      -8.9      0.000      0.000
REMARK  7 active torsions:
REMARK  status: ('A' for Active; 'I' for Inactive)
REMARK    1  A    between atoms: C_2  and  C_3 
REMARK       I    between atoms: C_3  and  N_4 
REMARK    2  A    between atoms: N_7  and  C_8 
REMARK    3  A    between atoms: C_9  and  N_10 
REMARK    4  A    between atoms: N_10  and  C_11 
REMARK    5  A    between atoms: C_11  and  N_12 
REMARK       I    between atoms: N_12  and  C_13 
REMARK    6  A    between atoms: C_13  and  C_14 
REMARK    7  A    between atoms: C_15  and  O_16 
ROOT
HETATM    1  C   UNL     1      41.176 -12.814   2.645  1.00  0.00     0.037 A 
HETATM    2  C   UNL     1      40.386 -13.996   2.624  1.00  0.00     0.057 A 
HETATM    3  C   UNL     1      39.873 -14.493   1.423  1.00  0.00     0.055 A 
HETATM    4  C   UNL     1      40.176 -13.849   0.227  1.00  0.00     0.036 A 
HETATM    5 CL   UNL     1      39.565 -14.473  -1.255  1.00  0.00    -0.084 Cl
HETATM    6  C   UNL     1      40.961 -12.699   0.221  1.00  0.00     0.026 A 
HETATM    7  C   UNL     1      41.451 -12.181   1.424  1.00  0.00     0.027 A 
ENDROOT
BRANCH   2   8
HETATM    8  N   UNL     1      40.076 -14.570   3.879  1.00  0.00    -0.331 N 
HETATM    9  H   UNL     1      39.080 -14.522   4.084  1.00  0.00     0.168 HD
BRANCH   8  10
HETATM   10  C   UNL     1      40.831 -15.257   4.762  1.00  0.00     0.179 C 
HETATM   11  S   UNL     1      40.998 -14.673   6.321  1.00  0.00    -0.040 SA
BRANCH  10  12
HETATM   12  N   UNL     1      41.509 -16.389   4.419  1.00  0.00    -0.299 N 
HETATM   13  C   UNL     1      42.581 -16.541   3.543  1.00  0.00     0.260 C 
HETATM   14  O   UNL     1      43.151 -15.649   2.926  1.00  0.00    -0.267 OA
HETATM   15  H   UNL     1      41.404 -17.139   5.095  1.00  0.00     0.171 HD
BRANCH  13  16
HETATM   16  C   UNL     1      43.065 -17.935   3.385  1.00  0.00     0.066 A 
HETATM   17  C   UNL     1      43.595 -18.681   4.450  1.00  0.00     0.089 A 
HETATM   18  C   UNL     1      43.954 -20.026   4.269  1.00  0.00    -0.028 A 
HETATM   19  C   UNL     1      44.496 -20.855   5.397  1.00  0.00     0.051 C 
HETATM   20  C   UNL     1      43.849 -20.585   2.986  1.00  0.00     0.009 A 
HETATM   21  C   UNL     1      43.364 -19.833   1.914  1.00  0.00     0.002 A 
HETATM   22  C   UNL     1      42.971 -18.510   2.112  1.00  0.00     0.020 A 
BRANCH  17  23
HETATM   23  O   UNL     1      43.715 -18.120   5.699  1.00  0.00    -0.354 OA
HETATM   24  C   UNL     1      44.760 -17.139   5.698  1.00  0.00     0.210 C 
ENDBRANCH  17  23
ENDBRANCH  13  16
ENDBRANCH  10  12
ENDBRANCH   8  10
ENDBRANCH   2   8
BRANCH   1  25
HETATM   25  N   UNL     1      41.676 -12.347   3.885  1.00  0.00    -0.278 NA
HETATM   26  C   UNL     1      41.122 -11.078   4.405  1.00  0.00     0.115 C 
HETATM   27  C   UNL     1      41.589 -10.860   5.855  1.00  0.00     0.140 C 
HETATM   28  N   UNL     1      43.046 -10.981   6.024  1.00  0.00    -0.350 N 
HETATM   29  C   UNL     1      43.604 -10.362   7.140  1.00  0.00     0.219 C 
HETATM   30  C   UNL     1      43.666 -12.129   5.341  1.00  0.00     0.140 C 
HETATM   31  O   UNL     1      42.964  -9.573   7.836  1.00  0.00    -0.273 OA
HETATM   32  C   UNL     1      43.163 -12.322   3.897  1.00  0.00     0.115 C 
BRANCH  29  33
HETATM   33  C   UNL     1      45.056 -10.695   7.452  1.00  0.00     0.098 C 
HETATM   34  C   UNL     1      45.523 -10.083   8.763  1.00  0.00     0.014 C 
ENDBRANCH  29  33
ENDBRANCH   1  25
TORSDOF 7
ENDMDL
MODEL 2
REMARK VINA RESULT:      -8.4      2.757      7.731
REMARK  7 active torsions:
REMARK  status: ('A' for Active; 'I' for Inactive)
REMARK    1  A    between atoms: C_2  and  C_3 
REMARK       I    between atoms: C_3  and  N_4 
REMARK    2  A    between atoms: N_7  and  C_8 
REMARK    3  A    between atoms: C_9  and  N_10 
REMARK    4  A    between atoms: N_10  and  C_11 
REMARK    5  A    between atoms: C_11  and  N_12 
REMARK       I    between atoms: N_12  and  C_13 
REMARK    6  A    between atoms: C_13  and  C_14 
REMARK    7  A    between atoms: C_15  and  O_16 
ROOT
HETATM    1  C   UNL     1      42.022 -15.542   2.722  1.00  0.00     0.037 A 
HETATM    2  C   UNL     1      42.891 -15.322   3.826  1.00  0.00     0.057 A 
HETATM    3  C   UNL     1      43.659 -16.366   4.351  1.00  0.00     0.055 A 
HETATM    4  C   UNL     1      43.606 -17.624   3.758  1.00  0.00     0.036 A 
HETATM    5 CL   UNL     1      44.568 -18.904   4.388  1.00  0.00    -0.084 Cl
HETATM    6  C   UNL     1      42.774 -17.858   2.666  1.00  0.00     0.026 A 
HETATM    7  C   UNL     1      41.982 -16.825   2.157  1.00  0.00     0.027 A 
ENDROOT
BRANCH   2   8
HETATM    8  N   UNL     1      42.857 -14.035   4.409  1.00  0.00    -0.331 N 
HETATM    9  H   UNL     1      43.102 -13.307   3.741  1.00  0.00     0.168 HD
BRANCH   8  10
HETATM   10  C   UNL     1      42.447 -13.610   5.623  1.00  0.00     0.179 C 
HETATM   11  S   UNL     1      41.042 -14.241   6.276  1.00  0.00    -0.040 SA
BRANCH  10  12
HETATM   12  N   UNL     1      43.107 -12.642   6.321  1.00  0.00    -0.299 N 
HETATM   13  C   UNL     1      43.927 -11.621   5.848  1.00  0.00     0.260 C 
HETATM   14  O   UNL     1      44.187 -11.377   4.676  1.00  0.00    -0.267 OA
HETATM   15  H   UNL     1      42.721 -12.483   7.246  1.00  0.00     0.171 HD
BRANCH  13  16
HETATM   16  C   UNL     1      44.509 -10.750   6.901  1.00  0.00     0.066 A 
HETATM   17  C   UNL     1      43.722  -9.979   7.769  1.00  0.00     0.089 A 
HETATM   18  C   UNL     1      44.316  -9.242   8.806  1.00  0.00    -0.028 A 
HETATM   19  C   UNL     1      43.496  -8.431   9.767  1.00  0.00     0.051 C 
HETATM   20  C   UNL     1      45.716  -9.230   8.907  1.00  0.00     0.009 A 
HETATM   21  C   UNL     1      46.505  -9.961   8.017  1.00  0.00     0.002 A 
HETATM   22  C   UNL     1      45.904 -10.722   7.016  1.00  0.00     0.020 A 
BRANCH  17  23
HETATM   23  O   UNL     1      42.352  -9.978   7.651  1.00  0.00    -0.354 OA
HETATM   24  C   UNL     1      41.940  -8.976   6.713  1.00  0.00     0.210 C 
ENDBRANCH  17  23
ENDBRANCH  13  16
ENDBRANCH  10  12
ENDBRANCH   8  10
ENDBRANCH   2   8
BRANCH   1  25
HETATM   25  N   UNL     1      41.263 -14.455   2.222  1.00  0.00    -0.278 NA
HETATM   26  C   UNL     1      39.890 -14.289   2.746  1.00  0.00     0.115 C 
HETATM   27  C   UNL     1      39.318 -12.936   2.289  1.00  0.00     0.140 C 
HETATM   28  N   UNL     1      39.426 -12.716   0.837  1.00  0.00    -0.350 N 
HETATM   29  C   UNL     1      38.554 -11.787   0.274  1.00  0.00     0.219 C 
HETATM   30  C   UNL     1      40.726 -13.069   0.243  1.00  0.00     0.140 C 
HETATM   31  O   UNL     1      37.597 -11.329   0.899  1.00  0.00    -0.273 OA
HETATM   32  C   UNL     1      41.273 -14.424   0.735  1.00  0.00     0.115 C 
BRANCH  29  33
HETATM   33  C   UNL     1      38.831 -11.374  -1.164  1.00  0.00     0.098 C 
HETATM   34  C   UNL     1      37.955 -12.117  -2.161  1.00  0.00     0.014 C 
ENDBRANCH  29  33
ENDBRANCH   1  25
TORSDOF 7
ENDMDL
MODEL 3
REMARK VINA RESULT:      -8.3      3.134      7.878
REMARK  7 active torsions:
REMARK  status: ('A' for Active; 'I' for Inactive)
REMARK    1  A    between atoms: C_2  and  C_3 
REMARK       I    between atoms: C_3  and  N_4 
REMARK    2  A    between atoms: N_7  and  C_8 
REMARK    3  A    between atoms: C_9  and  N_10 
REMARK    4  A    between atoms: N_10  and  C_11 
REMARK    5  A    between atoms: C_11  and  N_12 
REMARK       I    between atoms: N_12  and  C_13 
REMARK    6  A    between atoms: C_13  and  C_14 
REMARK    7  A    between atoms: C_15  and  O_16 
ROOT
HETATM    1  C   UNL     1      42.074 -15.529   4.085  1.00  0.00     0.037 A 
HETATM    2  C   UNL     1      41.753 -14.972   5.354  1.00  0.00     0.057 A 
HETATM    3  C   UNL     1      42.382 -15.430   6.515  1.00  0.00     0.055 A 
HETATM    4  C   UNL     1      43.365 -16.410   6.424  1.00  0.00     0.036 A 
HETATM    5 CL   UNL     1      44.156 -16.958   7.851  1.00  0.00    -0.084 Cl
HETATM    6  C   UNL     1      43.707 -16.959   5.191  1.00  0.00     0.026 A 
HETATM    7  C   UNL     1      43.059 -16.526   4.030  1.00  0.00     0.027 A 
ENDROOT
BRANCH   2   8
HETATM    8  N   UNL     1      40.710 -14.017   5.378  1.00  0.00    -0.331 N 
HETATM    9  H   UNL     1      39.809 -14.432   5.150  1.00  0.00     0.168 HD
BRANCH   8  10
HETATM   10  C   UNL     1      40.688 -12.723   5.760  1.00  0.00     0.179 C 
HETATM   11  S   UNL     1      39.322 -11.806   5.453  1.00  0.00    -0.040 SA
BRANCH  10  12
HETATM   12  N   UNL     1      41.758 -12.114   6.344  1.00  0.00    -0.299 N 
HETATM   13  C   UNL     1      42.789 -11.388   5.753  1.00  0.00     0.260 C 
HETATM   14  O   UNL     1      42.906 -11.126   4.561  1.00  0.00    -0.267 OA
HETATM   15  H   UNL     1      41.624 -11.931   7.333  1.00  0.00     0.171 HD
BRANCH  13  16
HETATM   16  C   UNL     1      43.817 -10.880   6.696  1.00  0.00     0.066 A 
HETATM   17  C   UNL     1      43.503 -10.058   7.789  1.00  0.00     0.089 A 
HETATM   18  C   UNL     1      44.499  -9.679   8.705  1.00  0.00    -0.028 A 
HETATM   19  C   UNL     1      44.187  -8.824   9.899  1.00  0.00     0.051 C 
HETATM   20  C   UNL     1      45.824 -10.071   8.460  1.00  0.00     0.009 A 
HETATM   21  C   UNL     1      46.146 -10.852   7.348  1.00  0.00     0.002 A 
HETATM   22  C   UNL     1      45.145 -11.258   6.467  1.00  0.00     0.020 A 
BRANCH  17  23
HETATM   23  O   UNL     1      42.206  -9.659   8.012  1.00  0.00    -0.354 OA
HETATM   24  C   UNL     1      41.931  -8.458   7.280  1.00  0.00     0.210 C 
ENDBRANCH  17  23
ENDBRANCH  13  16
ENDBRANCH  10  12
ENDBRANCH   8  10
ENDBRANCH   2   8
BRANCH   1  25
HETATM   25  N   UNL     1      41.413 -15.034   2.934  1.00  0.00    -0.278 NA
HETATM   26  C   UNL     1      40.869 -16.030   1.984  1.00  0.00     0.115 C 
HETATM   27  C   UNL     1      39.981 -15.325   0.943  1.00  0.00     0.140 C 
HETATM   28  N   UNL     1      40.642 -14.184   0.288  1.00  0.00    -0.350 N 
HETATM   29  C   UNL     1      40.137 -13.789  -0.948  1.00  0.00     0.219 C 
HETATM   30  C   UNL     1      41.373 -13.278   1.190  1.00  0.00     0.140 C 
HETATM   31  O   UNL     1      39.329 -14.478  -1.573  1.00  0.00    -0.273 OA
HETATM   32  C   UNL     1      42.239 -14.020   2.227  1.00  0.00     0.115 C 
BRANCH  29  33
HETATM   33  C   UNL     1      40.645 -12.466  -1.504  1.00  0.00     0.098 C 
HETATM   34  C   UNL     1      40.981 -12.549  -2.984  1.00  0.00     0.014 C 
ENDBRANCH  29  33
ENDBRANCH   1  25
TORSDOF 7
ENDMDL
MODEL 4
REMARK VINA RESULT:      -8.1      2.337      2.577
REMARK  7 active torsions:
REMARK  status: ('A' for Active; 'I' for Inactive)
REMARK    1  A    between atoms: C_2  and  C_3 
REMARK       I    between atoms: C_3  and  N_4 
REMARK    2  A    between atoms: N_7  and  C_8 
REMARK    3  A    between atoms: C_9  and  N_10 
REMARK    4  A    between atoms: N_10  and  C_11 
REMARK    5  A    between atoms: C_11  and  N_12 
REMARK       I    between atoms: N_12  and  C_13 
REMARK    6  A    between atoms: C_13  and  C_14 
REMARK    7  A    between atoms: C_15  and  O_16 
ROOT
HETATM    1  C   UNL     1      39.917 -11.291   3.225  1.00  0.00     0.037 A 
HETATM    2  C   UNL     1      39.241 -12.305   2.492  1.00  0.00     0.057 A 
HETATM    3  C   UNL     1      38.139 -11.993   1.690  1.00  0.00     0.055 A 
HETATM    4  C   UNL     1      37.727 -10.669   1.572  1.00  0.00     0.036 A 
HETATM    5 CL   UNL     1      36.385 -10.281   0.567  1.00  0.00    -0.084 Cl
HETATM    6  C   UNL     1      38.383  -9.658   2.268  1.00  0.00     0.026 A 
HETATM    7  C   UNL     1      39.467  -9.969   3.095  1.00  0.00     0.027 A 
ENDROOT
BRANCH   2   8
HETATM    8  N   UNL     1      39.682 -13.632   2.698  1.00  0.00    -0.331 N 
HETATM    9  H   UNL     1      39.333 -14.018   3.573  1.00  0.00     0.168 HD
BRANCH   8  10
HETATM   10  C   UNL     1      40.356 -14.488   1.900  1.00  0.00     0.179 C 
HETATM   11  S   UNL     1      40.196 -14.353   0.241  1.00  0.00    -0.040 SA
BRANCH  10  12
HETATM   12  N   UNL     1      41.125 -15.498   2.397  1.00  0.00    -0.299 N 
HETATM   13  C   UNL     1      42.413 -15.445   2.924  1.00  0.00     0.260 C 
HETATM   14  O   UNL     1      43.100 -14.442   3.074  1.00  0.00    -0.267 OA
HETATM   15  H   UNL     1      40.587 -16.312   2.673  1.00  0.00     0.171 HD
BRANCH  13  16
HETATM   16  C   UNL     1      42.965 -16.755   3.355  1.00  0.00     0.066 A 
HETATM   17  C   UNL     1      43.045 -17.139   4.702  1.00  0.00     0.089 A 
HETATM   18  C   UNL     1      43.490 -18.424   5.052  1.00  0.00    -0.028 A 
HETATM   19  C   UNL     1      43.558 -18.872   6.483  1.00  0.00     0.051 C 
HETATM   20  C   UNL     1      43.930 -19.285   4.034  1.00  0.00     0.009 A 
HETATM   21  C   UNL     1      43.894 -18.889   2.696  1.00  0.00     0.002 A 
HETATM   22  C   UNL     1      43.411 -17.627   2.354  1.00  0.00     0.020 A 
BRANCH  17  23
HETATM   23  O   UNL     1      42.633 -16.283   5.696  1.00  0.00    -0.354 OA
HETATM   24  C   UNL     1      43.768 -15.644   6.294  1.00  0.00     0.210 C 
ENDBRANCH  17  23
ENDBRANCH  13  16
ENDBRANCH  10  12
ENDBRANCH   8  10
ENDBRANCH   2   8
BRANCH   1  25
HETATM   25  N   UNL     1      41.029 -11.652   4.025  1.00  0.00    -0.278 NA
HETATM   26  C   UNL     1      40.776 -11.923   5.457  1.00  0.00     0.115 C 
HETATM   27  C   UNL     1      42.032 -12.535   6.102  1.00  0.00     0.140 C 
HETATM   28  N   UNL     1      43.254 -11.752   5.857  1.00  0.00    -0.350 N 
HETATM   29  C   UNL     1      44.310 -11.939   6.746  1.00  0.00     0.219 C 
HETATM   30  C   UNL     1      43.436 -11.286   4.472  1.00  0.00     0.140 C 
HETATM   31  O   UNL     1      44.169 -12.552   7.805  1.00  0.00    -0.273 OA
HETATM   32  C   UNL     1      42.154 -10.693   3.856  1.00  0.00     0.115 C 
BRANCH  29  33
HETATM   33  C   UNL     1      45.649 -11.331   6.355  1.00  0.00     0.098 C 
HETATM   34  C   UNL     1      46.293 -10.559   7.496  1.00  0.00     0.014 C 
ENDBRANCH  29  33
ENDBRANCH   1  25
TORSDOF 7
ENDMDL
MODEL 5
REMARK VINA RESULT:      -8.0      2.963      7.397
REMARK  7 active torsions:
REMARK  status: ('A' for Active; 'I' for Inactive)
REMARK    1  A    between atoms: C_2  and  C_3 
REMARK       I    between atoms: C_3  and  N_4 
REMARK    2  A    between atoms: N_7  and  C_8 
REMARK    3  A    between atoms: C_9  and  N_10 
REMARK    4  A    between atoms: N_10  and  C_11 
REMARK    5  A    between atoms: C_11  and  N_12 
REMARK       I    between atoms: N_12  and  C_13 
REMARK    6  A    between atoms: C_13  and  C_14 
REMARK    7  A    between atoms: C_15  and  O_16 
ROOT
HETATM    1  C   UNL     1      42.443 -16.616   3.137  1.00  0.00     0.037 A 
HETATM    2  C   UNL     1      42.614 -16.708   4.546  1.00  0.00     0.057 A 
HETATM    3  C   UNL     1      43.272 -17.802   5.117  1.00  0.00     0.055 A 
HETATM    4  C   UNL     1      43.806 -18.788   4.294  1.00  0.00     0.036 A 
HETATM    5 CL   UNL     1      44.637 -20.123   4.993  1.00  0.00    -0.084 Cl
HETATM    6  C   UNL     1      43.665 -18.711   2.911  1.00  0.00     0.026 A 
HETATM    7  C   UNL     1      42.980 -17.635   2.338  1.00  0.00     0.027 A 
ENDROOT
BRANCH   2   8
HETATM    8  N   UNL     1      42.004 -15.697   5.324  1.00  0.00    -0.331 N 
HETATM    9  H   UNL     1      41.155 -16.026   5.779  1.00  0.00     0.168 HD
BRANCH   8  10
HETATM   10  C   UNL     1      42.409 -14.452   5.655  1.00  0.00     0.179 C 
HETATM   11  S   UNL     1      43.672 -14.266   6.735  1.00  0.00    -0.040 SA
BRANCH  10  12
HETATM   12  N   UNL     1      41.791 -13.332   5.182  1.00  0.00    -0.299 N 
HETATM   13  C   UNL     1      40.490 -12.887   5.398  1.00  0.00     0.260 C 
HETATM   14  O   UNL     1      39.643 -13.422   6.104  1.00  0.00    -0.267 OA
HETATM   15  H   UNL     1      42.442 -12.613   4.884  1.00  0.00     0.171 HD
BRANCH  13  16
HETATM   16  C   UNL     1      40.138 -11.624   4.701  1.00  0.00     0.066 A 
HETATM   17  C   UNL     1      40.832 -10.423   4.912  1.00  0.00     0.089 A 
HETATM   18  C   UNL     1      40.520  -9.278   4.161  1.00  0.00    -0.028 A 
HETATM   19  C   UNL     1      41.265  -7.987   4.345  1.00  0.00     0.051 C 
HETATM   20  C   UNL     1      39.449  -9.338   3.255  1.00  0.00     0.009 A 
HETATM   21  C   UNL     1      38.727 -10.519   3.076  1.00  0.00     0.002 A 
HETATM   22  C   UNL     1      39.071 -11.663   3.795  1.00  0.00     0.020 A 
BRANCH  17  23
HETATM   23  O   UNL     1      41.866 -10.365   5.816  1.00  0.00    -0.354 OA
HETATM   24  C   UNL     1      41.366 -10.006   7.110  1.00  0.00     0.210 C 
ENDBRANCH  17  23
ENDBRANCH  13  16
ENDBRANCH  10  12
ENDBRANCH   8  10
ENDBRANCH   2   8
BRANCH   1  25
HETATM   25  N   UNL     1      41.770 -15.489   2.603  1.00  0.00    -0.278 NA
HETATM   26  C   UNL     1      40.547 -15.743   1.810  1.00  0.00     0.115 C 
HETATM   27  C   UNL     1      39.824 -14.415   1.529  1.00  0.00     0.140 C 
HETATM   28  N   UNL     1      40.700 -13.384   0.948  1.00  0.00    -0.350 N 
HETATM   29  C   UNL     1      40.081 -12.356   0.242  1.00  0.00     0.219 C 
HETATM   30  C   UNL     1      42.019 -13.245   1.588  1.00  0.00     0.140 C 
HETATM   31  O   UNL     1      38.892 -12.406  -0.074  1.00  0.00    -0.273 OA
HETATM   32  C   UNL     1      42.705 -14.597   1.867  1.00  0.00     0.115 C 
BRANCH  29  33
HETATM   33  C   UNL     1      40.951 -11.166  -0.138  1.00  0.00     0.098 C 
HETATM   34  C   UNL     1      41.288 -11.142  -1.620  1.00  0.00     0.014 C 
ENDBRANCH  29  33
ENDBRANCH   1  25
TORSDOF 7
ENDMDL
MODEL 6
REMARK VINA RESULT:      -8.0      3.368      5.122
REMARK  7 active torsions:
REMARK  status: ('A' for Active; 'I' for Inactive)
REMARK    1  A    between atoms: C_2  and  C_3 
REMARK       I    between atoms: C_3  and  N_4 
REMARK    2  A    between atoms: N_7  and  C_8 
REMARK    3  A    between atoms: C_9  and  N_10 
REMARK    4  A    between atoms: N_10  and  C_11 
REMARK    5  A    between atoms: C_11  and  N_12 
REMARK       I    between atoms: N_12  and  C_13 
REMARK    6  A    between atoms: C_13  and  C_14 
REMARK    7  A    between atoms: C_15  and  O_16 
ROOT
HETATM    1  C   UNL     1      41.326  -9.384   6.836  1.00  0.00     0.037 A 
HETATM    2  C   UNL     1      41.881 -10.460   6.089  1.00  0.00     0.057 A 
HETATM    3  C   UNL     1      41.748 -10.509   4.699  1.00  0.00     0.055 A 
HETATM    4  C   UNL     1      41.105  -9.471   4.033  1.00  0.00     0.036 A 
HETATM    5 CL   UNL     1      40.962  -9.518   2.319  1.00  0.00    -0.084 Cl
HETATM    6  C   UNL     1      40.568  -8.399   4.741  1.00  0.00     0.026 A 
HETATM    7  C   UNL     1      40.671  -8.361   6.135  1.00  0.00     0.027 A 
ENDROOT
BRANCH   2   8
HETATM    8  N   UNL     1      42.476 -11.504   6.835  1.00  0.00    -0.331 N 
HETATM    9  H   UNL     1      41.874 -11.823   7.592  1.00  0.00     0.168 HD
BRANCH   8  10
HETATM   10  C   UNL     1      43.611 -12.210   6.643  1.00  0.00     0.179 C 
HETATM   11  S   UNL     1      45.071 -11.553   7.127  1.00  0.00    -0.040 SA
BRANCH  10  12
HETATM   12  N   UNL     1      43.621 -13.422   6.019  1.00  0.00    -0.299 N 
HETATM   13  C   UNL     1      43.235 -14.667   6.508  1.00  0.00     0.260 C 
HETATM   14  O   UNL     1      42.767 -14.903   7.616  1.00  0.00    -0.267 OA
HETATM   15  H   UNL     1      43.637 -13.350   5.007  1.00  0.00     0.171 HD
BRANCH  13  16
HETATM   16  C   UNL     1      43.403 -15.792   5.554  1.00  0.00     0.066 A 
HETATM   17  C   UNL     1      43.060 -15.694   4.197  1.00  0.00     0.089 A 
HETATM   18  C   UNL     1      43.323 -16.756   3.316  1.00  0.00    -0.028 A 
HETATM   19  C   UNL     1      42.993 -16.668   1.854  1.00  0.00     0.051 C 
HETATM   20  C   UNL     1      43.861 -17.944   3.835  1.00  0.00     0.009 A 
HETATM   21  C   UNL     1      44.162 -18.061   5.194  1.00  0.00     0.002 A 
HETATM   22  C   UNL     1      43.936 -16.987   6.053  1.00  0.00     0.020 A 
BRANCH  17  23
HETATM   23  O   UNL     1      42.513 -14.535   3.699  1.00  0.00    -0.354 OA
HETATM   24  C   UNL     1      41.085 -14.581   3.807  1.00  0.00     0.210 C 
ENDBRANCH  17  23
ENDBRANCH  13  16
ENDBRANCH  10  12
ENDBRANCH   8  10
ENDBRANCH   2   8
BRANCH   1  25
HETATM   25  N   UNL     1      41.485  -9.375   8.244  1.00  0.00    -0.278 NA
HETATM   26  C   UNL     1      40.285  -9.088   9.060  1.00  0.00     0.115 C 
HETATM   27  C   UNL     1      40.585  -9.364  10.543  1.00  0.00     0.140 C 
HETATM   28  N   UNL     1      41.803  -8.693  11.028  1.00  0.00    -0.350 N 
HETATM   29  C   UNL     1      41.906  -8.490  12.402  1.00  0.00     0.219 C 
HETATM   30  C   UNL     1      42.970  -8.785  10.134  1.00  0.00     0.140 C 
HETATM   31  O   UNL     1      40.949  -8.658  13.159  1.00  0.00    -0.273 OA
HETATM   32  C   UNL     1      42.626  -8.515   8.656  1.00  0.00     0.115 C 
BRANCH  29  33
HETATM   33  C   UNL     1      43.259  -8.033  12.926  1.00  0.00     0.098 C 
HETATM   34  C   UNL     1      43.138  -7.165  14.169  1.00  0.00     0.014 C 
ENDBRANCH  29  33
ENDBRANCH   1  25
TORSDOF 7
ENDMDL
MODEL 7
REMARK VINA RESULT:      -7.9      2.708      7.180
REMARK  7 active torsions:
REMARK  status: ('A' for Active; 'I' for Inactive)
REMARK    1  A    between atoms: C_2  and  C_3 
REMARK       I    between atoms: C_3  and  N_4 
REMARK    2  A    between atoms: N_7  and  C_8 
REMARK    3  A    between atoms: C_9  and  N_10 
REMARK    4  A    between atoms: N_10  and  C_11 
REMARK    5  A    between atoms: C_11  and  N_12 
REMARK       I    between atoms: N_12  and  C_13 
REMARK    6  A    between atoms: C_13  and  C_14 
REMARK    7  A    between atoms: C_15  and  O_16 
ROOT
HETATM    1  C   UNL     1      42.303 -15.905   3.163  1.00  0.00     0.037 A 
HETATM    2  C   UNL     1      43.172 -15.994   4.286  1.00  0.00     0.057 A 
HETATM    3  C   UNL     1      43.837 -17.187   4.583  1.00  0.00     0.055 A 
HETATM    4  C   UNL     1      43.682 -18.287   3.745  1.00  0.00     0.036 A 
HETATM    5 CL   UNL     1      44.518 -19.750   4.096  1.00  0.00    -0.084 Cl
HETATM    6  C   UNL     1      42.849 -18.218   2.631  1.00  0.00     0.026 A 
HETATM    7  C   UNL     1      42.158 -17.036   2.348  1.00  0.00     0.027 A 
ENDROOT
BRANCH   2   8
HETATM    8  N   UNL     1      43.243 -14.855   5.121  1.00  0.00    -0.331 N 
HETATM    9  H   UNL     1      43.940 -14.188   4.797  1.00  0.00     0.168 HD
BRANCH   8  10
HETATM   10  C   UNL     1      42.482 -14.458   6.164  1.00  0.00     0.179 C 
HETATM   11  S   UNL     1      41.299 -15.485   6.747  1.00  0.00    -0.040 SA
BRANCH  10  12
HETATM   12  N   UNL     1      42.606 -13.224   6.730  1.00  0.00    -0.299 N 
HETATM   13  C   UNL     1      42.665 -11.975   6.117  1.00  0.00     0.260 C 
HETATM   14  O   UNL     1      42.581 -11.748   4.916  1.00  0.00    -0.267 OA
HETATM   15  H   UNL     1      42.332 -13.204   7.707  1.00  0.00     0.171 HD
BRANCH  13  16
HETATM   16  C   UNL     1      42.827 -10.829   7.047  1.00  0.00     0.066 A 
HETATM   17  C   UNL     1      43.969 -10.654   7.843  1.00  0.00     0.089 A 
HETATM   18  C   UNL     1      44.115  -9.506   8.638  1.00  0.00    -0.028 A 
HETATM   19  C   UNL     1      45.338  -9.278   9.477  1.00  0.00     0.051 C 
HETATM   20  C   UNL     1      43.061  -8.580   8.683  1.00  0.00     0.009 A 
HETATM   21  C   UNL     1      41.903  -8.774   7.926  1.00  0.00     0.002 A 
HETATM   22  C   UNL     1      41.786  -9.896   7.107  1.00  0.00     0.020 A 
BRANCH  17  23
HETATM   23  O   UNL     1      44.989 -11.576   7.811  1.00  0.00    -0.354 OA
HETATM   24  C   UNL     1      45.897 -11.265   6.746  1.00  0.00     0.210 C 
ENDBRANCH  17  23
ENDBRANCH  13  16
ENDBRANCH  10  12
ENDBRANCH   8  10
ENDBRANCH   2   8
BRANCH   1  25
HETATM   25  N   UNL     1      41.650 -14.675   2.900  1.00  0.00    -0.278 NA
HETATM   26  C   UNL     1      40.178 -14.646   3.038  1.00  0.00     0.115 C 
HETATM   27  C   UNL     1      39.676 -13.193   2.961  1.00  0.00     0.140 C 
HETATM   28  N   UNL     1      40.172 -12.465   1.783  1.00  0.00    -0.350 N 
HETATM   29  C   UNL     1      39.439 -11.354   1.373  1.00  0.00     0.219 C 
HETATM   30  C   UNL     1      41.606 -12.639   1.493  1.00  0.00     0.140 C 
HETATM   31  O   UNL     1      38.319 -11.110   1.825  1.00  0.00    -0.273 OA
HETATM   32  C   UNL     1      42.073 -14.105   1.593  1.00  0.00     0.115 C 
BRANCH  29  33
HETATM   33  C   UNL     1      40.081 -10.459   0.324  1.00  0.00     0.098 C 
HETATM   34  C   UNL     1      40.379  -9.065   0.852  1.00  0.00     0.014 C 
ENDBRANCH  29  33
ENDBRANCH   1  25
TORSDOF 7
ENDMDL
MODEL 8
REMARK VINA RESULT:      -7.8     15.729     17.373
REMARK  7 active torsions:
REMARK  status: ('A' for Active; 'I' for Inactive)
REMARK    1  A    between atoms: C_2  and  C_3 
REMARK       I    between atoms: C_3  and  N_4 
REMARK    2  A    between atoms: N_7  and  C_8 
REMARK    3  A    between atoms: C_9  and  N_10 
REMARK    4  A    between atoms: N_10  and  C_11 
REMARK    5  A    between atoms: C_11  and  N_12 
REMARK       I    between atoms: N_12  and  C_13 
REMARK    6  A    between atoms: C_13  and  C_14 
REMARK    7  A    between atoms: C_15  and  O_16 
ROOT
HETATM    1  C   UNL     1      42.658 -30.818   1.718  1.00  0.00     0.037 A 
HETATM    2  C   UNL     1      43.126 -30.701   3.057  1.00  0.00     0.057 A 
HETATM    3  C   UNL     1      42.310 -31.060   4.133  1.00  0.00     0.055 A 
HETATM    4  C   UNL     1      41.042 -31.580   3.892  1.00  0.00     0.036 A 
HETATM    5 CL   UNL     1      40.046 -32.044   5.215  1.00  0.00    -0.084 Cl
HETATM    6  C   UNL     1      40.569 -31.719   2.590  1.00  0.00     0.026 A 
HETATM    7  C   UNL     1      41.370 -31.332   1.511  1.00  0.00     0.027 A 
ENDROOT
BRANCH   2   8
HETATM    8  N   UNL     1      44.403 -30.118   3.230  1.00  0.00    -0.331 N 
HETATM    9  H   UNL     1      44.344 -29.118   3.411  1.00  0.00     0.168 HD
BRANCH   8  10
HETATM   10  C   UNL     1      45.634 -30.665   3.319  1.00  0.00     0.179 C 
HETATM   11  S   UNL     1      46.049 -31.519   4.696  1.00  0.00    -0.040 SA
BRANCH  10  12
HETATM   12  N   UNL     1      46.577 -30.504   2.348  1.00  0.00    -0.299 N 
HETATM   13  C   UNL     1      47.074 -29.329   1.789  1.00  0.00     0.260 C 
HETATM   14  O   UNL     1      46.767 -28.186   2.102  1.00  0.00    -0.267 OA
HETATM   15  H   UNL     1      47.179 -31.314   2.237  1.00  0.00     0.171 HD
BRANCH  13  16
HETATM   16  C   UNL     1      48.090 -29.526   0.724  1.00  0.00     0.066 A 
HETATM   17  C   UNL     1      49.231 -30.322   0.901  1.00  0.00     0.089 A 
HETATM   18  C   UNL     1      50.115 -30.550  -0.167  1.00  0.00    -0.028 A 
HETATM   19  C   UNL     1      51.328 -31.421  -0.014  1.00  0.00     0.051 C 
HETATM   20  C   UNL     1      49.877 -29.900  -1.388  1.00  0.00     0.009 A 
HETATM   21  C   UNL     1      48.766 -29.071  -1.554  1.00  0.00     0.002 A 
HETATM   22  C   UNL     1      47.871 -28.884  -0.501  1.00  0.00     0.020 A 
BRANCH  17  23
HETATM   23  O   UNL     1      49.470 -30.938   2.107  1.00  0.00    -0.354 OA
HETATM   24  C   UNL     1      50.218 -30.066   2.963  1.00  0.00     0.210 C 
ENDBRANCH  17  23
ENDBRANCH  13  16
ENDBRANCH  10  12
ENDBRANCH   8  10
ENDBRANCH   2   8
BRANCH   1  25
HETATM   25  N   UNL     1      43.520 -30.443   0.658  1.00  0.00    -0.278 NA
HETATM   26  C   UNL     1      43.267 -29.139   0.008  1.00  0.00     0.115 C 
HETATM   27  C   UNL     1      44.433 -28.792  -0.935  1.00  0.00     0.140 C 
HETATM   28  N   UNL     1      44.759 -29.870  -1.882  1.00  0.00    -0.350 N 
HETATM   29  C   UNL     1      45.441 -29.506  -3.041  1.00  0.00     0.219 C 
HETATM   30  C   UNL     1      44.816 -31.222  -1.302  1.00  0.00     0.140 C 
HETATM   31  O   UNL     1      45.578 -28.328  -3.373  1.00  0.00    -0.273 OA
HETATM   32  C   UNL     1      43.639 -31.527  -0.353  1.00  0.00     0.115 C 
BRANCH  29  33
HETATM   33  C   UNL     1      45.998 -30.638  -3.892  1.00  0.00     0.098 C 
HETATM   34  C   UNL     1      45.246 -30.805  -5.202  1.00  0.00     0.014 C 
ENDBRANCH  29  33
ENDBRANCH   1  25
TORSDOF 7
ENDMDL
MODEL 9
REMARK VINA RESULT:      -7.8      3.514      8.345
REMARK  7 active torsions:
REMARK  status: ('A' for Active; 'I' for Inactive)
REMARK    1  A    between atoms: C_2  and  C_3 
REMARK       I    between atoms: C_3  and  N_4 
REMARK    2  A    between atoms: N_7  and  C_8 
REMARK    3  A    between atoms: C_9  and  N_10 
REMARK    4  A    between atoms: N_10  and  C_11 
REMARK    5  A    between atoms: C_11  and  N_12 
REMARK       I    between atoms: N_12  and  C_13 
REMARK    6  A    between atoms: C_13  and  C_14 
REMARK    7  A    between atoms: C_15  and  O_16 
ROOT
HETATM    1  C   UNL     1      41.252 -14.748   3.371  1.00  0.00     0.037 A 
HETATM    2  C   UNL     1      42.435 -14.242   3.977  1.00  0.00     0.057 A 
HETATM    3  C   UNL     1      42.927 -14.799   5.161  1.00  0.00     0.055 A 
HETATM    4  C   UNL     1      42.278 -15.890   5.729  1.00  0.00     0.036 A 
HETATM    5 CL   UNL     1      42.896 -16.591   7.174  1.00  0.00    -0.084 Cl
HETATM    6  C   UNL     1      41.127 -16.413   5.146  1.00  0.00     0.026 A 
HETATM    7  C   UNL     1      40.613 -15.840   3.978  1.00  0.00     0.027 A 
ENDROOT
BRANCH   2   8
HETATM    8  N   UNL     1      43.014 -13.102   3.373  1.00  0.00    -0.331 N 
HETATM    9  H   UNL     1      43.529 -13.339   2.527  1.00  0.00     0.168 HD
BRANCH   8  10
HETATM   10  C   UNL     1      42.898 -11.785   3.646  1.00  0.00     0.179 C 
HETATM   11  S   UNL     1      42.136 -10.787   2.541  1.00  0.00    -0.040 SA
BRANCH  10  12
HETATM   12  N   UNL     1      43.426 -11.222   4.770  1.00  0.00    -0.299 N 
HETATM   13  C   UNL     1      42.909 -11.185   6.063  1.00  0.00     0.260 C 
HETATM   14  O   UNL     1      41.865 -11.699   6.446  1.00  0.00    -0.267 OA
HETATM   15  H   UNL     1      44.429 -11.074   4.710  1.00  0.00     0.171 HD
BRANCH  13  16
HETATM   16  C   UNL     1      43.748 -10.459   7.050  1.00  0.00     0.066 A 
HETATM   17  C   UNL     1      43.398  -9.200   7.561  1.00  0.00     0.089 A 
HETATM   18  C   UNL     1      44.177  -8.594   8.561  1.00  0.00    -0.028 A 
HETATM   19  C   UNL     1      43.811  -7.262   9.147  1.00  0.00     0.051 C 
HETATM   20  C   UNL     1      45.354  -9.236   8.978  1.00  0.00     0.009 A 
HETATM   21  C   UNL     1      45.728 -10.469   8.439  1.00  0.00     0.002 A 
HETATM   22  C   UNL     1      44.926 -11.081   7.477  1.00  0.00     0.020 A 
BRANCH  17  23
HETATM   23  O   UNL     1      42.256  -8.566   7.132  1.00  0.00    -0.354 OA
HETATM   24  C   UNL     1      41.183  -8.813   8.051  1.00  0.00     0.210 C 
ENDBRANCH  17  23
ENDBRANCH  13  16
ENDBRANCH  10  12
ENDBRANCH   8  10
ENDBRANCH   2   8
BRANCH   1  25
HETATM   25  N   UNL     1      40.790 -14.154   2.171  1.00  0.00    -0.278 NA
HETATM   26  C   UNL     1      39.479 -13.469   2.215  1.00  0.00     0.115 C 
HETATM   27  C   UNL     1      39.260 -12.681   0.912  1.00  0.00     0.140 C 
HETATM   28  N   UNL     1      39.463 -13.489  -0.301  1.00  0.00    -0.350 N 
HETATM   29  C   UNL     1      38.856 -13.036  -1.470  1.00  0.00     0.219 C 
HETATM   30  C   UNL     1      40.660 -14.347  -0.293  1.00  0.00     0.140 C 
HETATM   31  O   UNL     1      38.016 -12.135  -1.460  1.00  0.00    -0.273 OA
HETATM   32  C   UNL     1      40.853 -15.109   1.033  1.00  0.00     0.115 C 
BRANCH  29  33
HETATM   33  C   UNL     1      39.268 -13.720  -2.766  1.00  0.00     0.098 C 
HETATM   34  C   UNL     1      38.324 -14.846  -3.154  1.00  0.00     0.014 C 
ENDBRANCH  29  33
ENDBRANCH   1  25
TORSDOF 7
ENDMDL
MODEL 10
REMARK VINA RESULT:      -7.6      3.347      6.197
REMARK  7 active torsions:
REMARK  status: ('A' for Active; 'I' for Inactive)
REMARK    1  A    between atoms: C_2  and  C_3 
REMARK       I    between atoms: C_3  and  N_4 
REMARK    2  A    between atoms: N_7  and  C_8 
REMARK    3  A    between atoms: C_9  and  N_10 
REMARK    4  A    between atoms: N_10  and  C_11 
REMARK    5  A    between atoms: C_11  and  N_12 
REMARK       I    between atoms: N_12  and  C_13 
REMARK    6  A    between atoms: C_13  and  C_14 
REMARK    7  A    between atoms: C_15  and  O_16 
ROOT
HETATM    1  C   UNL     1      40.774  -9.731   2.007  1.00  0.00     0.037 A 
HETATM    2  C   UNL     1      41.254 -10.172   3.272  1.00  0.00     0.057 A 
HETATM    3  C   UNL     1      41.411  -9.273   4.330  1.00  0.00     0.055 A 
HETATM    4  C   UNL     1      41.051  -7.940   4.159  1.00  0.00     0.036 A 
HETATM    5 CL   UNL     1      41.222  -6.837   5.469  1.00  0.00    -0.084 Cl
HETATM    6  C   UNL     1      40.564  -7.489   2.936  1.00  0.00     0.026 A 
HETATM    7  C   UNL     1      40.434  -8.378   1.864  1.00  0.00     0.027 A 
ENDROOT
BRANCH   2   8
HETATM    8  N   UNL     1      41.647 -11.528   3.359  1.00  0.00    -0.331 N 
HETATM    9  H   UNL     1      42.625 -11.658   3.106  1.00  0.00     0.168 HD
BRANCH   8  10
HETATM   10  C   UNL     1      41.006 -12.620   3.826  1.00  0.00     0.179 C 
HETATM   11  S   UNL     1      39.455 -12.458   4.432  1.00  0.00    -0.040 SA
BRANCH  10  12
HETATM   12  N   UNL     1      41.595 -13.849   3.874  1.00  0.00    -0.299 N 
HETATM   13  C   UNL     1      42.692 -14.327   3.163  1.00  0.00     0.260 C 
HETATM   14  O   UNL     1      43.374 -13.698   2.362  1.00  0.00    -0.267 OA
HETATM   15  H   UNL     1      41.385 -14.359   4.726  1.00  0.00     0.171 HD
BRANCH  13  16
HETATM   16  C   UNL     1      43.053 -15.739   3.448  1.00  0.00     0.066 A 
HETATM   17  C   UNL     1      43.094 -16.265   4.748  1.00  0.00     0.089 A 
HETATM   18  C   UNL     1      43.352 -17.629   4.958  1.00  0.00    -0.028 A 
HETATM   19  C   UNL     1      43.373 -18.224   6.336  1.00  0.00     0.051 C 
HETATM   20  C   UNL     1      43.647 -18.437   3.849  1.00  0.00     0.009 A 
HETATM   21  C   UNL     1      43.651 -17.907   2.557  1.00  0.00     0.002 A 
HETATM   22  C   UNL     1      43.353 -16.561   2.355  1.00  0.00     0.020 A 
BRANCH  17  23
HETATM   23  O   UNL     1      42.825 -15.463   5.832  1.00  0.00    -0.354 OA
HETATM   24  C   UNL     1      44.048 -14.960   6.385  1.00  0.00     0.210 C 
ENDBRANCH  17  23
ENDBRANCH  13  16
ENDBRANCH  10  12
ENDBRANCH   8  10
ENDBRANCH   2   8
BRANCH   1  25
HETATM   25  N   UNL     1      40.630 -10.677   0.963  1.00  0.00    -0.278 NA
HETATM   26  C   UNL     1      41.324 -10.390  -0.312  1.00  0.00     0.115 C 
HETATM   27  C   UNL     1      41.263 -11.626  -1.227  1.00  0.00     0.140 C 
HETATM   28  N   UNL     1      39.902 -12.157  -1.403  1.00  0.00    -0.350 N 
HETATM   29  C   UNL     1      39.671 -12.938  -2.532  1.00  0.00     0.219 C 
HETATM   30  C   UNL     1      39.103 -12.262  -0.170  1.00  0.00     0.140 C 
HETATM   31  O   UNL     1      40.486 -13.010  -3.453  1.00  0.00    -0.273 OA
HETATM   32  C   UNL     1      39.201 -11.012   0.727  1.00  0.00     0.115 C 
BRANCH  29  33
HETATM   33  C   UNL     1      38.349 -13.691  -2.585  1.00  0.00     0.098 C 
HETATM   34  C   UNL     1      38.536 -15.175  -2.855  1.00  0.00     0.014 C 
ENDBRANCH  29  33
ENDBRANCH   1  25
TORSDOF 7
ENDMDL
