MODEL 1
REMARK VINA RESULT:      -9.1      0.000      0.000
REMARK  2 active torsions:
REMARK  status: ('A' for Active; 'I' for Inactive)
REMARK    1  A    between atoms: C_2  and  N_3 
REMARK    2  A    between atoms: N_3  and  C_4 
ROOT
HETATM    1  C   UNL     1      41.371 -14.115   4.519  1.00  0.00     0.143 A 
HETATM    2  N   UNL     1      41.496 -12.905   5.123  1.00  0.00    -0.223 NA
HETATM    3  C   UNL     1      42.419 -12.723   6.071  1.00  0.00     0.236 A 
HETATM    4  N   UNL     1      43.266 -13.627   6.544  1.00  0.00    -0.234 NA
HETATM    5  C   UNL     1      43.161 -14.807   5.914  1.00  0.00     0.114 A 
HETATM    6  C   UNL     1      42.301 -15.135   4.871  1.00  0.00     0.053 A 
HETATM    7  S   UNL     1      44.135 -16.101   6.418  1.00  0.00    -0.073 SA
HETATM    8  C   UNL     1      43.484 -17.141   5.238  1.00  0.00    -0.008 C 
HETATM    9  C   UNL     1      42.593 -16.492   4.391  1.00  0.00    -0.028 C 
HETATM   10  C   UNL     1      42.022 -17.161   3.169  1.00  0.00     0.041 C 
HETATM   11  C   UNL     1      43.077 -17.773   2.239  1.00  0.00     0.005 C 
HETATM   12  C   UNL     1      43.675 -19.092   2.723  1.00  0.00     0.001 C 
HETATM   13  C   UNL     1      44.622 -18.959   3.915  1.00  0.00     0.005 C 
HETATM   14  C   UNL     1      43.918 -18.579   5.212  1.00  0.00     0.047 C 
ENDROOT
BRANCH   1  15
HETATM   15  N   UNL     1      40.334 -14.303   3.589  1.00  0.00    -0.340 N 
HETATM   16  H   UNL     1      39.414 -14.170   3.978  1.00  0.00     0.167 HD
BRANCH  15  17
HETATM   17  C   UNL     1      40.313 -14.167   2.184  1.00  0.00     0.036 A 
HETATM   18  C   UNL     1      39.893 -15.173   1.309  1.00  0.00     0.032 A 
HETATM   19  C   UNL     1      39.903 -14.978  -0.076  1.00  0.00     0.042 A 
HETATM   20  C   UNL     1      40.279 -13.748  -0.607  1.00  0.00     0.102 A 
HETATM   21  C   UNL     1      40.662 -12.717   0.250  1.00  0.00     0.104 A 
HETATM   22  O   UNL     1      40.353 -13.661  -1.969  1.00  0.00    -0.348 OA
HETATM   23  C   UNL     1      40.692 -12.932   1.631  1.00  0.00     0.069 A 
HETATM   24  O   UNL     1      41.115 -11.502  -0.190  1.00  0.00    -0.348 OA
HETATM   25  C   UNL     1      40.126 -10.802  -0.948  1.00  0.00     0.178 C 
HETATM   26  C   UNL     1      40.077 -11.271  -2.394  1.00  0.00     0.053 C 
HETATM   27  C   UNL     1      39.479 -12.665  -2.496  1.00  0.00     0.178 C 
ENDBRANCH  15  17
ENDBRANCH   1  15
TORSDOF 2
ENDMDL
MODEL 2
REMARK VINA RESULT:      -8.9      3.696      6.795
REMARK  2 active torsions:
REMARK  status: ('A' for Active; 'I' for Inactive)
REMARK    1  A    between atoms: C_2  and  N_3 
REMARK    2  A    between atoms: N_3  and  C_4 
ROOT
HETATM    1  C   UNL     1      41.960 -13.515   3.657  1.00  0.00     0.143 A 
HETATM    2  N   UNL     1      41.374 -13.017   2.538  1.00  0.00    -0.223 NA
HETATM    3  C   UNL     1      41.346 -13.745   1.417  1.00  0.00     0.236 A 
HETATM    4  N   UNL     1      41.865 -14.952   1.237  1.00  0.00    -0.234 NA
HETATM    5  C   UNL     1      42.407 -15.450   2.359  1.00  0.00     0.114 A 
HETATM    6  C   UNL     1      42.458 -14.850   3.612  1.00  0.00     0.053 A 
HETATM    7  S   UNL     1      43.162 -16.968   2.306  1.00  0.00    -0.073 SA
HETATM    8  C   UNL     1      43.550 -16.909   3.963  1.00  0.00    -0.008 C 
HETATM    9  C   UNL     1      43.029 -15.784   4.590  1.00  0.00    -0.028 C 
HETATM   10  C   UNL     1      43.095 -15.600   6.084  1.00  0.00     0.041 C 
HETATM   11  C   UNL     1      42.551 -16.788   6.886  1.00  0.00     0.005 C 
HETATM   12  C   UNL     1      43.482 -17.996   6.960  1.00  0.00     0.001 C 
HETATM   13  C   UNL     1      43.611 -18.777   5.653  1.00  0.00     0.005 C 
HETATM   14  C   UNL     1      44.362 -18.021   4.563  1.00  0.00     0.047 C 
ENDROOT
BRANCH   1  15
HETATM   15  N   UNL     1      42.053 -12.694   4.794  1.00  0.00    -0.340 N 
HETATM   16  H   UNL     1      41.271 -12.787   5.422  1.00  0.00     0.167 HD
BRANCH  15  17
HETATM   17  C   UNL     1      43.174 -12.154   5.459  1.00  0.00     0.036 A 
HETATM   18  C   UNL     1      44.347 -11.752   4.812  1.00  0.00     0.032 A 
HETATM   19  C   UNL     1      45.428 -11.230   5.530  1.00  0.00     0.042 A 
HETATM   20  C   UNL     1      45.331 -11.048   6.906  1.00  0.00     0.102 A 
HETATM   21  C   UNL     1      44.155 -11.403   7.566  1.00  0.00     0.104 A 
HETATM   22  O   UNL     1      46.457 -10.621   7.551  1.00  0.00    -0.348 OA
HETATM   23  C   UNL     1      43.095 -11.965   6.849  1.00  0.00     0.069 A 
HETATM   24  O   UNL     1      44.003 -11.326   8.925  1.00  0.00    -0.348 OA
HETATM   25  C   UNL     1      44.126  -9.985   9.404  1.00  0.00     0.178 C 
HETATM   26  C   UNL     1      45.580  -9.572   9.576  1.00  0.00     0.053 C 
HETATM   27  C   UNL     1      46.257  -9.382   8.228  1.00  0.00     0.178 C 
ENDBRANCH  15  17
ENDBRANCH   1  15
TORSDOF 2
ENDMDL
MODEL 3
REMARK VINA RESULT:      -8.9      3.123      6.957
REMARK  2 active torsions:
REMARK  status: ('A' for Active; 'I' for Inactive)
REMARK    1  A    between atoms: C_2  and  N_3 
REMARK    2  A    between atoms: N_3  and  C_4 
ROOT
HETATM    1  C   UNL     1      39.697 -13.363   2.900  1.00  0.00     0.143 A 
HETATM    2  N   UNL     1      39.384 -12.597   3.977  1.00  0.00    -0.223 NA
HETATM    3  C   UNL     1      39.351 -11.266   3.865  1.00  0.00     0.236 A 
HETATM    4  N   UNL     1      39.620 -10.550   2.782  1.00  0.00    -0.234 NA
HETATM    5  C   UNL     1      39.889 -11.317   1.714  1.00  0.00     0.114 A 
HETATM    6  C   UNL     1      39.901 -12.706   1.652  1.00  0.00     0.053 A 
HETATM    7  S   UNL     1      40.304 -10.573   0.248  1.00  0.00    -0.073 SA
HETATM    8  C   UNL     1      40.473 -12.070  -0.545  1.00  0.00    -0.008 C 
HETATM    9  C   UNL     1      40.124 -13.142   0.268  1.00  0.00    -0.028 C 
HETATM   10  C   UNL     1      40.029 -14.549  -0.263  1.00  0.00     0.041 C 
HETATM   11  C   UNL     1      39.142 -14.690  -1.507  1.00  0.00     0.005 C 
HETATM   12  C   UNL     1      39.777 -14.205  -2.809  1.00  0.00     0.001 C 
HETATM   13  C   UNL     1      39.909 -12.687  -2.922  1.00  0.00     0.005 C 
HETATM   14  C   UNL     1      40.942 -12.093  -1.971  1.00  0.00     0.047 C 
ENDROOT
BRANCH   1  15
HETATM   15  N   UNL     1      39.810 -14.754   3.069  1.00  0.00    -0.340 N 
HETATM   16  H   UNL     1      39.208 -15.284   2.460  1.00  0.00     0.167 HD
BRANCH  15  17
HETATM   17  C   UNL     1      40.879 -15.547   3.537  1.00  0.00     0.036 A 
HETATM   18  C   UNL     1      41.287 -15.598   4.874  1.00  0.00     0.032 A 
HETATM   19  C   UNL     1      42.361 -16.400   5.273  1.00  0.00     0.042 A 
HETATM   20  C   UNL     1      43.010 -17.212   4.348  1.00  0.00     0.102 A 
HETATM   21  C   UNL     1      42.593 -17.208   3.018  1.00  0.00     0.104 A 
HETATM   22  O   UNL     1      44.106 -17.896   4.792  1.00  0.00    -0.348 OA
HETATM   23  C   UNL     1      41.548 -16.371   2.616  1.00  0.00     0.069 A 
HETATM   24  O   UNL     1      43.221 -17.920   2.031  1.00  0.00    -0.348 OA
HETATM   25  C   UNL     1      43.176 -19.328   2.271  1.00  0.00     0.178 C 
HETATM   26  C   UNL     1      44.259 -19.777   3.240  1.00  0.00     0.053 C 
HETATM   27  C   UNL     1      43.956 -19.307   4.654  1.00  0.00     0.178 C 
ENDBRANCH  15  17
ENDBRANCH   1  15
TORSDOF 2
ENDMDL
MODEL 4
REMARK VINA RESULT:      -8.6      3.566      7.172
REMARK  2 active torsions:
REMARK  status: ('A' for Active; 'I' for Inactive)
REMARK    1  A    between atoms: C_2  and  N_3 
REMARK    2  A    between atoms: N_3  and  C_4 
ROOT
HETATM    1  C   UNL     1      39.437 -13.128   2.800  1.00  0.00     0.143 A 
HETATM    2  N   UNL     1      39.060 -12.326   3.829  1.00  0.00    -0.223 NA
HETATM    3  C   UNL     1      39.055 -10.999   3.675  1.00  0.00     0.236 A 
HETATM    4  N   UNL     1      39.411 -10.320   2.593  1.00  0.00    -0.234 NA
HETATM    5  C   UNL     1      39.744 -11.123   1.570  1.00  0.00     0.114 A 
HETATM    6  C   UNL     1      39.739 -12.513   1.550  1.00  0.00     0.053 A 
HETATM    7  S   UNL     1      40.273 -10.430   0.116  1.00  0.00    -0.073 SA
HETATM    8  C   UNL     1      40.474 -11.953  -0.618  1.00  0.00    -0.008 C 
HETATM    9  C   UNL     1      40.053 -12.995   0.200  1.00  0.00    -0.028 C 
HETATM   10  C   UNL     1      39.975 -14.416  -0.294  1.00  0.00     0.041 C 
HETATM   11  C   UNL     1      39.176 -14.584  -1.594  1.00  0.00     0.005 C 
HETATM   12  C   UNL     1      39.909 -14.148  -2.861  1.00  0.00     0.001 C 
HETATM   13  C   UNL     1      40.071 -12.636  -3.010  1.00  0.00     0.005 C 
HETATM   14  C   UNL     1      41.043 -12.026  -2.006  1.00  0.00     0.047 C 
ENDROOT
BRANCH   1  15
HETATM   15  N   UNL     1      39.517 -14.515   3.018  1.00  0.00    -0.340 N 
HETATM   16  H   UNL     1      38.940 -15.055   2.394  1.00  0.00     0.167 HD
BRANCH  15  17
HETATM   17  C   UNL     1      40.546 -15.309   3.569  1.00  0.00     0.036 A 
HETATM   18  C   UNL     1      41.508 -15.978   2.808  1.00  0.00     0.032 A 
HETATM   19  C   UNL     1      42.499 -16.757   3.415  1.00  0.00     0.042 A 
HETATM   20  C   UNL     1      42.579 -16.830   4.802  1.00  0.00     0.102 A 
HETATM   21  C   UNL     1      41.654 -16.137   5.582  1.00  0.00     0.104 A 
HETATM   22  O   UNL     1      43.513 -17.682   5.321  1.00  0.00    -0.348 OA
HETATM   23  C   UNL     1      40.640 -15.396   4.969  1.00  0.00     0.069 A 
HETATM   24  O   UNL     1      41.616 -16.213   6.949  1.00  0.00    -0.348 OA
HETATM   25  C   UNL     1      42.818 -15.726   7.548  1.00  0.00     0.178 C 
HETATM   26  C   UNL     1      43.919 -16.775   7.553  1.00  0.00     0.053 C 
HETATM   27  C   UNL     1      44.458 -17.009   6.151  1.00  0.00     0.178 C 
ENDBRANCH  15  17
ENDBRANCH   1  15
TORSDOF 2
ENDMDL
MODEL 5
REMARK VINA RESULT:      -8.3      3.735      6.985
REMARK  2 active torsions:
REMARK  status: ('A' for Active; 'I' for Inactive)
REMARK    1  A    between atoms: C_2  and  N_3 
REMARK    2  A    between atoms: N_3  and  C_4 
ROOT
HETATM    1  C   UNL     1      42.376 -12.694   4.465  1.00  0.00     0.143 A 
HETATM    2  N   UNL     1      41.339 -12.610   3.591  1.00  0.00    -0.223 NA
HETATM    3  C   UNL     1      40.393 -11.683   3.763  1.00  0.00     0.236 A 
HETATM    4  N   UNL     1      40.316 -10.793   4.743  1.00  0.00    -0.234 NA
HETATM    5  C   UNL     1      41.365 -10.858   5.578  1.00  0.00     0.114 A 
HETATM    6  C   UNL     1      42.456 -11.717   5.500  1.00  0.00     0.053 A 
HETATM    7  S   UNL     1      41.414  -9.825   6.922  1.00  0.00    -0.073 SA
HETATM    8  C   UNL     1      42.914 -10.448   7.433  1.00  0.00    -0.008 C 
HETATM    9  C   UNL     1      43.435 -11.376   6.539  1.00  0.00    -0.028 C 
HETATM   10  C   UNL     1      44.825 -11.935   6.690  1.00  0.00     0.041 C 
HETATM   11  C   UNL     1      45.918 -10.868   6.834  1.00  0.00     0.005 C 
HETATM   12  C   UNL     1      45.997 -10.210   8.210  1.00  0.00     0.001 C 
HETATM   13  C   UNL     1      44.847  -9.254   8.522  1.00  0.00     0.005 C 
HETATM   14  C   UNL     1      43.509  -9.955   8.721  1.00  0.00     0.047 C 
ENDROOT
BRANCH   1  15
HETATM   15  N   UNL     1      43.309 -13.734   4.311  1.00  0.00    -0.340 N 
HETATM   16  H   UNL     1      44.052 -13.713   4.991  1.00  0.00     0.167 HD
BRANCH  15  17
HETATM   17  C   UNL     1      43.177 -15.021   3.746  1.00  0.00     0.036 A 
HETATM   18  C   UNL     1      43.008 -15.259   2.379  1.00  0.00     0.032 A 
HETATM   19  C   UNL     1      42.876 -16.560   1.882  1.00  0.00     0.042 A 
HETATM   20  C   UNL     1      42.972 -17.650   2.741  1.00  0.00     0.102 A 
HETATM   21  C   UNL     1      43.183 -17.437   4.103  1.00  0.00     0.104 A 
HETATM   22  O   UNL     1      42.741 -18.883   2.199  1.00  0.00    -0.348 OA
HETATM   23  C   UNL     1      43.269 -16.133   4.599  1.00  0.00     0.069 A 
HETATM   24  O   UNL     1      43.216 -18.447   5.026  1.00  0.00    -0.348 OA
HETATM   25  C   UNL     1      44.283 -19.366   4.780  1.00  0.00     0.178 C 
HETATM   26  C   UNL     1      43.919 -20.392   3.717  1.00  0.00     0.053 C 
HETATM   27  C   UNL     1      43.862 -19.754   2.339  1.00  0.00     0.178 C 
ENDBRANCH  15  17
ENDBRANCH   1  15
TORSDOF 2
ENDMDL
MODEL 6
REMARK VINA RESULT:      -8.2      3.150      6.825
REMARK  2 active torsions:
REMARK  status: ('A' for Active; 'I' for Inactive)
REMARK    1  A    between atoms: C_2  and  N_3 
REMARK    2  A    between atoms: N_3  and  C_4 
ROOT
HETATM    1  C   UNL     1      40.703 -13.867   3.440  1.00  0.00     0.143 A 
HETATM    2  N   UNL     1      40.214 -13.815   2.174  1.00  0.00    -0.223 NA
HETATM    3  C   UNL     1      40.173 -12.650   1.521  1.00  0.00     0.236 A 
HETATM    4  N   UNL     1      40.549 -11.464   1.980  1.00  0.00    -0.234 NA
HETATM    5  C   UNL     1      41.067 -11.533   3.216  1.00  0.00     0.114 A 
HETATM    6  C   UNL     1      41.238 -12.670   3.999  1.00  0.00     0.053 A 
HETATM    7  S   UNL     1      41.559 -10.104   3.985  1.00  0.00    -0.073 SA
HETATM    8  C   UNL     1      42.063 -10.945   5.377  1.00  0.00    -0.008 C 
HETATM    9  C   UNL     1      41.951 -12.323   5.234  1.00  0.00    -0.028 C 
HETATM   10  C   UNL     1      42.493 -13.279   6.264  1.00  0.00     0.041 C 
HETATM   11  C   UNL     1      43.963 -13.038   6.631  1.00  0.00     0.005 C 
HETATM   12  C   UNL     1      44.209 -11.848   7.556  1.00  0.00     0.001 C 
HETATM   13  C   UNL     1      44.019 -10.483   6.897  1.00  0.00     0.005 C 
HETATM   14  C   UNL     1      42.567 -10.167   6.558  1.00  0.00     0.047 C 
ENDROOT
BRANCH   1  15
HETATM   15  N   UNL     1      40.653 -15.089   4.134  1.00  0.00    -0.340 N 
HETATM   16  H   UNL     1      39.719 -15.447   4.251  1.00  0.00     0.167 HD
BRANCH  15  17
HETATM   17  C   UNL     1      41.611 -16.116   4.273  1.00  0.00     0.036 A 
HETATM   18  C   UNL     1      42.181 -16.492   5.492  1.00  0.00     0.032 A 
HETATM   19  C   UNL     1      43.133 -17.516   5.562  1.00  0.00     0.042 A 
HETATM   20  C   UNL     1      43.485 -18.222   4.416  1.00  0.00     0.102 A 
HETATM   21  C   UNL     1      42.897 -17.891   3.195  1.00  0.00     0.104 A 
HETATM   22  O   UNL     1      44.486 -19.143   4.544  1.00  0.00    -0.348 OA
HETATM   23  C   UNL     1      41.981 -16.837   3.125  1.00  0.00     0.069 A 
HETATM   24  O   UNL     1      43.240 -18.483   2.009  1.00  0.00    -0.348 OA
HETATM   25  C   UNL     1      42.968 -19.886   2.011  1.00  0.00     0.178 C 
HETATM   26  C   UNL     1      44.072 -20.682   2.691  1.00  0.00     0.053 C 
HETATM   27  C   UNL     1      44.059 -20.458   4.195  1.00  0.00     0.178 C 
ENDBRANCH  15  17
ENDBRANCH   1  15
TORSDOF 2
ENDMDL
MODEL 7
REMARK VINA RESULT:      -8.1      3.566      7.398
REMARK  2 active torsions:
REMARK  status: ('A' for Active; 'I' for Inactive)
REMARK    1  A    between atoms: C_2  and  N_3 
REMARK    2  A    between atoms: N_3  and  C_4 
ROOT
HETATM    1  C   UNL     1      39.800 -14.122   2.080  1.00  0.00     0.143 A 
HETATM    2  N   UNL     1      39.989 -14.330   0.751  1.00  0.00    -0.223 NA
HETATM    3  C   UNL     1      39.838 -13.321  -0.112  1.00  0.00     0.236 A 
HETATM    4  N   UNL     1      39.488 -12.074   0.172  1.00  0.00    -0.234 NA
HETATM    5  C   UNL     1      39.342 -11.870   1.490  1.00  0.00     0.114 A 
HETATM    6  C   UNL     1      39.524 -12.792   2.514  1.00  0.00     0.053 A 
HETATM    7  S   UNL     1      38.848 -10.343   2.038  1.00  0.00    -0.073 SA
HETATM    8  C   UNL     1      38.900 -10.834   3.667  1.00  0.00    -0.008 C 
HETATM    9  C   UNL     1      39.383 -12.129   3.816  1.00  0.00    -0.028 C 
HETATM   10  C   UNL     1      39.679 -12.720   5.169  1.00  0.00     0.041 C 
HETATM   11  C   UNL     1      40.594 -11.853   6.044  1.00  0.00     0.005 C 
HETATM   12  C   UNL     1      39.916 -10.643   6.684  1.00  0.00     0.001 C 
HETATM   13  C   UNL     1      39.577  -9.518   5.707  1.00  0.00     0.005 C 
HETATM   14  C   UNL     1      38.459  -9.873   4.734  1.00  0.00     0.047 C 
ENDROOT
BRANCH   1  15
HETATM   15  N   UNL     1      39.878 -15.220   2.955  1.00  0.00    -0.340 N 
HETATM   16  H   UNL     1      39.028 -15.757   3.004  1.00  0.00     0.167 HD
BRANCH  15  17
HETATM   17  C   UNL     1      40.984 -15.982   3.389  1.00  0.00     0.036 A 
HETATM   18  C   UNL     1      41.515 -15.921   4.681  1.00  0.00     0.032 A 
HETATM   19  C   UNL     1      42.619 -16.698   5.047  1.00  0.00     0.042 A 
HETATM   20  C   UNL     1      43.175 -17.595   4.140  1.00  0.00     0.102 A 
HETATM   21  C   UNL     1      42.635 -17.702   2.859  1.00  0.00     0.104 A 
HETATM   22  O   UNL     1      44.306 -18.251   4.538  1.00  0.00    -0.348 OA
HETATM   23  C   UNL     1      41.560 -16.891   2.485  1.00  0.00     0.069 A 
HETATM   24  O   UNL     1      43.165 -18.504   1.884  1.00  0.00    -0.348 OA
HETATM   25  C   UNL     1      43.137 -19.885   2.250  1.00  0.00     0.178 C 
HETATM   26  C   UNL     1      44.305 -20.261   3.149  1.00  0.00     0.053 C 
HETATM   27  C   UNL     1      44.138 -19.667   4.539  1.00  0.00     0.178 C 
ENDBRANCH  15  17
ENDBRANCH   1  15
TORSDOF 2
ENDMDL
MODEL 8
REMARK VINA RESULT:      -8.0      3.822      7.432
REMARK  2 active torsions:
REMARK  status: ('A' for Active; 'I' for Inactive)
REMARK    1  A    between atoms: C_2  and  N_3 
REMARK    2  A    between atoms: N_3  and  C_4 
ROOT
HETATM    1  C   UNL     1      41.656 -12.240   5.919  1.00  0.00     0.143 A 
HETATM    2  N   UNL     1      40.864 -12.300   4.818  1.00  0.00    -0.223 NA
HETATM    3  C   UNL     1      40.445 -11.174   4.233  1.00  0.00     0.236 A 
HETATM    4  N   UNL     1      40.698  -9.931   4.621  1.00  0.00    -0.234 NA
HETATM    5  C   UNL     1      41.514  -9.883   5.686  1.00  0.00     0.114 A 
HETATM    6  C   UNL     1      42.082 -10.955   6.365  1.00  0.00     0.053 A 
HETATM    7  S   UNL     1      41.909  -8.375   6.353  1.00  0.00    -0.073 SA
HETATM    8  C   UNL     1      42.894  -9.084   7.547  1.00  0.00    -0.008 C 
HETATM    9  C   UNL     1      43.006 -10.461   7.393  1.00  0.00    -0.028 C 
HETATM   10  C   UNL     1      43.957 -11.282   8.224  1.00  0.00     0.041 C 
HETATM   11  C   UNL     1      45.401 -10.764   8.219  1.00  0.00     0.005 C 
HETATM   12  C   UNL     1      45.647  -9.535   9.092  1.00  0.00     0.001 C 
HETATM   13  C   UNL     1      45.048  -8.240   8.545  1.00  0.00     0.005 C 
HETATM   14  C   UNL     1      43.525  -8.207   8.590  1.00  0.00     0.047 C 
ENDROOT
BRANCH   1  15
HETATM   15  N   UNL     1      42.009 -13.438   6.565  1.00  0.00    -0.340 N 
HETATM   16  H   UNL     1      41.390 -13.687   7.318  1.00  0.00     0.167 HD
BRANCH  15  17
HETATM   17  C   UNL     1      42.721 -14.565   6.102  1.00  0.00     0.036 A 
HETATM   18  C   UNL     1      43.500 -15.386   6.922  1.00  0.00     0.032 A 
HETATM   19  C   UNL     1      44.189 -16.486   6.400  1.00  0.00     0.042 A 
HETATM   20  C   UNL     1      44.061 -16.818   5.054  1.00  0.00     0.102 A 
HETATM   21  C   UNL     1      43.255 -16.036   4.227  1.00  0.00     0.104 A 
HETATM   22  O   UNL     1      44.834 -17.848   4.597  1.00  0.00    -0.348 OA
HETATM   23  C   UNL     1      42.605 -14.912   4.745  1.00  0.00     0.069 A 
HETATM   24  O   UNL     1      43.132 -16.247   2.880  1.00  0.00    -0.348 OA
HETATM   25  C   UNL     1      42.571 -17.529   2.586  1.00  0.00     0.178 C 
HETATM   26  C   UNL     1      43.615 -18.634   2.631  1.00  0.00     0.053 C 
HETATM   27  C   UNL     1      44.053 -18.913   4.059  1.00  0.00     0.178 C 
ENDBRANCH  15  17
ENDBRANCH   1  15
TORSDOF 2
ENDMDL
MODEL 9
REMARK VINA RESULT:      -8.0     15.219     17.563
REMARK  2 active torsions:
REMARK  status: ('A' for Active; 'I' for Inactive)
REMARK    1  A    between atoms: C_2  and  N_3 
REMARK    2  A    between atoms: N_3  and  C_4 
ROOT
HETATM    1  C   UNL     1      47.978 -28.682  -0.416  1.00  0.00     0.143 A 
HETATM    2  N   UNL     1      47.337 -27.959   0.538  1.00  0.00    -0.223 NA
HETATM    3  C   UNL     1      47.511 -28.252   1.830  1.00  0.00     0.236 A 
HETATM    4  N   UNL     1      48.255 -29.228   2.333  1.00  0.00    -0.234 NA
HETATM    5  C   UNL     1      48.915 -29.911   1.385  1.00  0.00     0.114 A 
HETATM    6  C   UNL     1      48.891 -29.690   0.013  1.00  0.00     0.053 A 
HETATM    7  S   UNL     1      49.881 -31.229   1.840  1.00  0.00    -0.073 SA
HETATM    8  C   UNL     1      50.344 -31.533   0.230  1.00  0.00    -0.008 C 
HETATM    9  C   UNL     1      49.848 -30.582  -0.654  1.00  0.00    -0.028 C 
HETATM   10  C   UNL     1      50.263 -30.544  -2.101  1.00  0.00     0.041 C 
HETATM   11  C   UNL     1      51.782 -30.530  -2.317  1.00  0.00     0.005 C 
HETATM   12  C   UNL     1      52.473 -31.877  -2.120  1.00  0.00     0.001 C 
HETATM   13  C   UNL     1      52.558 -32.338  -0.665  1.00  0.00     0.005 C 
HETATM   14  C   UNL     1      51.210 -32.723  -0.068  1.00  0.00     0.047 C 
ENDROOT
BRANCH   1  15
HETATM   15  N   UNL     1      47.709 -28.408  -1.768  1.00  0.00    -0.340 N 
HETATM   16  H   UNL     1      48.525 -28.144  -2.296  1.00  0.00     0.167 HD
BRANCH  15  17
HETATM   17  C   UNL     1      46.683 -28.869  -2.620  1.00  0.00     0.036 A 
HETATM   18  C   UNL     1      45.658 -28.059  -3.118  1.00  0.00     0.032 A 
HETATM   19  C   UNL     1      44.664 -28.579  -3.954  1.00  0.00     0.042 A 
HETATM   20  C   UNL     1      44.714 -29.910  -4.355  1.00  0.00     0.102 A 
HETATM   21  C   UNL     1      45.751 -30.726  -3.904  1.00  0.00     0.104 A 
HETATM   22  O   UNL     1      43.662 -30.370  -5.095  1.00  0.00    -0.348 OA
HETATM   23  C   UNL     1      46.716 -30.212  -3.033  1.00  0.00     0.069 A 
HETATM   24  O   UNL     1      45.835 -32.063  -4.190  1.00  0.00    -0.348 OA
HETATM   25  C   UNL     1      45.959 -32.305  -5.593  1.00  0.00     0.178 C 
HETATM   26  C   UNL     1      44.612 -32.272  -6.300  1.00  0.00     0.053 C 
HETATM   27  C   UNL     1      44.069 -30.853  -6.374  1.00  0.00     0.178 C 
ENDBRANCH  15  17
ENDBRANCH   1  15
TORSDOF 2
ENDMDL
MODEL 10
REMARK VINA RESULT:      -8.0      3.935      7.746
REMARK  2 active torsions:
REMARK  status: ('A' for Active; 'I' for Inactive)
REMARK    1  A    between atoms: C_2  and  N_3 
REMARK    2  A    between atoms: N_3  and  C_4 
ROOT
HETATM    1  C   UNL     1      39.766 -13.984  -0.384  1.00  0.00     0.143 A 
HETATM    2  N   UNL     1      40.253 -14.254  -1.622  1.00  0.00    -0.223 NA
HETATM    3  C   UNL     1      40.243 -13.308  -2.565  1.00  0.00     0.236 A 
HETATM    4  N   UNL     1      39.774 -12.072  -2.452  1.00  0.00    -0.234 NA
HETATM    5  C   UNL     1      39.332 -11.804  -1.213  1.00  0.00     0.114 A 
HETATM    6  C   UNL     1      39.332 -12.653  -0.113  1.00  0.00     0.053 A 
HETATM    7  S   UNL     1      38.650 -10.285  -0.893  1.00  0.00    -0.073 SA
HETATM    8  C   UNL     1      38.369 -10.678   0.740  1.00  0.00    -0.008 C 
HETATM    9  C   UNL     1      38.874 -11.928   1.078  1.00  0.00    -0.028 C 
HETATM   10  C   UNL     1      38.896 -12.421   2.502  1.00  0.00     0.041 C 
HETATM   11  C   UNL     1      39.550 -11.448   3.491  1.00  0.00     0.005 C 
HETATM   12  C   UNL     1      38.686 -10.251   3.884  1.00  0.00     0.001 C 
HETATM   13  C   UNL     1      38.511  -9.208   2.781  1.00  0.00     0.005 C 
HETATM   14  C   UNL     1      37.654  -9.691   1.617  1.00  0.00     0.047 C 
ENDROOT
BRANCH   1  15
HETATM   15  N   UNL     1      39.707 -15.023   0.562  1.00  0.00    -0.340 N 
HETATM   16  H   UNL     1      39.113 -15.787   0.284  1.00  0.00     0.167 HD
BRANCH  15  17
HETATM   17  C   UNL     1      40.631 -15.433   1.546  1.00  0.00     0.036 A 
HETATM   18  C   UNL     1      42.014 -15.478   1.349  1.00  0.00     0.032 A 
HETATM   19  C   UNL     1      42.878 -15.902   2.364  1.00  0.00     0.042 A 
HETATM   20  C   UNL     1      42.374 -16.232   3.619  1.00  0.00     0.102 A 
HETATM   21  C   UNL     1      41.001 -16.154   3.850  1.00  0.00     0.104 A 
HETATM   22  O   UNL     1      43.264 -16.724   4.530  1.00  0.00    -0.348 OA
HETATM   23  C   UNL     1      40.139 -15.773   2.818  1.00  0.00     0.069 A 
HETATM   24  O   UNL     1      40.414 -16.531   5.029  1.00  0.00    -0.348 OA
HETATM   25  C   UNL     1      40.868 -15.742   6.131  1.00  0.00     0.178 C 
HETATM   26  C   UNL     1      42.202 -16.232   6.675  1.00  0.00     0.053 C 
HETATM   27  C   UNL     1      43.333 -15.923   5.708  1.00  0.00     0.178 C 
ENDBRANCH  15  17
ENDBRANCH   1  15
TORSDOF 2
ENDMDL
