MODEL 1
REMARK VINA RESULT:      -9.0      0.000      0.000
REMARK  7 active torsions:
REMARK  status: ('A' for Active; 'I' for Inactive)
REMARK    1  A    between atoms: C_7  and  C_8 
REMARK    2  A    between atoms: C_8  and  N_9 
REMARK    3  A    between atoms: C_13  and  C_14 
REMARK    4  A    between atoms: C_14  and  C_15 
REMARK    5  A    between atoms: C_15  and  C_16 
REMARK    6  A    between atoms: N_26  and  C_27 
REMARK    7  A    between atoms: C_27  and  C_28 
ROOT
HETATM    1  C   UNL     1      42.022 -15.813   3.591  1.00  0.00     0.123 C 
HETATM    2  N   UNL     1      41.253 -16.204   4.762  1.00  0.00    -0.324 N 
HETATM    3  C   UNL     1      41.370 -15.322   5.811  1.00  0.00     0.326 C 
HETATM    4  O   UNL     1      40.943 -15.534   6.930  1.00  0.00    -0.247 OA
HETATM    5  N   UNL     1      41.994 -14.207   5.357  1.00  0.00    -0.268 N 
HETATM    6  C   UNL     1      42.319 -14.362   4.046  1.00  0.00     0.257 C 
HETATM    7  O   UNL     1      42.792 -13.491   3.328  1.00  0.00    -0.270 OA
HETATM    8  H   UNL     1      40.976 -17.160   4.974  1.00  0.00     0.165 HD
ENDROOT
BRANCH   1   9
HETATM    9  C   UNL     1      41.157 -15.941   2.294  1.00  0.00     0.027 C 
HETATM   10  C   UNL     1      41.676 -15.261   1.020  1.00  0.00     0.035 C 
HETATM   11  C   UNL     1      41.414 -13.767   0.885  1.00  0.00     0.235 C 
HETATM   12  N   UNL     1      40.026 -13.349   1.308  1.00  0.00    -0.067 N 
HETATM   13  H   UNL     1      39.417 -13.508   0.496  1.00  0.00     0.280 HD
HETATM   14  C   UNL     1      39.413 -14.069   2.481  1.00  0.00     0.235 C 
HETATM   15  C   UNL     1      39.672 -15.562   2.440  1.00  0.00     0.035 C 
BRANCH  12  16
HETATM   16  C   UNL     1      39.964 -11.847   1.582  1.00  0.00     0.277 C 
BRANCH  16  17
HETATM   17  C   UNL     1      40.627 -10.995   0.568  1.00  0.00     0.011 A 
HETATM   18  C   UNL     1      40.300 -10.799  -0.768  1.00  0.00     0.035 A 
HETATM   19  C   UNL     1      39.198 -11.357  -1.595  1.00  0.00     0.070 C 
HETATM   20  N   UNL     1      41.186  -9.853  -1.232  1.00  0.00    -0.278 N 
HETATM   21  C   UNL     1      41.220  -9.196  -2.520  1.00  0.00     0.179 C 
HETATM   22  N   UNL     1      42.078  -9.471  -0.301  1.00  0.00    -0.185 NA
HETATM   23  C   UNL     1      41.714 -10.123   0.795  1.00  0.00     0.149 A 
ENDBRANCH  16  17
ENDBRANCH  12  16
ENDBRANCH   1   9
BRANCH   1  24
HETATM   24  C   UNL     1      43.413 -16.521   3.576  1.00  0.00     0.082 C 
BRANCH  24  25
HETATM   25  C   UNL     1      43.546 -18.018   3.803  1.00  0.00    -0.034 A 
HETATM   26  C   UNL     1      43.809 -18.635   5.039  1.00  0.00     0.040 A 
HETATM   27 CL   UNL     1      43.960 -17.760   6.514  1.00  0.00    -0.084 Cl
HETATM   28  C   UNL     1      44.007 -20.020   5.122  1.00  0.00     0.024 A 
HETATM   29  C   UNL     1      43.976 -20.812   3.977  1.00  0.00     0.002 A 
HETATM   30  C   UNL     1      43.742 -20.223   2.743  1.00  0.00     0.001 A 
HETATM   31  C   UNL     1      43.531 -18.844   2.657  1.00  0.00     0.009 A 
ENDBRANCH  24  25
ENDBRANCH   1  24
BRANCH   5  32
HETATM   32  C   UNL     1      42.253 -13.025   6.149  1.00  0.00     0.141 C 
BRANCH  32  33
HETATM   33  C   UNL     1      43.688 -13.000   6.582  1.00  0.00     0.004 A 
HETATM   34  C   UNL     1      44.636 -11.926   6.105  1.00  0.00     0.007 A 
HETATM   35  C   UNL     1      44.173 -11.937   7.536  1.00  0.00     0.007 A 
ENDBRANCH  32  33
ENDBRANCH   5  32
TORSDOF 7
ENDMDL
MODEL 2
REMARK VINA RESULT:      -8.6      3.074      6.887
REMARK  7 active torsions:
REMARK  status: ('A' for Active; 'I' for Inactive)
REMARK    1  A    between atoms: C_7  and  C_8 
REMARK    2  A    between atoms: C_8  and  N_9 
REMARK    3  A    between atoms: C_13  and  C_14 
REMARK    4  A    between atoms: C_14  and  C_15 
REMARK    5  A    between atoms: C_15  and  C_16 
REMARK    6  A    between atoms: N_26  and  C_27 
REMARK    7  A    between atoms: C_27  and  C_28 
ROOT
HETATM    1  C   UNL     1      40.252 -13.179   3.298  1.00  0.00     0.123 C 
HETATM    2  N   UNL     1      39.718 -13.298   4.645  1.00  0.00    -0.324 N 
HETATM    3  C   UNL     1      39.161 -12.131   5.116  1.00  0.00     0.326 C 
HETATM    4  O   UNL     1      38.801 -11.964   6.265  1.00  0.00    -0.247 OA
HETATM    5  N   UNL     1      39.064 -11.263   4.079  1.00  0.00    -0.268 N 
HETATM    6  C   UNL     1      39.581 -11.826   2.955  1.00  0.00     0.257 C 
HETATM    7  O   UNL     1      39.540 -11.333   1.835  1.00  0.00    -0.270 OA
HETATM    8  H   UNL     1      40.030 -13.984   5.328  1.00  0.00     0.165 HD
ENDROOT
BRANCH   1   9
HETATM    9  C   UNL     1      39.801 -14.390   2.416  1.00  0.00     0.027 C 
HETATM   10  C   UNL     1      39.770 -15.778   3.072  1.00  0.00     0.035 C 
HETATM   11  C   UNL     1      41.097 -16.518   3.172  1.00  0.00     0.235 C 
HETATM   12  N   UNL     1      41.947 -16.422   1.927  1.00  0.00    -0.067 N 
HETATM   13  H   UNL     1      41.609 -17.154   1.291  1.00  0.00     0.280 HD
HETATM   14  C   UNL     1      41.922 -15.120   1.171  1.00  0.00     0.235 C 
HETATM   15  C   UNL     1      40.525 -14.540   1.066  1.00  0.00     0.035 C 
BRANCH  12  16
HETATM   16  C   UNL     1      43.403 -16.774   2.228  1.00  0.00     0.277 C 
BRANCH  16  17
HETATM   17  C   UNL     1      43.617 -18.117   2.813  1.00  0.00     0.011 A 
HETATM   18  C   UNL     1      44.023 -18.466   4.095  1.00  0.00     0.035 A 
HETATM   19  C   UNL     1      44.360 -17.626   5.274  1.00  0.00     0.070 C 
HETATM   20  N   UNL     1      43.983 -19.842   4.136  1.00  0.00    -0.278 N 
HETATM   21  C   UNL     1      44.196 -20.722   5.264  1.00  0.00     0.179 C 
HETATM   22  N   UNL     1      43.625 -20.390   2.962  1.00  0.00    -0.185 NA
HETATM   23  C   UNL     1      43.359 -19.353   2.179  1.00  0.00     0.149 A 
ENDBRANCH  16  17
ENDBRANCH  12  16
ENDBRANCH   1   9
BRANCH   1  24
HETATM   24  C   UNL     1      41.782 -12.871   3.331  1.00  0.00     0.082 C 
BRANCH  24  25
HETATM   25  C   UNL     1      42.552 -12.803   4.639  1.00  0.00    -0.034 A 
HETATM   26  C   UNL     1      42.958 -11.624   5.287  1.00  0.00     0.040 A 
HETATM   27 CL   UNL     1      42.577 -10.050   4.702  1.00  0.00    -0.084 Cl
HETATM   28  C   UNL     1      43.749 -11.675   6.443  1.00  0.00     0.024 A 
HETATM   29  C   UNL     1      44.172 -12.896   6.961  1.00  0.00     0.002 A 
HETATM   30  C   UNL     1      43.804 -14.074   6.326  1.00  0.00     0.001 A 
HETATM   31  C   UNL     1      43.006 -14.028   5.180  1.00  0.00     0.009 A 
ENDBRANCH  24  25
ENDBRANCH   1  24
BRANCH   5  32
HETATM   32  C   UNL     1      38.476  -9.943   4.161  1.00  0.00     0.141 C 
BRANCH  32  33
HETATM   33  C   UNL     1      39.494  -8.956   4.647  1.00  0.00     0.004 A 
HETATM   34  C   UNL     1      39.128  -7.517   4.919  1.00  0.00     0.007 A 
HETATM   35  C   UNL     1      39.434  -8.442   6.064  1.00  0.00     0.007 A 
ENDBRANCH  32  33
ENDBRANCH   5  32
TORSDOF 7
ENDMDL
MODEL 3
REMARK VINA RESULT:      -8.6      1.925      2.368
REMARK  7 active torsions:
REMARK  status: ('A' for Active; 'I' for Inactive)
REMARK    1  A    between atoms: C_7  and  C_8 
REMARK    2  A    between atoms: C_8  and  N_9 
REMARK    3  A    between atoms: C_13  and  C_14 
REMARK    4  A    between atoms: C_14  and  C_15 
REMARK    5  A    between atoms: C_15  and  C_16 
REMARK    6  A    between atoms: N_26  and  C_27 
REMARK    7  A    between atoms: C_27  and  C_28 
ROOT
HETATM    1  C   UNL     1      41.998 -15.314   3.309  1.00  0.00     0.123 C 
HETATM    2  N   UNL     1      41.946 -15.354   4.762  1.00  0.00    -0.324 N 
HETATM    3  C   UNL     1      42.546 -14.269   5.359  1.00  0.00     0.326 C 
HETATM    4  O   UNL     1      42.754 -14.179   6.554  1.00  0.00    -0.247 OA
HETATM    5  N   UNL     1      42.808 -13.351   4.397  1.00  0.00    -0.268 N 
HETATM    6  C   UNL     1      42.428 -13.831   3.184  1.00  0.00     0.257 C 
HETATM    7  O   UNL     1      42.437 -13.196   2.138  1.00  0.00    -0.270 OA
HETATM    8  H   UNL     1      41.853 -16.206   5.310  1.00  0.00     0.165 HD
ENDROOT
BRANCH   1   9
HETATM    9  C   UNL     1      40.600 -15.657   2.697  1.00  0.00     0.027 C 
HETATM   10  C   UNL     1      40.525 -15.903   1.183  1.00  0.00     0.035 C 
HETATM   11  C   UNL     1      40.463 -14.670   0.292  1.00  0.00     0.235 C 
HETATM   12  N   UNL     1      39.544 -13.587   0.807  1.00  0.00    -0.067 N 
HETATM   13  H   UNL     1      38.599 -13.838   0.491  1.00  0.00     0.280 HD
HETATM   14  C   UNL     1      39.483 -13.382   2.297  1.00  0.00     0.235 C 
HETATM   15  C   UNL     1      39.456 -14.692   3.060  1.00  0.00     0.035 C 
BRANCH  12  16
HETATM   16  C   UNL     1      39.856 -12.244   0.150  1.00  0.00     0.277 C 
BRANCH  16  17
HETATM   17  C   UNL     1      38.734 -11.637  -0.603  1.00  0.00     0.011 A 
HETATM   18  C   UNL     1      38.182 -12.016  -1.820  1.00  0.00     0.035 A 
HETATM   19  C   UNL     1      38.520 -13.135  -2.738  1.00  0.00     0.070 C 
HETATM   20  N   UNL     1      37.117 -11.168  -2.026  1.00  0.00    -0.278 N 
HETATM   21  C   UNL     1      36.125 -11.196  -3.078  1.00  0.00     0.179 C 
HETATM   22  N   UNL     1      36.983 -10.251  -1.052  1.00  0.00    -0.185 NA
HETATM   23  C   UNL     1      37.927 -10.561  -0.173  1.00  0.00     0.149 A 
ENDBRANCH  16  17
ENDBRANCH  12  16
ENDBRANCH   1   9
BRANCH   1  24
HETATM   24  C   UNL     1      43.215 -16.131   2.772  1.00  0.00     0.082 C 
BRANCH  24  25
HETATM   25  C   UNL     1      43.382 -17.609   3.087  1.00  0.00    -0.034 A 
HETATM   26  C   UNL     1      44.047 -18.134   4.207  1.00  0.00     0.040 A 
HETATM   27 CL   UNL     1      44.732 -17.149   5.442  1.00  0.00    -0.084 Cl
HETATM   28  C   UNL     1      44.227 -19.517   4.353  1.00  0.00     0.024 A 
HETATM   29  C   UNL     1      43.774 -20.399   3.376  1.00  0.00     0.002 A 
HETATM   30  C   UNL     1      43.135 -19.903   2.249  1.00  0.00     0.001 A 
HETATM   31  C   UNL     1      42.942 -18.526   2.106  1.00  0.00     0.009 A 
ENDBRANCH  24  25
ENDBRANCH   1  24
BRANCH   5  32
HETATM   32  C   UNL     1      43.388 -12.047   4.637  1.00  0.00     0.141 C 
BRANCH  32  33
HETATM   33  C   UNL     1      42.363 -11.130   5.235  1.00  0.00     0.004 A 
HETATM   34  C   UNL     1      41.982  -9.832   4.566  1.00  0.00     0.007 A 
HETATM   35  C   UNL     1      41.011 -10.979   4.586  1.00  0.00     0.007 A 
ENDBRANCH  32  33
ENDBRANCH   5  32
TORSDOF 7
ENDMDL
MODEL 4
REMARK VINA RESULT:      -8.5      1.521      1.946
REMARK  7 active torsions:
REMARK  status: ('A' for Active; 'I' for Inactive)
REMARK    1  A    between atoms: C_7  and  C_8 
REMARK    2  A    between atoms: C_8  and  N_9 
REMARK    3  A    between atoms: C_13  and  C_14 
REMARK    4  A    between atoms: C_14  and  C_15 
REMARK    5  A    between atoms: C_15  and  C_16 
REMARK    6  A    between atoms: N_26  and  C_27 
REMARK    7  A    between atoms: C_27  and  C_28 
ROOT
HETATM    1  C   UNL     1      41.810 -15.978   3.833  1.00  0.00     0.123 C 
HETATM    2  N   UNL     1      40.822 -16.448   4.791  1.00  0.00    -0.324 N 
HETATM    3  C   UNL     1      40.600 -15.565   5.823  1.00  0.00     0.326 C 
HETATM    4  O   UNL     1      39.938 -15.824   6.809  1.00  0.00    -0.247 OA
HETATM    5  N   UNL     1      41.208 -14.394   5.513  1.00  0.00    -0.268 N 
HETATM    6  C   UNL     1      41.852 -14.509   4.321  1.00  0.00     0.257 C 
HETATM    7  O   UNL     1      42.401 -13.593   3.723  1.00  0.00    -0.270 OA
HETATM    8  H   UNL     1      40.593 -17.427   4.946  1.00  0.00     0.165 HD
ENDROOT
BRANCH   1   9
HETATM    9  C   UNL     1      41.299 -16.181   2.369  1.00  0.00     0.027 C 
HETATM   10  C   UNL     1      42.148 -15.598   1.230  1.00  0.00     0.035 C 
HETATM   11  C   UNL     1      41.980 -14.112   0.941  1.00  0.00     0.235 C 
HETATM   12  N   UNL     1      40.544 -13.642   0.968  1.00  0.00    -0.067 N 
HETATM   13  H   UNL     1      40.157 -13.846   0.039  1.00  0.00     0.280 HD
HETATM   14  C   UNL     1      39.630 -14.269   1.987  1.00  0.00     0.235 C 
HETATM   15  C   UNL     1      39.839 -15.766   2.106  1.00  0.00     0.035 C 
BRANCH  12  16
HETATM   16  C   UNL     1      40.467 -12.124   1.124  1.00  0.00     0.277 C 
BRANCH  16  17
HETATM   17  C   UNL     1      39.749 -11.417   0.039  1.00  0.00     0.011 A 
HETATM   18  C   UNL     1      40.105 -11.255  -1.294  1.00  0.00     0.035 A 
HETATM   19  C   UNL     1      41.290 -11.735  -2.053  1.00  0.00     0.070 C 
HETATM   20  N   UNL     1      39.052 -10.590  -1.882  1.00  0.00    -0.278 N 
HETATM   21  C   UNL     1      38.847 -10.270  -3.277  1.00  0.00     0.179 C 
HETATM   22  N   UNL     1      38.078 -10.279  -1.009  1.00  0.00    -0.185 NA
HETATM   23  C   UNL     1      38.475 -10.817   0.137  1.00  0.00     0.149 A 
ENDBRANCH  16  17
ENDBRANCH  12  16
ENDBRANCH   1   9
BRANCH   1  24
HETATM   24  C   UNL     1      43.224 -16.551   4.165  1.00  0.00     0.082 C 
BRANCH  24  25
HETATM   25  C   UNL     1      43.447 -18.038   4.387  1.00  0.00    -0.034 A 
HETATM   26  C   UNL     1      43.586 -18.664   5.638  1.00  0.00     0.040 A 
HETATM   27 CL   UNL     1      43.459 -17.819   7.132  1.00  0.00    -0.084 Cl
HETATM   28  C   UNL     1      43.885 -20.031   5.728  1.00  0.00     0.024 A 
HETATM   29  C   UNL     1      44.078 -20.793   4.579  1.00  0.00     0.002 A 
HETATM   30  C   UNL     1      43.970 -20.193   3.332  1.00  0.00     0.001 A 
HETATM   31  C   UNL     1      43.660 -18.833   3.238  1.00  0.00     0.009 A 
ENDBRANCH  24  25
ENDBRANCH   1  24
BRANCH   5  32
HETATM   32  C   UNL     1      41.157 -13.197   6.325  1.00  0.00     0.141 C 
BRANCH  32  33
HETATM   33  C   UNL     1      39.869 -12.468   6.086  1.00  0.00     0.004 A 
HETATM   34  C   UNL     1      39.756 -10.979   6.304  1.00  0.00     0.007 A 
HETATM   35  C   UNL     1      39.733 -11.536   4.908  1.00  0.00     0.007 A 
ENDBRANCH  32  33
ENDBRANCH   5  32
TORSDOF 7
ENDMDL
MODEL 5
REMARK VINA RESULT:      -8.5      2.784      6.342
REMARK  7 active torsions:
REMARK  status: ('A' for Active; 'I' for Inactive)
REMARK    1  A    between atoms: C_7  and  C_8 
REMARK    2  A    between atoms: C_8  and  N_9 
REMARK    3  A    between atoms: C_13  and  C_14 
REMARK    4  A    between atoms: C_14  and  C_15 
REMARK    5  A    between atoms: C_15  and  C_16 
REMARK    6  A    between atoms: N_26  and  C_27 
REMARK    7  A    between atoms: C_27  and  C_28 
ROOT
HETATM    1  C   UNL     1      42.181 -14.548   3.672  1.00  0.00     0.123 C 
HETATM    2  N   UNL     1      42.285 -13.154   3.271  1.00  0.00    -0.324 N 
HETATM    3  C   UNL     1      41.496 -12.837   2.190  1.00  0.00     0.326 C 
HETATM    4  O   UNL     1      41.549 -11.777   1.597  1.00  0.00    -0.247 OA
HETATM    5  N   UNL     1      40.663 -13.880   1.956  1.00  0.00    -0.268 N 
HETATM    6  C   UNL     1      40.920 -14.883   2.838  1.00  0.00     0.257 C 
HETATM    7  O   UNL     1      40.264 -15.910   2.950  1.00  0.00    -0.270 OA
HETATM    8  H   UNL     1      43.089 -12.560   3.464  1.00  0.00     0.165 HD
ENDROOT
BRANCH   1   9
HETATM    9  C   UNL     1      42.006 -14.666   5.222  1.00  0.00     0.027 C 
HETATM   10  C   UNL     1      40.696 -14.149   5.834  1.00  0.00     0.035 C 
HETATM   11  C   UNL     1      40.596 -12.648   6.071  1.00  0.00     0.235 C 
HETATM   12  N   UNL     1      41.851 -12.034   6.645  1.00  0.00    -0.067 N 
HETATM   13  H   UNL     1      41.803 -12.178   7.661  1.00  0.00     0.280 HD
HETATM   14  C   UNL     1      43.170 -12.586   6.173  1.00  0.00     0.235 C 
HETATM   15  C   UNL     1      43.159 -14.098   6.070  1.00  0.00     0.035 C 
BRANCH  12  16
HETATM   16  C   UNL     1      41.863 -10.520   6.442  1.00  0.00     0.277 C 
BRANCH  16  17
HETATM   17  C   UNL     1      41.843  -9.719   7.687  1.00  0.00     0.011 A 
HETATM   18  C   UNL     1      42.868  -9.466   8.590  1.00  0.00     0.035 A 
HETATM   19  C   UNL     1      44.290  -9.899   8.596  1.00  0.00     0.070 C 
HETATM   20  N   UNL     1      42.339  -8.602   9.522  1.00  0.00    -0.278 N 
HETATM   21  C   UNL     1      43.003  -7.929  10.615  1.00  0.00     0.179 C 
HETATM   22  N   UNL     1      41.041  -8.327   9.302  1.00  0.00    -0.185 NA
HETATM   23  C   UNL     1      40.755  -8.961   8.172  1.00  0.00     0.149 A 
ENDBRANCH  16  17
ENDBRANCH  12  16
ENDBRANCH   1   9
BRANCH   1  24
HETATM   24  C   UNL     1      43.323 -15.398   3.031  1.00  0.00     0.082 C 
BRANCH  24  25
HETATM   25  C   UNL     1      43.379 -16.908   3.198  1.00  0.00    -0.034 A 
HETATM   26  C   UNL     1      43.977 -17.588   4.273  1.00  0.00     0.040 A 
HETATM   27 CL   UNL     1      44.693 -16.782   5.615  1.00  0.00    -0.084 Cl
HETATM   28  C   UNL     1      44.057 -18.988   4.282  1.00  0.00     0.024 A 
HETATM   29  C   UNL     1      43.570 -19.735   3.212  1.00  0.00     0.002 A 
HETATM   30  C   UNL     1      42.998 -19.085   2.128  1.00  0.00     0.001 A 
HETATM   31  C   UNL     1      42.904 -17.690   2.121  1.00  0.00     0.009 A 
ENDBRANCH  24  25
ENDBRANCH   1  24
BRANCH   5  32
HETATM   32  C   UNL     1      39.640 -13.907   0.933  1.00  0.00     0.141 C 
BRANCH  32  33
HETATM   33  C   UNL     1      40.217 -14.408  -0.357  1.00  0.00     0.004 A 
HETATM   34  C   UNL     1      39.338 -14.706  -1.548  1.00  0.00     0.007 A 
HETATM   35  C   UNL     1      40.251 -13.512  -1.570  1.00  0.00     0.007 A 
ENDBRANCH  32  33
ENDBRANCH   5  32
TORSDOF 7
ENDMDL
MODEL 6
REMARK VINA RESULT:      -8.4      3.084      7.617
REMARK  7 active torsions:
REMARK  status: ('A' for Active; 'I' for Inactive)
REMARK    1  A    between atoms: C_7  and  C_8 
REMARK    2  A    between atoms: C_8  and  N_9 
REMARK    3  A    between atoms: C_13  and  C_14 
REMARK    4  A    between atoms: C_14  and  C_15 
REMARK    5  A    between atoms: C_15  and  C_16 
REMARK    6  A    between atoms: N_26  and  C_27 
REMARK    7  A    between atoms: C_27  and  C_28 
ROOT
HETATM    1  C   UNL     1      40.734 -12.831   1.369  1.00  0.00     0.123 C 
HETATM    2  N   UNL     1      42.117 -12.724   1.802  1.00  0.00    -0.324 N 
HETATM    3  C   UNL     1      42.329 -11.709   2.708  1.00  0.00     0.326 C 
HETATM    4  O   UNL     1      43.428 -11.345   3.077  1.00  0.00    -0.247 OA
HETATM    5  N   UNL     1      41.120 -11.248   3.112  1.00  0.00    -0.268 N 
HETATM    6  C   UNL     1      40.130 -11.913   2.461  1.00  0.00     0.257 C 
HETATM    7  O   UNL     1      38.932 -11.798   2.689  1.00  0.00    -0.270 OA
HETATM    8  H   UNL     1      42.915 -13.054   1.263  1.00  0.00     0.165 HD
ENDROOT
BRANCH   1   9
HETATM    9  C   UNL     1      40.255 -14.320   1.408  1.00  0.00     0.027 C 
HETATM   10  C   UNL     1      39.695 -14.854   2.734  1.00  0.00     0.035 C 
HETATM   11  C   UNL     1      40.712 -15.293   3.780  1.00  0.00     0.235 C 
HETATM   12  N   UNL     1      41.870 -16.082   3.214  1.00  0.00    -0.067 N 
HETATM   13  H   UNL     1      41.549 -17.055   3.147  1.00  0.00     0.280 HD
HETATM   14  C   UNL     1      42.384 -15.680   1.857  1.00  0.00     0.235 C 
HETATM   15  C   UNL     1      41.264 -15.360   0.887  1.00  0.00     0.035 C 
BRANCH  12  16
HETATM   16  C   UNL     1      43.048 -16.102   4.187  1.00  0.00     0.277 C 
BRANCH  16  17
HETATM   17  C   UNL     1      43.310 -17.410   4.830  1.00  0.00     0.011 A 
HETATM   18  C   UNL     1      43.765 -18.594   4.265  1.00  0.00     0.035 A 
HETATM   19  C   UNL     1      44.140 -18.926   2.866  1.00  0.00     0.070 C 
HETATM   20  N   UNL     1      43.912 -19.474   5.314  1.00  0.00    -0.278 N 
HETATM   21  C   UNL     1      44.466 -20.810   5.307  1.00  0.00     0.179 C 
HETATM   22  N   UNL     1      43.538 -18.948   6.494  1.00  0.00    -0.185 NA
HETATM   23  C   UNL     1      43.220 -17.692   6.211  1.00  0.00     0.149 A 
ENDBRANCH  16  17
ENDBRANCH  12  16
ENDBRANCH   1   9
BRANCH   1  24
HETATM   24  C   UNL     1      40.509 -12.060   0.029  1.00  0.00     0.082 C 
BRANCH  24  25
HETATM   25  C   UNL     1      39.609 -12.613  -1.064  1.00  0.00    -0.034 A 
HETATM   26  C   UNL     1      38.227 -12.383  -1.177  1.00  0.00     0.040 A 
HETATM   27 CL   UNL     1      37.351 -11.368  -0.098  1.00  0.00    -0.084 Cl
HETATM   28  C   UNL     1      37.472 -13.019  -2.172  1.00  0.00     0.024 A 
HETATM   29  C   UNL     1      38.071 -13.915  -3.055  1.00  0.00     0.002 A 
HETATM   30  C   UNL     1      39.430 -14.177  -2.948  1.00  0.00     0.001 A 
HETATM   31  C   UNL     1      40.188 -13.535  -1.965  1.00  0.00     0.009 A 
ENDBRANCH  24  25
ENDBRANCH   1  24
BRANCH   5  32
HETATM   32  C   UNL     1      40.921 -10.214   4.105  1.00  0.00     0.141 C 
BRANCH  32  33
HETATM   33  C   UNL     1      41.119 -10.777   5.480  1.00  0.00     0.004 A 
HETATM   34  C   UNL     1      40.050 -10.660   6.539  1.00  0.00     0.007 A 
HETATM   35  C   UNL     1      40.348 -11.997   5.918  1.00  0.00     0.007 A 
ENDBRANCH  32  33
ENDBRANCH   5  32
TORSDOF 7
ENDMDL
MODEL 7
REMARK VINA RESULT:      -8.4      2.754      7.355
REMARK  7 active torsions:
REMARK  status: ('A' for Active; 'I' for Inactive)
REMARK    1  A    between atoms: C_7  and  C_8 
REMARK    2  A    between atoms: C_8  and  N_9 
REMARK    3  A    between atoms: C_13  and  C_14 
REMARK    4  A    between atoms: C_14  and  C_15 
REMARK    5  A    between atoms: C_15  and  C_16 
REMARK    6  A    between atoms: N_26  and  C_27 
REMARK    7  A    between atoms: C_27  and  C_28 
ROOT
HETATM    1  C   UNL     1      40.665 -12.999   2.934  1.00  0.00     0.123 C 
HETATM    2  N   UNL     1      42.057 -13.224   2.579  1.00  0.00    -0.324 N 
HETATM    3  C   UNL     1      42.924 -12.341   3.181  1.00  0.00     0.326 C 
HETATM    4  O   UNL     1      44.104 -12.249   2.903  1.00  0.00    -0.247 OA
HETATM    5  N   UNL     1      42.236 -11.656   4.127  1.00  0.00    -0.268 N 
HETATM    6  C   UNL     1      40.934 -12.047   4.126  1.00  0.00     0.257 C 
HETATM    7  O   UNL     1      40.088 -11.690   4.935  1.00  0.00    -0.270 OA
HETATM    8  H   UNL     1      42.365 -13.683   1.724  1.00  0.00     0.165 HD
ENDROOT
BRANCH   1   9
HETATM    9  C   UNL     1      39.964 -14.348   3.303  1.00  0.00     0.027 C 
HETATM   10  C   UNL     1      40.569 -15.177   4.446  1.00  0.00     0.035 C 
HETATM   11  C   UNL     1      41.768 -16.050   4.099  1.00  0.00     0.235 C 
HETATM   12  N   UNL     1      41.632 -16.782   2.785  1.00  0.00    -0.067 N 
HETATM   13  H   UNL     1      41.095 -17.634   2.985  1.00  0.00     0.280 HD
HETATM   14  C   UNL     1      40.936 -16.062   1.660  1.00  0.00     0.235 C 
HETATM   15  C   UNL     1      39.706 -15.310   2.130  1.00  0.00     0.035 C 
BRANCH  12  16
HETATM   16  C   UNL     1      42.992 -17.260   2.279  1.00  0.00     0.277 C 
BRANCH  16  17
HETATM   17  C   UNL     1      43.437 -18.568   2.812  1.00  0.00     0.011 A 
HETATM   18  C   UNL     1      43.998 -18.873   4.045  1.00  0.00     0.035 A 
HETATM   19  C   UNL     1      44.320 -18.009   5.211  1.00  0.00     0.070 C 
HETATM   20  N   UNL     1      44.148 -20.242   4.058  1.00  0.00    -0.278 N 
HETATM   21  C   UNL     1      44.576 -21.098   5.142  1.00  0.00     0.179 C 
HETATM   22  N   UNL     1      43.766 -20.820   2.905  1.00  0.00    -0.185 NA
HETATM   23  C   UNL     1      43.295 -19.819   2.173  1.00  0.00     0.149 A 
ENDBRANCH  16  17
ENDBRANCH  12  16
ENDBRANCH   1   9
BRANCH   1  24
HETATM   24  C   UNL     1      39.953 -12.112   1.865  1.00  0.00     0.082 C 
BRANCH  24  25
HETATM   25  C   UNL     1      40.425 -12.075   0.420  1.00  0.00    -0.034 A 
HETATM   26  C   UNL     1      41.132 -11.019  -0.180  1.00  0.00     0.040 A 
HETATM   27 CL   UNL     1      41.627  -9.611   0.678  1.00  0.00    -0.084 Cl
HETATM   28  C   UNL     1      41.437 -11.045  -1.548  1.00  0.00     0.024 A 
HETATM   29  C   UNL     1      41.023 -12.106  -2.349  1.00  0.00     0.002 A 
HETATM   30  C   UNL     1      40.302 -13.149  -1.784  1.00  0.00     0.001 A 
HETATM   31  C   UNL     1      40.007 -13.133  -0.418  1.00  0.00     0.009 A 
ENDBRANCH  24  25
ENDBRANCH   1  24
BRANCH   5  32
HETATM   32  C   UNL     1      42.813 -10.671   5.017  1.00  0.00     0.141 C 
BRANCH  32  33
HETATM   33  C   UNL     1      43.501 -11.352   6.162  1.00  0.00     0.004 A 
HETATM   34  C   UNL     1      45.002 -11.316   6.312  1.00  0.00     0.007 A 
HETATM   35  C   UNL     1      44.135 -10.534   7.259  1.00  0.00     0.007 A 
ENDBRANCH  32  33
ENDBRANCH   5  32
TORSDOF 7
ENDMDL
MODEL 8
REMARK VINA RESULT:      -8.1      3.302      7.373
REMARK  7 active torsions:
REMARK  status: ('A' for Active; 'I' for Inactive)
REMARK    1  A    between atoms: C_7  and  C_8 
REMARK    2  A    between atoms: C_8  and  N_9 
REMARK    3  A    between atoms: C_13  and  C_14 
REMARK    4  A    between atoms: C_14  and  C_15 
REMARK    5  A    between atoms: C_15  and  C_16 
REMARK    6  A    between atoms: N_26  and  C_27 
REMARK    7  A    between atoms: C_27  and  C_28 
ROOT
HETATM    1  C   UNL     1      39.776 -11.595   2.072  1.00  0.00     0.123 C 
HETATM    2  N   UNL     1      40.876 -11.438   1.133  1.00  0.00    -0.324 N 
HETATM    3  C   UNL     1      40.515 -11.675  -0.174  1.00  0.00     0.326 C 
HETATM    4  O   UNL     1      41.306 -11.754  -1.094  1.00  0.00    -0.247 OA
HETATM    5  N   UNL     1      39.163 -11.760  -0.229  1.00  0.00    -0.268 N 
HETATM    6  C   UNL     1      38.641 -11.622   1.019  1.00  0.00     0.257 C 
HETATM    7  O   UNL     1      37.447 -11.546   1.280  1.00  0.00    -0.270 OA
HETATM    8  H   UNL     1      41.859 -11.531   1.379  1.00  0.00     0.165 HD
ENDROOT
BRANCH   1   9
HETATM    9  C   UNL     1      39.729 -10.394   3.073  1.00  0.00     0.027 C 
HETATM   10  C   UNL     1      41.035  -9.626   3.328  1.00  0.00     0.035 C 
HETATM   11  C   UNL     1      42.009 -10.244   4.323  1.00  0.00     0.235 C 
HETATM   12  N   UNL     1      41.348 -10.803   5.560  1.00  0.00    -0.067 N 
HETATM   13  H   UNL     1      41.224 -10.012   6.203  1.00  0.00     0.280 HD
HETATM   14  C   UNL     1      40.004 -11.461   5.390  1.00  0.00     0.235 C 
HETATM   15  C   UNL     1      39.100 -10.693   4.446  1.00  0.00     0.035 C 
BRANCH  12  16
HETATM   16  C   UNL     1      42.273 -11.781   6.282  1.00  0.00     0.277 C 
BRANCH  16  17
HETATM   17  C   UNL     1      43.600 -11.236   6.650  1.00  0.00     0.011 A 
HETATM   18  C   UNL     1      43.914 -10.153   7.461  1.00  0.00     0.035 A 
HETATM   19  C   UNL     1      43.043  -9.215   8.216  1.00  0.00     0.070 C 
HETATM   20  N   UNL     1      45.289 -10.130   7.535  1.00  0.00    -0.278 N 
HETATM   21  C   UNL     1      46.140  -9.282   8.339  1.00  0.00     0.179 C 
HETATM   22  N   UNL     1      45.868 -11.090   6.793  1.00  0.00    -0.185 NA
HETATM   23  C   UNL     1      44.853 -11.785   6.297  1.00  0.00     0.149 A 
ENDBRANCH  16  17
ENDBRANCH  12  16
ENDBRANCH   1   9
BRANCH   1  24
HETATM   24  C   UNL     1      39.777 -13.026   2.697  1.00  0.00     0.082 C 
BRANCH  24  25
HETATM   25  C   UNL     1      40.977 -13.950   2.564  1.00  0.00    -0.034 A 
HETATM   26  C   UNL     1      41.102 -14.996   1.634  1.00  0.00     0.040 A 
HETATM   27 CL   UNL     1      39.907 -15.344   0.444  1.00  0.00    -0.084 Cl
HETATM   28  C   UNL     1      42.211 -15.852   1.659  1.00  0.00     0.024 A 
HETATM   29  C   UNL     1      43.203 -15.701   2.626  1.00  0.00     0.002 A 
HETATM   30  C   UNL     1      43.090 -14.691   3.571  1.00  0.00     0.001 A 
HETATM   31  C   UNL     1      41.991 -13.828   3.541  1.00  0.00     0.009 A 
ENDBRANCH  24  25
ENDBRANCH   1  24
BRANCH   5  32
HETATM   32  C   UNL     1      38.397 -11.949  -1.441  1.00  0.00     0.141 C 
BRANCH  32  33
HETATM   33  C   UNL     1      38.309 -13.408  -1.773  1.00  0.00     0.004 A 
HETATM   34  C   UNL     1      37.654 -13.888  -3.046  1.00  0.00     0.007 A 
HETATM   35  C   UNL     1      39.146 -13.983  -2.887  1.00  0.00     0.007 A 
ENDBRANCH  32  33
ENDBRANCH   5  32
TORSDOF 7
ENDMDL
MODEL 9
REMARK VINA RESULT:      -8.0     15.604     17.839
REMARK  7 active torsions:
REMARK  status: ('A' for Active; 'I' for Inactive)
REMARK    1  A    between atoms: C_7  and  C_8 
REMARK    2  A    between atoms: C_8  and  N_9 
REMARK    3  A    between atoms: C_13  and  C_14 
REMARK    4  A    between atoms: C_14  and  C_15 
REMARK    5  A    between atoms: C_15  and  C_16 
REMARK    6  A    between atoms: N_26  and  C_27 
REMARK    7  A    between atoms: C_27  and  C_28 
ROOT
HETATM    1  C   UNL     1      47.004 -29.050   0.034  1.00  0.00     0.123 C 
HETATM    2  N   UNL     1      46.752 -30.469  -0.160  1.00  0.00    -0.324 N 
HETATM    3  C   UNL     1      46.599 -31.163   1.018  1.00  0.00     0.326 C 
HETATM    4  O   UNL     1      46.539 -32.375   1.091  1.00  0.00    -0.247 OA
HETATM    5  N   UNL     1      46.497 -30.262   2.027  1.00  0.00    -0.268 N 
HETATM    6  C   UNL     1      46.618 -29.001   1.534  1.00  0.00     0.257 C 
HETATM    7  O   UNL     1      46.461 -27.972   2.179  1.00  0.00    -0.270 OA
HETATM    8  H   UNL     1      47.027 -30.993  -0.988  1.00  0.00     0.165 HD
ENDROOT
BRANCH   1   9
HETATM    9  C   UNL     1      46.103 -28.193  -0.915  1.00  0.00     0.027 C 
HETATM   10  C   UNL     1      44.588 -28.448  -0.883  1.00  0.00     0.035 C 
HETATM   11  C   UNL     1      44.076 -29.635  -1.688  1.00  0.00     0.235 C 
HETATM   12  N   UNL     1      44.716 -29.773  -3.049  1.00  0.00    -0.067 N 
HETATM   13  H   UNL     1      44.195 -29.148  -3.677  1.00  0.00     0.280 HD
HETATM   14  C   UNL     1      46.174 -29.418  -3.168  1.00  0.00     0.235 C 
HETATM   15  C   UNL     1      46.528 -28.164  -2.394  1.00  0.00     0.035 C 
BRANCH  12  16
HETATM   16  C   UNL     1      44.517 -31.181  -3.609  1.00  0.00     0.277 C 
BRANCH  16  17
HETATM   17  C   UNL     1      44.769 -31.321  -5.062  1.00  0.00     0.011 A 
HETATM   18  C   UNL     1      45.852 -31.894  -5.717  1.00  0.00     0.035 A 
HETATM   19  C   UNL     1      47.078 -32.548  -5.188  1.00  0.00     0.070 C 
HETATM   20  N   UNL     1      45.548 -31.834  -7.059  1.00  0.00    -0.278 N 
HETATM   21  C   UNL     1      46.273 -32.393  -8.178  1.00  0.00     0.179 C 
HETATM   22  N   UNL     1      44.376 -31.224  -7.302  1.00  0.00    -0.185 NA
HETATM   23  C   UNL     1      43.884 -30.957  -6.100  1.00  0.00     0.149 A 
ENDBRANCH  16  17
ENDBRANCH  12  16
ENDBRANCH   1   9
BRANCH   1  24
HETATM   24  C   UNL     1      48.535 -28.747   0.005  1.00  0.00     0.082 C 
BRANCH  24  25
HETATM   25  C   UNL     1      49.543 -29.791  -0.447  1.00  0.00    -0.034 A 
HETATM   26  C   UNL     1      50.430 -30.486   0.393  1.00  0.00     0.040 A 
HETATM   27 CL   UNL     1      50.455 -30.290   2.103  1.00  0.00    -0.084 Cl
HETATM   28  C   UNL     1      51.388 -31.361  -0.139  1.00  0.00     0.024 A 
HETATM   29  C   UNL     1      51.499 -31.539  -1.516  1.00  0.00     0.002 A 
HETATM   30  C   UNL     1      50.651 -30.846  -2.368  1.00  0.00     0.001 A 
HETATM   31  C   UNL     1      49.687 -29.982  -1.840  1.00  0.00     0.009 A 
ENDBRANCH  24  25
ENDBRANCH   1  24
BRANCH   5  32
HETATM   32  C   UNL     1      46.271 -30.600   3.415  1.00  0.00     0.141 C 
BRANCH  32  33
HETATM   33  C   UNL     1      47.582 -30.791   4.118  1.00  0.00     0.004 A 
HETATM   34  C   UNL     1      47.661 -31.466   5.466  1.00  0.00     0.007 A 
HETATM   35  C   UNL     1      48.181 -32.169   4.242  1.00  0.00     0.007 A 
ENDBRANCH  32  33
ENDBRANCH   5  32
TORSDOF 7
ENDMDL
MODEL 10
REMARK VINA RESULT:      -8.0      3.071      7.591
REMARK  7 active torsions:
REMARK  status: ('A' for Active; 'I' for Inactive)
REMARK    1  A    between atoms: C_7  and  C_8 
REMARK    2  A    between atoms: C_8  and  N_9 
REMARK    3  A    between atoms: C_13  and  C_14 
REMARK    4  A    between atoms: C_14  and  C_15 
REMARK    5  A    between atoms: C_15  and  C_16 
REMARK    6  A    between atoms: N_26  and  C_27 
REMARK    7  A    between atoms: C_27  and  C_28 
ROOT
HETATM    1  C   UNL     1      40.205 -12.910   1.701  1.00  0.00     0.123 C 
HETATM    2  N   UNL     1      39.396 -14.108   1.549  1.00  0.00    -0.324 N 
HETATM    3  C   UNL     1      40.140 -15.245   1.332  1.00  0.00     0.326 C 
HETATM    4  O   UNL     1      39.664 -16.320   1.023  1.00  0.00    -0.247 OA
HETATM    5  N   UNL     1      41.442 -14.945   1.558  1.00  0.00    -0.268 N 
HETATM    6  C   UNL     1      41.565 -13.630   1.880  1.00  0.00     0.257 C 
HETATM    7  O   UNL     1      42.598 -13.085   2.244  1.00  0.00    -0.270 OA
HETATM    8  H   UNL     1      38.425 -14.110   1.245  1.00  0.00     0.165 HD
ENDROOT
BRANCH   1   9
HETATM    9  C   UNL     1      39.727 -12.072   2.932  1.00  0.00     0.027 C 
HETATM   10  C   UNL     1      40.196 -10.613   3.028  1.00  0.00     0.035 C 
HETATM   11  C   UNL     1      41.595 -10.378   3.582  1.00  0.00     0.235 C 
HETATM   12  N   UNL     1      41.930 -11.234   4.780  1.00  0.00    -0.067 N 
HETATM   13  H   UNL     1      41.546 -10.746   5.599  1.00  0.00     0.280 HD
HETATM   14  C   UNL     1      41.393 -12.640   4.799  1.00  0.00     0.235 C 
HETATM   15  C   UNL     1      39.959 -12.717   4.311  1.00  0.00     0.035 C 
BRANCH  12  16
HETATM   16  C   UNL     1      43.440 -11.294   5.006  1.00  0.00     0.277 C 
BRANCH  16  17
HETATM   17  C   UNL     1      43.877 -11.065   6.402  1.00  0.00     0.011 A 
HETATM   18  C   UNL     1      43.260 -10.335   7.410  1.00  0.00     0.035 A 
HETATM   19  C   UNL     1      41.986  -9.570   7.420  1.00  0.00     0.070 C 
HETATM   20  N   UNL     1      44.042 -10.513   8.530  1.00  0.00    -0.278 N 
HETATM   21  C   UNL     1      43.798 -10.071   9.885  1.00  0.00     0.179 C 
HETATM   22  N   UNL     1      45.131 -11.264   8.293  1.00  0.00    -0.185 NA
HETATM   23  C   UNL     1      45.008 -11.635   7.025  1.00  0.00     0.149 A 
ENDBRANCH  16  17
ENDBRANCH  12  16
ENDBRANCH   1   9
BRANCH   1  24
HETATM   24  C   UNL     1      40.332 -12.147   0.344  1.00  0.00     0.082 C 
BRANCH  24  25
HETATM   25  C   UNL     1      39.172 -12.068  -0.635  1.00  0.00    -0.034 A 
HETATM   26  C   UNL     1      39.025 -12.854  -1.791  1.00  0.00     0.040 A 
HETATM   27 CL   UNL     1      40.139 -14.088  -2.237  1.00  0.00    -0.084 Cl
HETATM   28  C   UNL     1      37.963 -12.634  -2.679  1.00  0.00     0.024 A 
HETATM   29  C   UNL     1      37.043 -11.614  -2.448  1.00  0.00     0.002 A 
HETATM   30  C   UNL     1      37.181 -10.809  -1.326  1.00  0.00     0.001 A 
HETATM   31  C   UNL     1      38.231 -11.033  -0.432  1.00  0.00     0.009 A 
ENDBRANCH  24  25
ENDBRANCH   1  24
BRANCH   5  32
HETATM   32  C   UNL     1      42.532 -15.894   1.487  1.00  0.00     0.141 C 
BRANCH  32  33
HETATM   33  C   UNL     1      42.454 -16.856   2.635  1.00  0.00     0.004 A 
HETATM   34  C   UNL     1      43.549 -17.862   2.894  1.00  0.00     0.007 A 
HETATM   35  C   UNL     1      43.369 -16.693   3.823  1.00  0.00     0.007 A 
ENDBRANCH  32  33
ENDBRANCH   5  32
TORSDOF 7
ENDMDL
