MODEL 1
REMARK VINA RESULT:      -9.9      0.000      0.000
REMARK  5 active torsions:
REMARK  status: ('A' for Active; 'I' for Inactive)
REMARK    1  A    between atoms: C_6  and  C_7 
REMARK       I    between atoms: C_7  and  N_8 
REMARK    2  A    between atoms: N_8  and  C_9 
REMARK    3  A    between atoms: C_20  and  C_21 
REMARK    4  A    between atoms: C_22  and  C_23 
REMARK    5  A    between atoms: C_26  and  O_27 
ROOT
HETATM    1  C   UNL     1      42.414 -15.062   6.039  1.00  0.00     0.118 C 
HETATM    2  C   UNL     1      41.802 -13.937   5.173  1.00  0.00     0.202 C 
HETATM    3  N   UNL     1      42.713 -12.815   5.286  1.00  0.00    -0.332 N 
HETATM    4  C   UNL     1      42.716 -11.724   4.458  1.00  0.00     0.257 C 
HETATM    5  O   UNL     1      43.572 -10.845   4.519  1.00  0.00    -0.267 OA
HETATM    6  C   UNL     1      41.632 -11.616   3.445  1.00  0.00     0.059 A 
HETATM    7  C   UNL     1      40.281 -11.901   3.716  1.00  0.00     0.050 A 
HETATM    8  N   UNL     1      39.798 -12.510   4.891  1.00  0.00    -0.324 N 
HETATM    9  C   UNL     1      40.446 -13.437   5.677  1.00  0.00     0.247 C 
HETATM   10  O   UNL     1      39.899 -13.842   6.702  1.00  0.00    -0.271 OA
HETATM   11  C   UNL     1      41.999 -11.078   2.200  1.00  0.00     0.030 A 
HETATM   12  C   UNL     1      41.040 -10.836   1.210  1.00  0.00    -0.035 A 
HETATM   13  C   UNL     1      39.692 -11.038   1.518  1.00  0.00     0.013 A 
HETATM   14  C   UNL     1      39.316 -11.554   2.762  1.00  0.00     0.031 A 
HETATM   15  C   UNL     1      43.581 -12.954   6.428  1.00  0.00     0.129 C 
HETATM   16  C   UNL     1      43.709 -14.454   6.615  1.00  0.00     0.047 C 
HETATM   17  H   UNL     1      38.819 -12.408   5.129  1.00  0.00     0.169 HD
ENDROOT
BRANCH   1  18
HETATM   18  N   UNL     1      42.746 -16.268   5.266  1.00  0.00    -0.350 N 
HETATM   19  C   UNL     1      43.163 -17.426   5.890  1.00  0.00     0.252 C 
HETATM   20  O   UNL     1      43.254 -17.538   7.107  1.00  0.00    -0.268 OA
HETATM   21  H   UNL     1      42.982 -16.149   4.290  1.00  0.00     0.163 HD
BRANCH  19  22
HETATM   22  C   UNL     1      43.492 -18.574   5.004  1.00  0.00     0.035 A 
HETATM   23  C   UNL     1      43.419 -18.468   3.610  1.00  0.00     0.059 A 
HETATM   24  C   UNL     1      43.697 -19.583   2.829  1.00  0.00     0.117 A 
HETATM   25  C   UNL     1      44.041 -20.802   3.404  1.00  0.00     0.042 A 
HETATM   26  F   UNL     1      43.621 -19.484   1.495  1.00  0.00    -0.206 F 
HETATM   27  C   UNL     1      44.102 -20.915   4.792  1.00  0.00     0.004 A 
HETATM   28  C   UNL     1      43.822 -19.804   5.591  1.00  0.00     0.017 A 
ENDBRANCH  19  22
ENDBRANCH   1  18
BRANCH  12  29
HETATM   29  C   UNL     1      41.407 -10.355  -0.127  1.00  0.00     0.012 C 
HETATM   30  C   UNL     1      41.509  -9.047  -0.413  1.00  0.00     0.012 C 
BRANCH  30  31
HETATM   31  C   UNL     1      41.921  -8.514  -1.718  1.00  0.00    -0.036 A 
HETATM   32  C   UNL     1      41.203  -8.894  -2.860  1.00  0.00     0.014 A 
HETATM   33  C   UNL     1      41.526  -8.369  -4.114  1.00  0.00     0.037 A 
HETATM   34  C   UNL     1      42.564  -7.451  -4.222  1.00  0.00     0.065 A 
HETATM   35  C   UNL     1      43.279  -7.051  -3.101  1.00  0.00     0.037 A 
HETATM   36  C   UNL     1      42.956  -7.578  -1.848  1.00  0.00     0.014 A 
BRANCH  34  37
HETATM   37  O   UNL     1      42.909  -6.907  -5.424  1.00  0.00    -0.361 OA
HETATM   38  H   UNL     1      42.254  -7.180  -6.087  1.00  0.00     0.217 HD
ENDBRANCH  34  37
ENDBRANCH  30  31
ENDBRANCH  12  29
TORSDOF 5
ENDMDL
MODEL 2
REMARK VINA RESULT:      -9.8      4.712      8.887
REMARK  5 active torsions:
REMARK  status: ('A' for Active; 'I' for Inactive)
REMARK    1  A    between atoms: C_6  and  C_7 
REMARK       I    between atoms: C_7  and  N_8 
REMARK    2  A    between atoms: N_8  and  C_9 
REMARK    3  A    between atoms: C_20  and  C_21 
REMARK    4  A    between atoms: C_22  and  C_23 
REMARK    5  A    between atoms: C_26  and  O_27 
ROOT
HETATM    1  C   UNL     1      41.307 -13.267   2.765  1.00  0.00     0.118 C 
HETATM    2  C   UNL     1      41.350 -12.055   3.723  1.00  0.00     0.202 C 
HETATM    3  N   UNL     1      39.967 -11.752   4.034  1.00  0.00    -0.332 N 
HETATM    4  C   UNL     1      39.556 -10.951   5.066  1.00  0.00     0.257 C 
HETATM    5  O   UNL     1      38.374 -10.804   5.364  1.00  0.00    -0.267 OA
HETATM    6  C   UNL     1      40.598 -10.238   5.853  1.00  0.00     0.059 A 
HETATM    7  C   UNL     1      41.708  -9.595   5.274  1.00  0.00     0.050 A 
HETATM    8  N   UNL     1      42.096  -9.703   3.924  1.00  0.00    -0.324 N 
HETATM    9  C   UNL     1      41.932 -10.788   3.092  1.00  0.00     0.247 C 
HETATM   10  O   UNL     1      42.291 -10.704   1.918  1.00  0.00    -0.271 OA
HETATM   11  C   UNL     1      40.359 -10.117   7.233  1.00  0.00     0.030 A 
HETATM   12  C   UNL     1      41.221  -9.377   8.049  1.00  0.00    -0.035 A 
HETATM   13  C   UNL     1      42.269  -8.670   7.454  1.00  0.00     0.013 A 
HETATM   14  C   UNL     1      42.502  -8.769   6.078  1.00  0.00     0.031 A 
HETATM   15  C   UNL     1      39.069 -12.346   3.077  1.00  0.00     0.129 C 
HETATM   16  C   UNL     1      39.807 -13.580   2.594  1.00  0.00     0.047 C 
HETATM   17  H   UNL     1      42.706  -8.995   3.532  1.00  0.00     0.169 HD
ENDROOT
BRANCH   1  18
HETATM   18  N   UNL     1      41.992 -14.452   3.303  1.00  0.00    -0.350 N 
HETATM   19  C   UNL     1      42.481 -15.437   2.470  1.00  0.00     0.252 C 
HETATM   20  O   UNL     1      42.409 -15.379   1.248  1.00  0.00    -0.268 OA
HETATM   21  H   UNL     1      41.813 -14.698   4.268  1.00  0.00     0.163 HD
BRANCH  19  22
HETATM   22  C   UNL     1      43.135 -16.598   3.129  1.00  0.00     0.035 A 
HETATM   23  C   UNL     1      43.303 -17.818   2.465  1.00  0.00     0.059 A 
HETATM   24  C   UNL     1      43.883 -18.885   3.141  1.00  0.00     0.117 A 
HETATM   25  C   UNL     1      44.294 -18.766   4.464  1.00  0.00     0.042 A 
HETATM   26  F   UNL     1      44.040 -20.055   2.507  1.00  0.00    -0.206 F 
HETATM   27  C   UNL     1      44.114 -17.557   5.134  1.00  0.00     0.004 A 
HETATM   28  C   UNL     1      43.530 -16.476   4.469  1.00  0.00     0.017 A 
ENDBRANCH  19  22
ENDBRANCH   1  18
BRANCH  12  29
HETATM   29  C   UNL     1      41.042  -9.305   9.504  1.00  0.00     0.012 C 
HETATM   30  C   UNL     1      42.070  -9.093  10.342  1.00  0.00     0.012 C 
BRANCH  30  31
HETATM   31  C   UNL     1      41.939  -8.963  11.799  1.00  0.00    -0.036 A 
HETATM   32  C   UNL     1      42.883  -8.197  12.496  1.00  0.00     0.014 A 
HETATM   33  C   UNL     1      42.766  -8.001  13.875  1.00  0.00     0.037 A 
HETATM   34  C   UNL     1      41.693  -8.565  14.555  1.00  0.00     0.065 A 
HETATM   35  C   UNL     1      40.739  -9.317  13.880  1.00  0.00     0.037 A 
HETATM   36  C   UNL     1      40.859  -9.512  12.502  1.00  0.00     0.014 A 
BRANCH  34  37
HETATM   37  O   UNL     1      41.535  -8.395  15.898  1.00  0.00    -0.361 OA
HETATM   38  H   UNL     1      40.780  -7.804  16.049  1.00  0.00     0.217 HD
ENDBRANCH  34  37
ENDBRANCH  30  31
ENDBRANCH  12  29
TORSDOF 5
ENDMDL
MODEL 3
REMARK VINA RESULT:      -9.6      3.084      9.895
REMARK  5 active torsions:
REMARK  status: ('A' for Active; 'I' for Inactive)
REMARK    1  A    between atoms: C_6  and  C_7 
REMARK       I    between atoms: C_7  and  N_8 
REMARK    2  A    between atoms: N_8  and  C_9 
REMARK    3  A    between atoms: C_20  and  C_21 
REMARK    4  A    between atoms: C_22  and  C_23 
REMARK    5  A    between atoms: C_26  and  O_27 
ROOT
HETATM    1  C   UNL     1      40.317  -8.823   3.673  1.00  0.00     0.118 C 
HETATM    2  C   UNL     1      40.981  -9.908   4.552  1.00  0.00     0.202 C 
HETATM    3  N   UNL     1      39.896 -10.740   5.033  1.00  0.00    -0.332 N 
HETATM    4  C   UNL     1      40.052 -11.979   5.597  1.00  0.00     0.257 C 
HETATM    5  O   UNL     1      39.103 -12.699   5.893  1.00  0.00    -0.267 OA
HETATM    6  C   UNL     1      41.437 -12.459   5.850  1.00  0.00     0.059 A 
HETATM    7  C   UNL     1      42.457 -11.651   6.387  1.00  0.00     0.050 A 
HETATM    8  N   UNL     1      42.378 -10.256   6.566  1.00  0.00    -0.324 N 
HETATM    9  C   UNL     1      41.677  -9.354   5.798  1.00  0.00     0.247 C 
HETATM   10  O   UNL     1      41.677  -8.165   6.117  1.00  0.00    -0.271 OA
HETATM   11  C   UNL     1      41.665 -13.831   5.645  1.00  0.00     0.030 A 
HETATM   12  C   UNL     1      42.902 -14.408   5.951  1.00  0.00    -0.035 A 
HETATM   13  C   UNL     1      43.877 -13.619   6.566  1.00  0.00     0.013 A 
HETATM   14  C   UNL     1      43.652 -12.257   6.792  1.00  0.00     0.031 A 
HETATM   15  C   UNL     1      38.624 -10.074   4.908  1.00  0.00     0.129 C 
HETATM   16  C   UNL     1      38.810  -9.143   3.725  1.00  0.00     0.047 C 
HETATM   17  H   UNL     1      43.015  -9.809   7.215  1.00  0.00     0.169 HD
ENDROOT
BRANCH   1  18
HETATM   18  N   UNL     1      40.772  -8.856   2.275  1.00  0.00    -0.350 N 
HETATM   19  C   UNL     1      40.638  -7.757   1.452  1.00  0.00     0.252 C 
HETATM   20  O   UNL     1      40.170  -6.689   1.829  1.00  0.00    -0.268 OA
HETATM   21  H   UNL     1      40.874  -9.762   1.837  1.00  0.00     0.163 HD
BRANCH  19  22
HETATM   22  C   UNL     1      41.114  -7.916   0.052  1.00  0.00     0.035 A 
HETATM   23  C   UNL     1      40.854  -9.079  -0.682  1.00  0.00     0.059 A 
HETATM   24  C   UNL     1      41.357  -9.193  -1.973  1.00  0.00     0.117 A 
HETATM   25  C   UNL     1      42.116  -8.179  -2.546  1.00  0.00     0.042 A 
HETATM   26  F   UNL     1      41.113 -10.308  -2.675  1.00  0.00    -0.206 F 
HETATM   27  C   UNL     1      42.389  -7.026  -1.813  1.00  0.00     0.004 A 
HETATM   28  C   UNL     1      41.893  -6.896  -0.513  1.00  0.00     0.017 A 
ENDBRANCH  19  22
ENDBRANCH   1  18
BRANCH  12  29
HETATM   29  C   UNL     1      43.193 -15.818   5.668  1.00  0.00     0.012 C 
HETATM   30  C   UNL     1      43.127 -16.326   4.426  1.00  0.00     0.012 C 
BRANCH  30  31
HETATM   31  C   UNL     1      43.455 -17.715   4.081  1.00  0.00    -0.036 A 
HETATM   32  C   UNL     1      43.878 -18.582   5.098  1.00  0.00     0.014 A 
HETATM   33  C   UNL     1      44.148 -19.926   4.824  1.00  0.00     0.037 A 
HETATM   34  C   UNL     1      43.984 -20.404   3.530  1.00  0.00     0.065 A 
HETATM   35  C   UNL     1      43.554 -19.565   2.510  1.00  0.00     0.037 A 
HETATM   36  C   UNL     1      43.285 -18.222   2.786  1.00  0.00     0.014 A 
BRANCH  34  37
HETATM   37  O   UNL     1      44.229 -21.709   3.218  1.00  0.00    -0.361 OA
HETATM   38  H   UNL     1      45.187 -21.828   3.116  1.00  0.00     0.217 HD
ENDBRANCH  34  37
ENDBRANCH  30  31
ENDBRANCH  12  29
TORSDOF 5
ENDMDL
MODEL 4
REMARK VINA RESULT:      -9.2     11.381     14.356
REMARK  5 active torsions:
REMARK  status: ('A' for Active; 'I' for Inactive)
REMARK    1  A    between atoms: C_6  and  C_7 
REMARK       I    between atoms: C_7  and  N_8 
REMARK    2  A    between atoms: N_8  and  C_9 
REMARK    3  A    between atoms: C_20  and  C_21 
REMARK    4  A    between atoms: C_22  and  C_23 
REMARK    5  A    between atoms: C_26  and  O_27 
ROOT
HETATM    1  C   UNL     1      40.403  -5.417  17.258  1.00  0.00     0.118 C 
HETATM    2  C   UNL     1      40.440  -5.953  15.808  1.00  0.00     0.202 C 
HETATM    3  N   UNL     1      41.039  -4.898  15.015  1.00  0.00    -0.332 N 
HETATM    4  C   UNL     1      41.530  -5.056  13.747  1.00  0.00     0.257 C 
HETATM    5  O   UNL     1      42.128  -4.166  13.149  1.00  0.00    -0.267 OA
HETATM    6  C   UNL     1      41.328  -6.371  13.080  1.00  0.00     0.059 A 
HETATM    7  C   UNL     1      40.119  -7.090  13.127  1.00  0.00     0.050 A 
HETATM    8  N   UNL     1      39.022  -6.782  13.956  1.00  0.00    -0.324 N 
HETATM    9  C   UNL     1      39.056  -6.205  15.206  1.00  0.00     0.247 C 
HETATM   10  O   UNL     1      37.997  -5.961  15.784  1.00  0.00    -0.271 OA
HETATM   11  C   UNL     1      42.382  -6.824  12.269  1.00  0.00     0.030 A 
HETATM   12  C   UNL     1      42.256  -7.996  11.514  1.00  0.00    -0.035 A 
HETATM   13  C   UNL     1      41.023  -8.654  11.497  1.00  0.00     0.013 A 
HETATM   14  C   UNL     1      39.962  -8.198  12.287  1.00  0.00     0.031 A 
HETATM   15  C   UNL     1      40.996  -3.632  15.703  1.00  0.00     0.129 C 
HETATM   16  C   UNL     1      41.023  -4.009  17.172  1.00  0.00     0.047 C 
HETATM   17  H   UNL     1      38.110  -7.153  13.719  1.00  0.00     0.169 HD
ENDROOT
BRANCH   1  18
HETATM   18  N   UNL     1      41.185  -6.237  18.195  1.00  0.00    -0.350 N 
HETATM   19  C   UNL     1      40.651  -7.370  18.773  1.00  0.00     0.252 C 
HETATM   20  O   UNL     1      39.524  -7.782  18.526  1.00  0.00    -0.268 OA
HETATM   21  H   UNL     1      41.970  -5.799  18.658  1.00  0.00     0.163 HD
BRANCH  19  22
HETATM   22  C   UNL     1      41.528  -8.106  19.722  1.00  0.00     0.035 A 
HETATM   23  C   UNL     1      41.098  -9.273  20.363  1.00  0.00     0.059 A 
HETATM   24  C   UNL     1      41.942  -9.899  21.273  1.00  0.00     0.117 A 
HETATM   25  C   UNL     1      43.202  -9.386  21.563  1.00  0.00     0.042 A 
HETATM   26  F   UNL     1      41.528 -11.013  21.891  1.00  0.00    -0.206 F 
HETATM   27  C   UNL     1      43.628  -8.216  20.937  1.00  0.00     0.004 A 
HETATM   28  C   UNL     1      42.791  -7.573  20.022  1.00  0.00     0.017 A 
ENDBRANCH  19  22
ENDBRANCH   1  18
BRANCH  12  29
HETATM   29  C   UNL     1      43.370  -8.535  10.726  1.00  0.00     0.012 C 
HETATM   30  C   UNL     1      43.173  -9.252   9.608  1.00  0.00     0.012 C 
BRANCH  30  31
HETATM   31  C   UNL     1      44.251  -9.772   8.756  1.00  0.00    -0.036 A 
HETATM   32  C   UNL     1      45.457  -9.062   8.685  1.00  0.00     0.014 A 
HETATM   33  C   UNL     1      46.528  -9.549   7.931  1.00  0.00     0.037 A 
HETATM   34  C   UNL     1      46.394 -10.756   7.255  1.00  0.00     0.065 A 
HETATM   35  C   UNL     1      45.211 -11.481   7.323  1.00  0.00     0.037 A 
HETATM   36  C   UNL     1      44.141 -10.992   8.077  1.00  0.00     0.014 A 
BRANCH  34  37
HETATM   37  O   UNL     1      47.414 -11.272   6.513  1.00  0.00    -0.361 OA
HETATM   38  H   UNL     1      48.222 -11.267   7.051  1.00  0.00     0.217 HD
ENDBRANCH  34  37
ENDBRANCH  30  31
ENDBRANCH  12  29
TORSDOF 5
ENDMDL
MODEL 5
REMARK VINA RESULT:      -9.0      5.875     10.529
REMARK  5 active torsions:
REMARK  status: ('A' for Active; 'I' for Inactive)
REMARK    1  A    between atoms: C_6  and  C_7 
REMARK       I    between atoms: C_7  and  N_8 
REMARK    2  A    between atoms: N_8  and  C_9 
REMARK    3  A    between atoms: C_20  and  C_21 
REMARK    4  A    between atoms: C_22  and  C_23 
REMARK    5  A    between atoms: C_26  and  O_27 
ROOT
HETATM    1  C   UNL     1      40.783  -7.328   8.381  1.00  0.00     0.118 C 
HETATM    2  C   UNL     1      40.592  -8.643   7.589  1.00  0.00     0.202 C 
HETATM    3  N   UNL     1      41.490  -8.552   6.455  1.00  0.00    -0.332 N 
HETATM    4  C   UNL     1      41.859  -9.607   5.664  1.00  0.00     0.257 C 
HETATM    5  O   UNL     1      42.706  -9.511   4.780  1.00  0.00    -0.267 OA
HETATM    6  C   UNL     1      41.201 -10.920   5.902  1.00  0.00     0.059 A 
HETATM    7  C   UNL     1      39.821 -11.068   6.137  1.00  0.00     0.050 A 
HETATM    8  N   UNL     1      38.920 -10.013   6.381  1.00  0.00    -0.324 N 
HETATM    9  C   UNL     1      39.187  -8.815   7.007  1.00  0.00     0.247 C 
HETATM   10  O   UNL     1      38.293  -7.975   7.103  1.00  0.00    -0.271 OA
HETATM   11  C   UNL     1      42.012 -12.057   5.751  1.00  0.00     0.030 A 
HETATM   12  C   UNL     1      41.472 -13.344   5.849  1.00  0.00    -0.035 A 
HETATM   13  C   UNL     1      40.089 -13.482   5.995  1.00  0.00     0.013 A 
HETATM   14  C   UNL     1      39.271 -12.355   6.125  1.00  0.00     0.031 A 
HETATM   15  C   UNL     1      41.901  -7.191   6.216  1.00  0.00     0.129 C 
HETATM   16  C   UNL     1      41.843  -6.542   7.585  1.00  0.00     0.047 C 
HETATM   17  H   UNL     1      37.929 -10.173   6.245  1.00  0.00     0.169 HD
ENDROOT
BRANCH   1  18
HETATM   18  N   UNL     1      41.268  -7.547   9.751  1.00  0.00    -0.350 N 
HETATM   19  C   UNL     1      40.390  -7.735  10.800  1.00  0.00     0.252 C 
HETATM   20  O   UNL     1      39.174  -7.766  10.659  1.00  0.00    -0.268 OA
HETATM   21  H   UNL     1      42.204  -7.236   9.973  1.00  0.00     0.163 HD
BRANCH  19  22
HETATM   22  C   UNL     1      40.996  -7.924  12.145  1.00  0.00     0.035 A 
HETATM   23  C   UNL     1      42.237  -7.367  12.474  1.00  0.00     0.059 A 
HETATM   24  C   UNL     1      42.777  -7.609  13.732  1.00  0.00     0.117 A 
HETATM   25  C   UNL     1      42.113  -8.396  14.666  1.00  0.00     0.042 A 
HETATM   26  F   UNL     1      43.968  -7.080  14.046  1.00  0.00    -0.206 F 
HETATM   27  C   UNL     1      40.883  -8.964  14.336  1.00  0.00     0.004 A 
HETATM   28  C   UNL     1      40.328  -8.734  13.075  1.00  0.00     0.017 A 
ENDBRANCH  19  22
ENDBRANCH   1  18
BRANCH  12  29
HETATM   29  C   UNL     1      42.311 -14.546   5.781  1.00  0.00     0.012 C 
HETATM   30  C   UNL     1      41.858 -15.706   5.279  1.00  0.00     0.012 C 
BRANCH  30  31
HETATM   31  C   UNL     1      42.669 -16.923   5.141  1.00  0.00    -0.036 A 
HETATM   32  C   UNL     1      42.885 -17.721   6.272  1.00  0.00     0.014 A 
HETATM   33  C   UNL     1      43.605 -18.916   6.176  1.00  0.00     0.037 A 
HETATM   34  C   UNL     1      44.099 -19.316   4.940  1.00  0.00     0.065 A 
HETATM   35  C   UNL     1      43.885 -18.545   3.804  1.00  0.00     0.037 A 
HETATM   36  C   UNL     1      43.166 -17.351   3.903  1.00  0.00     0.014 A 
BRANCH  34  37
HETATM   37  O   UNL     1      44.800 -20.477   4.797  1.00  0.00    -0.361 OA
HETATM   38  H   UNL     1      44.174 -21.219   4.793  1.00  0.00     0.217 HD
ENDBRANCH  34  37
ENDBRANCH  30  31
ENDBRANCH  12  29
TORSDOF 5
ENDMDL
MODEL 6
REMARK VINA RESULT:      -8.6      4.523     11.032
REMARK  5 active torsions:
REMARK  status: ('A' for Active; 'I' for Inactive)
REMARK    1  A    between atoms: C_6  and  C_7 
REMARK       I    between atoms: C_7  and  N_8 
REMARK    2  A    between atoms: N_8  and  C_9 
REMARK    3  A    between atoms: C_20  and  C_21 
REMARK    4  A    between atoms: C_22  and  C_23 
REMARK    5  A    between atoms: C_26  and  O_27 
ROOT
HETATM    1  C   UNL     1      40.451  -8.476  -2.238  1.00  0.00     0.118 C 
HETATM    2  C   UNL     1      40.097  -9.695  -1.354  1.00  0.00     0.202 C 
HETATM    3  N   UNL     1      40.345 -10.862  -2.176  1.00  0.00    -0.332 N 
HETATM    4  C   UNL     1      40.447 -12.143  -1.704  1.00  0.00     0.257 C 
HETATM    5  O   UNL     1      40.766 -13.091  -2.417  1.00  0.00    -0.267 OA
HETATM    6  C   UNL     1      40.160 -12.380  -0.263  1.00  0.00     0.059 A 
HETATM    7  C   UNL     1      39.082 -11.792   0.423  1.00  0.00     0.050 A 
HETATM    8  N   UNL     1      38.262 -10.764  -0.081  1.00  0.00    -0.324 N 
HETATM    9  C   UNL     1      38.620  -9.761  -0.955  1.00  0.00     0.247 C 
HETATM   10  O   UNL     1      37.767  -8.960  -1.334  1.00  0.00    -0.271 OA
HETATM   11  C   UNL     1      40.957 -13.344   0.377  1.00  0.00     0.030 A 
HETATM   12  C   UNL     1      40.706 -13.719   1.701  1.00  0.00    -0.035 A 
HETATM   13  C   UNL     1      39.582 -13.197   2.346  1.00  0.00     0.013 A 
HETATM   14  C   UNL     1      38.772 -12.252   1.708  1.00  0.00     0.031 A 
HETATM   15  C   UNL     1      40.408 -10.518  -3.575  1.00  0.00     0.129 C 
HETATM   16  C   UNL     1      40.902  -9.084  -3.580  1.00  0.00     0.047 C 
HETATM   17  H   UNL     1      37.353 -10.611   0.340  1.00  0.00     0.169 HD
ENDROOT
BRANCH   1  18
HETATM   18  N   UNL     1      41.540  -7.660  -1.683  1.00  0.00    -0.350 N 
HETATM   19  C   UNL     1      41.279  -6.509  -0.967  1.00  0.00     0.252 C 
HETATM   20  O   UNL     1      40.146  -6.114  -0.721  1.00  0.00    -0.268 OA
HETATM   21  H   UNL     1      42.457  -7.756  -2.099  1.00  0.00     0.163 HD
BRANCH  19  22
HETATM   22  C   UNL     1      42.461  -5.753  -0.475  1.00  0.00     0.035 A 
HETATM   23  C   UNL     1      42.493  -5.200   0.810  1.00  0.00     0.059 A 
HETATM   24  C   UNL     1      43.606  -4.467   1.206  1.00  0.00     0.117 A 
HETATM   25  C   UNL     1      44.684  -4.268   0.350  1.00  0.00     0.042 A 
HETATM   26  F   UNL     1      43.635  -3.932   2.435  1.00  0.00    -0.206 F 
HETATM   27  C   UNL     1      44.649  -4.805  -0.936  1.00  0.00     0.004 A 
HETATM   28  C   UNL     1      43.537  -5.542  -1.350  1.00  0.00     0.017 A 
ENDBRANCH  19  22
ENDBRANCH   1  18
BRANCH  12  29
HETATM   29  C   UNL     1      41.574 -14.660   2.420  1.00  0.00     0.012 C 
HETATM   30  C   UNL     1      41.561 -15.979   2.169  1.00  0.00     0.012 C 
BRANCH  30  31
HETATM   31  C   UNL     1      42.441 -16.956   2.823  1.00  0.00    -0.036 A 
HETATM   32  C   UNL     1      42.805 -16.748   4.160  1.00  0.00     0.014 A 
HETATM   33  C   UNL     1      43.597 -17.680   4.837  1.00  0.00     0.037 A 
HETATM   34  C   UNL     1      44.016 -18.828   4.176  1.00  0.00     0.065 A 
HETATM   35  C   UNL     1      43.655 -19.059   2.854  1.00  0.00     0.037 A 
HETATM   36  C   UNL     1      42.865 -18.126   2.179  1.00  0.00     0.014 A 
BRANCH  34  37
HETATM   37  O   UNL     1      44.783 -19.767   4.799  1.00  0.00    -0.361 OA
HETATM   38  H   UNL     1      44.329 -20.624   4.744  1.00  0.00     0.217 HD
ENDBRANCH  34  37
ENDBRANCH  30  31
ENDBRANCH  12  29
TORSDOF 5
ENDMDL
MODEL 7
REMARK VINA RESULT:      -8.6     16.777     20.206
REMARK  5 active torsions:
REMARK  status: ('A' for Active; 'I' for Inactive)
REMARK    1  A    between atoms: C_6  and  C_7 
REMARK       I    between atoms: C_7  and  N_8 
REMARK    2  A    between atoms: N_8  and  C_9 
REMARK    3  A    between atoms: C_20  and  C_21 
REMARK    4  A    between atoms: C_22  and  C_23 
REMARK    5  A    between atoms: C_26  and  O_27 
ROOT
HETATM    1  C   UNL     1      48.023 -30.397   0.085  1.00  0.00     0.118 C 
HETATM    2  C   UNL     1      46.499 -30.191   0.240  1.00  0.00     0.202 C 
HETATM    3  N   UNL     1      45.885 -31.056  -0.749  1.00  0.00    -0.332 N 
HETATM    4  C   UNL     1      44.562 -31.409  -0.764  1.00  0.00     0.257 C 
HETATM    5  O   UNL     1      44.101 -32.229  -1.554  1.00  0.00    -0.267 OA
HETATM    6  C   UNL     1      43.658 -30.767   0.228  1.00  0.00     0.059 A 
HETATM    7  C   UNL     1      43.695 -29.396   0.543  1.00  0.00     0.050 A 
HETATM    8  N   UNL     1      44.698 -28.495   0.134  1.00  0.00    -0.324 N 
HETATM    9  C   UNL     1      46.029 -28.771  -0.086  1.00  0.00     0.247 C 
HETATM   10  O   UNL     1      46.771 -27.874  -0.485  1.00  0.00    -0.271 OA
HETATM   11  C   UNL     1      42.646 -31.582   0.763  1.00  0.00     0.030 A 
HETATM   12  C   UNL     1      41.678 -31.054   1.625  1.00  0.00    -0.035 A 
HETATM   13  C   UNL     1      41.670 -29.677   1.862  1.00  0.00     0.013 A 
HETATM   14  C   UNL     1      42.661 -28.855   1.317  1.00  0.00     0.031 A 
HETATM   15  C   UNL     1      46.829 -31.450  -1.764  1.00  0.00     0.129 C 
HETATM   16  C   UNL     1      48.168 -31.427  -1.052  1.00  0.00     0.047 C 
HETATM   17  H   UNL     1      44.500 -27.502   0.148  1.00  0.00     0.169 HD
ENDROOT
BRANCH   1  18
HETATM   18  N   UNL     1      48.660 -30.922   1.302  1.00  0.00    -0.350 N 
HETATM   19  C   UNL     1      49.984 -30.660   1.588  1.00  0.00     0.252 C 
HETATM   20  O   UNL     1      50.698 -29.959   0.880  1.00  0.00    -0.268 OA
HETATM   21  H   UNL     1      48.234 -31.727   1.743  1.00  0.00     0.163 HD
BRANCH  19  22
HETATM   22  C   UNL     1      50.525 -31.264   2.835  1.00  0.00     0.035 A 
HETATM   23  C   UNL     1      50.912 -30.473   3.923  1.00  0.00     0.059 A 
HETATM   24  C   UNL     1      51.450 -31.085   5.049  1.00  0.00     0.117 A 
HETATM   25  C   UNL     1      51.616 -32.465   5.113  1.00  0.00     0.042 A 
HETATM   26  F   UNL     1      51.826 -30.329   6.089  1.00  0.00    -0.206 F 
HETATM   27  C   UNL     1      51.244 -33.253   4.026  1.00  0.00     0.004 A 
HETATM   28  C   UNL     1      50.704 -32.654   2.886  1.00  0.00     0.017 A 
ENDBRANCH  19  22
ENDBRANCH   1  18
BRANCH  12  29
HETATM   29  C   UNL     1      40.662 -31.899   2.264  1.00  0.00     0.012 C 
HETATM   30  C   UNL     1      40.367 -31.798   3.570  1.00  0.00     0.012 C 
BRANCH  30  31
HETATM   31  C   UNL     1      39.327 -32.583   4.247  1.00  0.00    -0.036 A 
HETATM   32  C   UNL     1      39.330 -32.640   5.648  1.00  0.00     0.014 A 
HETATM   33  C   UNL     1      38.328 -33.330   6.336  1.00  0.00     0.037 A 
HETATM   34  C   UNL     1      37.314 -33.955   5.619  1.00  0.00     0.065 A 
HETATM   35  C   UNL     1      37.286 -33.899   4.231  1.00  0.00     0.037 A 
HETATM   36  C   UNL     1      38.289 -33.210   3.545  1.00  0.00     0.014 A 
BRANCH  34  37
HETATM   37  O   UNL     1      36.312 -34.632   6.248  1.00  0.00    -0.361 OA
HETATM   38  H   UNL     1      35.689 -33.988   6.622  1.00  0.00     0.217 HD
ENDBRANCH  34  37
ENDBRANCH  30  31
ENDBRANCH  12  29
TORSDOF 5
ENDMDL
MODEL 8
REMARK VINA RESULT:      -8.5      4.530      7.025
REMARK  5 active torsions:
REMARK  status: ('A' for Active; 'I' for Inactive)
REMARK    1  A    between atoms: C_6  and  C_7 
REMARK       I    between atoms: C_7  and  N_8 
REMARK    2  A    between atoms: N_8  and  C_9 
REMARK    3  A    between atoms: C_20  and  C_21 
REMARK    4  A    between atoms: C_22  and  C_23 
REMARK    5  A    between atoms: C_26  and  O_27 
ROOT
HETATM    1  C   UNL     1      38.326 -11.921  -0.101  1.00  0.00     0.118 C 
HETATM    2  C   UNL     1      39.096 -10.795  -0.829  1.00  0.00     0.202 C 
HETATM    3  N   UNL     1      38.558  -9.553  -0.310  1.00  0.00    -0.332 N 
HETATM    4  C   UNL     1      39.147  -8.325  -0.457  1.00  0.00     0.257 C 
HETATM    5  O   UNL     1      38.717  -7.312   0.089  1.00  0.00    -0.267 OA
HETATM    6  C   UNL     1      40.360  -8.231  -1.312  1.00  0.00     0.059 A 
HETATM    7  C   UNL     1      40.489  -8.880  -2.554  1.00  0.00     0.050 A 
HETATM    8  N   UNL     1      39.602  -9.850  -3.061  1.00  0.00    -0.324 N 
HETATM    9  C   UNL     1      38.862 -10.762  -2.341  1.00  0.00     0.247 C 
HETATM   10  O   UNL     1      38.096 -11.518  -2.937  1.00  0.00    -0.271 OA
HETATM   11  C   UNL     1      41.356  -7.338  -0.881  1.00  0.00     0.030 A 
HETATM   12  C   UNL     1      42.491  -7.095  -1.662  1.00  0.00    -0.035 A 
HETATM   13  C   UNL     1      42.569  -7.674  -2.931  1.00  0.00     0.013 A 
HETATM   14  C   UNL     1      41.572  -8.548  -3.377  1.00  0.00     0.031 A 
HETATM   15  C   UNL     1      37.282  -9.757   0.328  1.00  0.00     0.129 C 
HETATM   16  C   UNL     1      37.346 -11.185   0.834  1.00  0.00     0.047 C 
HETATM   17  H   UNL     1      39.600 -10.040  -4.056  1.00  0.00     0.169 HD
ENDROOT
BRANCH   1  18
HETATM   18  N   UNL     1      39.199 -12.793   0.698  1.00  0.00    -0.350 N 
HETATM   19  C   UNL     1      39.647 -14.002   0.206  1.00  0.00     0.252 C 
HETATM   20  O   UNL     1      39.382 -14.409  -0.919  1.00  0.00    -0.268 OA
HETATM   21  H   UNL     1      39.197 -12.666   1.701  1.00  0.00     0.163 HD
BRANCH  19  22
HETATM   22  C   UNL     1      40.506 -14.808   1.113  1.00  0.00     0.035 A 
HETATM   23  C   UNL     1      41.862 -15.021   0.841  1.00  0.00     0.059 A 
HETATM   24  C   UNL     1      42.610 -15.817   1.700  1.00  0.00     0.117 A 
HETATM   25  C   UNL     1      42.037 -16.411   2.820  1.00  0.00     0.042 A 
HETATM   26  F   UNL     1      43.908 -16.025   1.437  1.00  0.00    -0.206 F 
HETATM   27  C   UNL     1      40.684 -16.213   3.086  1.00  0.00     0.004 A 
HETATM   28  C   UNL     1      39.917 -15.418   2.231  1.00  0.00     0.017 A 
ENDBRANCH  19  22
ENDBRANCH   1  18
BRANCH  12  29
HETATM   29  C   UNL     1      43.584  -6.234  -1.196  1.00  0.00     0.012 C 
HETATM   30  C   UNL     1      43.358  -5.081  -0.546  1.00  0.00     0.012 C 
BRANCH  30  31
HETATM   31  C   UNL     1      44.414  -4.208  -0.016  1.00  0.00    -0.036 A 
HETATM   32  C   UNL     1      44.716  -4.269   1.352  1.00  0.00     0.014 A 
HETATM   33  C   UNL     1      45.750  -3.497   1.889  1.00  0.00     0.037 A 
HETATM   34  C   UNL     1      46.489  -2.669   1.052  1.00  0.00     0.065 A 
HETATM   35  C   UNL     1      46.213  -2.604  -0.308  1.00  0.00     0.037 A 
HETATM   36  C   UNL     1      45.179  -3.376  -0.843  1.00  0.00     0.014 A 
BRANCH  34  37
HETATM   37  O   UNL     1      47.510  -1.903   1.531  1.00  0.00    -0.361 OA
HETATM   38  H   UNL     1      47.999  -1.533   0.778  1.00  0.00     0.217 HD
ENDBRANCH  34  37
ENDBRANCH  30  31
ENDBRANCH  12  29
TORSDOF 5
ENDMDL
MODEL 9
REMARK VINA RESULT:      -8.5     11.595     16.248
REMARK  5 active torsions:
REMARK  status: ('A' for Active; 'I' for Inactive)
REMARK    1  A    between atoms: C_6  and  C_7 
REMARK       I    between atoms: C_7  and  N_8 
REMARK    2  A    between atoms: N_8  and  C_9 
REMARK    3  A    between atoms: C_20  and  C_21 
REMARK    4  A    between atoms: C_22  and  C_23 
REMARK    5  A    between atoms: C_26  and  O_27 
ROOT
HETATM    1  C   UNL     1      40.324  -6.030  10.827  1.00  0.00     0.118 C 
HETATM    2  C   UNL     1      40.298  -5.569  12.303  1.00  0.00     0.202 C 
HETATM    3  N   UNL     1      38.977  -5.905  12.795  1.00  0.00    -0.332 N 
HETATM    4  C   UNL     1      38.622  -5.945  14.118  1.00  0.00     0.257 C 
HETATM    5  O   UNL     1      37.523  -6.338  14.500  1.00  0.00    -0.267 OA
HETATM    6  C   UNL     1      39.623  -5.492  15.121  1.00  0.00     0.059 A 
HETATM    7  C   UNL     1      40.422  -4.345  14.962  1.00  0.00     0.050 A 
HETATM    8  N   UNL     1      40.538  -3.594  13.776  1.00  0.00    -0.324 N 
HETATM    9  C   UNL     1      40.447  -4.057  12.482  1.00  0.00     0.247 C 
HETATM   10  O   UNL     1      40.529  -3.257  11.550  1.00  0.00    -0.271 OA
HETATM   11  C   UNL     1      39.652  -6.204  16.332  1.00  0.00     0.030 A 
HETATM   12  C   UNL     1      40.482  -5.800  17.384  1.00  0.00    -0.035 A 
HETATM   13  C   UNL     1      41.204  -4.612  17.251  1.00  0.00     0.013 A 
HETATM   14  C   UNL     1      41.165  -3.886  16.056  1.00  0.00     0.031 A 
HETATM   15  C   UNL     1      38.052  -6.131  11.713  1.00  0.00     0.129 C 
HETATM   16  C   UNL     1      38.926  -6.630  10.579  1.00  0.00     0.047 C 
HETATM   17  H   UNL     1      40.885  -2.643  13.830  1.00  0.00     0.169 HD
ENDROOT
BRANCH   1  18
HETATM   18  N   UNL     1      41.346  -7.052  10.561  1.00  0.00    -0.350 N 
HETATM   19  C   UNL     1      42.622  -6.703  10.166  1.00  0.00     0.252 C 
HETATM   20  O   UNL     1      42.993  -5.542  10.045  1.00  0.00    -0.268 OA
HETATM   21  H   UNL     1      41.029  -7.989  10.349  1.00  0.00     0.163 HD
BRANCH  19  22
HETATM   22  C   UNL     1      43.563  -7.824   9.903  1.00  0.00     0.035 A 
HETATM   23  C   UNL     1      43.706  -8.887  10.802  1.00  0.00     0.059 A 
HETATM   24  C   UNL     1      44.631  -9.888  10.529  1.00  0.00     0.117 A 
HETATM   25  C   UNL     1      45.419  -9.851   9.384  1.00  0.00     0.042 A 
HETATM   26  F   UNL     1      44.771 -10.903  11.392  1.00  0.00    -0.206 F 
HETATM   27  C   UNL     1      45.290  -8.787   8.494  1.00  0.00     0.004 A 
HETATM   28  C   UNL     1      44.367  -7.771   8.755  1.00  0.00     0.017 A 
ENDBRANCH  19  22
ENDBRANCH   1  18
BRANCH  12  29
HETATM   29  C   UNL     1      40.594  -6.574  18.626  1.00  0.00     0.012 C 
HETATM   30  C   UNL     1      41.120  -7.810  18.653  1.00  0.00     0.012 C 
BRANCH  30  31
HETATM   31  C   UNL     1      41.302  -8.606  19.873  1.00  0.00    -0.036 A 
HETATM   32  C   UNL     1      40.199  -9.289  20.404  1.00  0.00     0.014 A 
HETATM   33  C   UNL     1      40.338 -10.103  21.532  1.00  0.00     0.037 A 
HETATM   34  C   UNL     1      41.589 -10.241  22.122  1.00  0.00     0.065 A 
HETATM   35  C   UNL     1      42.697  -9.583  21.604  1.00  0.00     0.037 A 
HETATM   36  C   UNL     1      42.555  -8.770  20.478  1.00  0.00     0.014 A 
BRANCH  34  37
HETATM   37  O   UNL     1      41.773 -11.030  23.219  1.00  0.00    -0.361 OA
HETATM   38  H   UNL     1      42.536 -11.609  23.060  1.00  0.00     0.217 HD
ENDBRANCH  34  37
ENDBRANCH  30  31
ENDBRANCH  12  29
TORSDOF 5
ENDMDL
MODEL 10
REMARK VINA RESULT:      -8.4      5.536     11.119
REMARK  5 active torsions:
REMARK  status: ('A' for Active; 'I' for Inactive)
REMARK    1  A    between atoms: C_6  and  C_7 
REMARK       I    between atoms: C_7  and  N_8 
REMARK    2  A    between atoms: N_8  and  C_9 
REMARK    3  A    between atoms: C_20  and  C_21 
REMARK    4  A    between atoms: C_22  and  C_23 
REMARK    5  A    between atoms: C_26  and  O_27 
ROOT
HETATM    1  C   UNL     1      37.757  -8.339  -1.307  1.00  0.00     0.118 C 
HETATM    2  C   UNL     1      38.339  -9.768  -1.412  1.00  0.00     0.202 C 
HETATM    3  N   UNL     1      39.772  -9.620  -1.261  1.00  0.00    -0.332 N 
HETATM    4  C   UNL     1      40.641 -10.645  -0.996  1.00  0.00     0.257 C 
HETATM    5  O   UNL     1      41.834 -10.465  -0.768  1.00  0.00    -0.267 OA
HETATM    6  C   UNL     1      40.099 -12.031  -0.984  1.00  0.00     0.059 A 
HETATM    7  C   UNL     1      39.191 -12.521  -1.941  1.00  0.00     0.050 A 
HETATM    8  N   UNL     1      38.521 -11.738  -2.901  1.00  0.00    -0.324 N 
HETATM    9  C   UNL     1      38.120 -10.426  -2.777  1.00  0.00     0.247 C 
HETATM   10  O   UNL     1      37.581  -9.869  -3.733  1.00  0.00    -0.271 OA
HETATM   11  C   UNL     1      40.643 -12.901  -0.024  1.00  0.00     0.030 A 
HETATM   12  C   UNL     1      40.281 -14.252   0.009  1.00  0.00    -0.035 A 
HETATM   13  C   UNL     1      39.449 -14.749  -0.998  1.00  0.00     0.013 A 
HETATM   14  C   UNL     1      38.919 -13.894  -1.969  1.00  0.00     0.031 A 
HETATM   15  C   UNL     1      40.189  -8.259  -1.491  1.00  0.00     0.129 C 
HETATM   16  C   UNL     1      38.984  -7.431  -1.090  1.00  0.00     0.047 C 
HETATM   17  H   UNL     1      38.131 -12.192  -3.718  1.00  0.00     0.169 HD
ENDROOT
BRANCH   1  18
HETATM   18  N   UNL     1      36.827  -8.178  -0.180  1.00  0.00    -0.350 N 
HETATM   19  C   UNL     1      35.464  -8.308  -0.352  1.00  0.00     0.252 C 
HETATM   20  O   UNL     1      34.947  -8.594  -1.425  1.00  0.00    -0.268 OA
HETATM   21  H   UNL     1      37.151  -7.657   0.624  1.00  0.00     0.163 HD
BRANCH  19  22
HETATM   22  C   UNL     1      34.621  -8.101   0.856  1.00  0.00     0.035 A 
HETATM   23  C   UNL     1      33.328  -8.628   0.946  1.00  0.00     0.059 A 
HETATM   24  C   UNL     1      32.567  -8.370   2.080  1.00  0.00     0.117 A 
HETATM   25  C   UNL     1      33.062  -7.594   3.122  1.00  0.00     0.042 A 
HETATM   26  F   UNL     1      31.327  -8.870   2.164  1.00  0.00    -0.206 F 
HETATM   27  C   UNL     1      34.344  -7.055   3.030  1.00  0.00     0.004 A 
HETATM   28  C   UNL     1      35.121  -7.303   1.896  1.00  0.00     0.017 A 
ENDBRANCH  19  22
ENDBRANCH   1  18
BRANCH  12  29
HETATM   29  C   UNL     1      40.769 -15.162   1.052  1.00  0.00     0.012 C 
HETATM   30  C   UNL     1      42.079 -15.331   1.298  1.00  0.00     0.012 C 
BRANCH  30  31
HETATM   31  C   UNL     1      42.618 -16.189   2.360  1.00  0.00    -0.036 A 
HETATM   32  C   UNL     1      42.991 -17.502   2.044  1.00  0.00     0.014 A 
HETATM   33  C   UNL     1      43.559 -18.336   3.011  1.00  0.00     0.037 A 
HETATM   34  C   UNL     1      43.766 -17.848   4.296  1.00  0.00     0.065 A 
HETATM   35  C   UNL     1      43.415 -16.545   4.627  1.00  0.00     0.037 A 
HETATM   36  C   UNL     1      42.846 -15.714   3.659  1.00  0.00     0.014 A 
BRANCH  34  37
HETATM   37  O   UNL     1      44.323 -18.623   5.269  1.00  0.00    -0.361 OA
HETATM   38  H   UNL     1      44.878 -18.060   5.833  1.00  0.00     0.217 HD
ENDBRANCH  34  37
ENDBRANCH  30  31
ENDBRANCH  12  29
TORSDOF 5
ENDMDL
