MODEL 1
REMARK VINA RESULT:      -8.7      0.000      0.000
REMARK  10 active torsions:
REMARK  status: ('A' for Active; 'I' for Inactive)
REMARK    1  A    between atoms: C_4  and  C_5 
REMARK    2  A    between atoms: C_7  and  C_8 
REMARK    3  A    between atoms: C_8  and  C_9 
REMARK       I    between atoms: C_9  and  N_10 
REMARK    4  A    between atoms: N_10  and  C_11 
REMARK    5  A    between atoms: C_11  and  C_12 
REMARK    6  A    between atoms: C_12  and  N_13 
REMARK    7  A    between atoms: C_24  and  C_25 
REMARK    8  A    between atoms: C_25  and  O_26 
REMARK    9  A    between atoms: O_26  and  C_27 
REMARK   10  A    between atoms: C_27  and  C_28 
ROOT
HETATM    1  C   UNL     1      42.037 -13.053   4.817  1.00  0.00     0.166 C 
HETATM    2  N   UNL     1      41.240 -12.079   5.590  1.00  0.00    -0.318 N 
HETATM    3  C   UNL     1      41.405 -10.887   6.061  1.00  0.00     0.011 C 
HETATM    4  C   UNL     1      39.875 -12.667   6.029  1.00  0.00     0.170 C 
HETATM    5  S   UNL     1      38.781 -11.412   6.501  1.00  0.00    -0.086 SA
HETATM    6  C   UNL     1      40.198 -10.293   6.760  1.00  0.00     0.135 C 
HETATM    7  N   UNL     1      39.654 -13.924   6.205  1.00  0.00    -0.229 NA
HETATM    8  C   UNL     1      40.760 -14.756   6.147  1.00  0.00     0.048 C 
HETATM    9  C   UNL     1      40.580 -16.049   6.908  1.00  0.00     0.071 C 
HETATM   10  C   UNL     1      41.918 -14.362   5.571  1.00  0.00     0.069 C 
ENDROOT
BRANCH   3  11
HETATM   11  C   UNL     1      42.714 -10.157   5.982  1.00  0.00     0.156 C 
BRANCH  11  12
HETATM   12  C   UNL     1      43.730 -10.632   7.003  1.00  0.00     0.223 C 
HETATM   13  N   UNL     1      43.413 -10.340   8.304  1.00  0.00    -0.359 N 
HETATM   14  H   UNL     1      42.605  -9.743   8.467  1.00  0.00     0.162 HD
HETATM   15  O   UNL     1      44.753 -11.221   6.668  1.00  0.00    -0.273 OA
BRANCH  13  16
HETATM   16  C   UNL     1      44.294 -10.470   9.470  1.00  0.00     0.150 C 
BRANCH  16  17
HETATM   17  C   UNL     1      43.656 -10.488  10.876  1.00  0.00     0.253 C 
BRANCH  17  18
HETATM   18  N   UNL     1      42.767  -9.290  11.150  1.00  0.00    -0.077 N 
HETATM   19  H   UNL     1      42.861  -8.668  10.324  1.00  0.00     0.279 HD
HETATM   20  C   UNL     1      41.308  -9.622  11.303  1.00  0.00     0.269 C 
HETATM   21  C   UNL     1      43.259  -8.501  12.334  1.00  0.00     0.269 C 
ENDBRANCH  17  18
ENDBRANCH  16  17
ENDBRANCH  13  16
ENDBRANCH  11  12
ENDBRANCH   3  11
BRANCH   1  22
HETATM   22  C   UNL     1      41.599 -13.163   3.327  1.00  0.00    -0.024 A 
HETATM   23  C   UNL     1      41.027 -14.390   2.888  1.00  0.00     0.017 A 
HETATM   24  C   UNL     1      40.586 -14.611   1.575  1.00  0.00    -0.061 A 
HETATM   25  C   UNL     1      39.958 -15.920   1.187  1.00  0.00     0.048 C 
HETATM   26  C   UNL     1      40.690 -13.582   0.653  1.00  0.00     0.007 A 
HETATM   27  C   UNL     1      41.287 -12.384   1.024  1.00  0.00     0.008 A 
HETATM   28  C   UNL     1      41.780 -12.165   2.330  1.00  0.00    -0.053 A 
HETATM   29  C   UNL     1      42.475 -10.846   2.519  1.00  0.00     0.049 C 
ENDBRANCH   1  22
BRANCH  10  30
HETATM   30  C   UNL     1      43.198 -15.068   5.756  1.00  0.00     0.294 C 
HETATM   31  O   UNL     1      43.967 -14.720   6.639  1.00  0.00    -0.259 OA
BRANCH  30  32
HETATM   32  O   UNL     1      43.373 -16.015   4.820  1.00  0.00    -0.313 OA
BRANCH  32  33
HETATM   33  C   UNL     1      44.061 -17.207   5.239  1.00  0.00     0.217 C 
BRANCH  33  34
HETATM   34  C   UNL     1      43.857 -18.313   4.236  1.00  0.00    -0.034 A 
HETATM   35  C   UNL     1      44.176 -19.642   4.552  1.00  0.00     0.009 A 
HETATM   36  C   UNL     1      43.956 -20.666   3.629  1.00  0.00     0.001 A 
HETATM   37  C   UNL     1      43.402 -20.375   2.384  1.00  0.00     0.000 A 
HETATM   38  C   UNL     1      43.073 -19.061   2.060  1.00  0.00     0.001 A 
HETATM   39  C   UNL     1      43.301 -18.034   2.978  1.00  0.00     0.009 A 
ENDBRANCH  33  34
ENDBRANCH  32  33
ENDBRANCH  30  32
ENDBRANCH  10  30
TORSDOF 10
ENDMDL
MODEL 2
REMARK VINA RESULT:      -8.4      3.114      9.738
REMARK  10 active torsions:
REMARK  status: ('A' for Active; 'I' for Inactive)
REMARK    1  A    between atoms: C_4  and  C_5 
REMARK    2  A    between atoms: C_7  and  C_8 
REMARK    3  A    between atoms: C_8  and  C_9 
REMARK       I    between atoms: C_9  and  N_10 
REMARK    4  A    between atoms: N_10  and  C_11 
REMARK    5  A    between atoms: C_11  and  C_12 
REMARK    6  A    between atoms: C_12  and  N_13 
REMARK    7  A    between atoms: C_24  and  C_25 
REMARK    8  A    between atoms: C_25  and  O_26 
REMARK    9  A    between atoms: O_26  and  C_27 
REMARK   10  A    between atoms: C_27  and  C_28 
ROOT
HETATM    1  C   UNL     1      41.563  -9.306   9.110  1.00  0.00     0.166 C 
HETATM    2  N   UNL     1      41.220  -8.974   7.713  1.00  0.00    -0.318 N 
HETATM    3  C   UNL     1      40.486  -9.477   6.776  1.00  0.00     0.011 C 
HETATM    4  C   UNL     1      42.009  -7.742   7.200  1.00  0.00     0.170 C 
HETATM    5  S   UNL     1      41.278  -7.084   5.778  1.00  0.00    -0.086 SA
HETATM    6  C   UNL     1      40.432  -8.675   5.491  1.00  0.00     0.135 C 
HETATM    7  N   UNL     1      43.160  -7.383   7.655  1.00  0.00    -0.229 NA
HETATM    8  C   UNL     1      43.771  -8.257   8.540  1.00  0.00     0.048 C 
HETATM    9  C   UNL     1      45.275  -8.117   8.580  1.00  0.00     0.071 C 
HETATM   10  C   UNL     1      43.074  -9.218   9.187  1.00  0.00     0.069 C 
ENDROOT
BRANCH   3  11
HETATM   11  C   UNL     1      39.780 -10.795   6.917  1.00  0.00     0.156 C 
BRANCH  11  12
HETATM   12  C   UNL     1      40.355 -11.883   6.032  1.00  0.00     0.223 C 
HETATM   13  N   UNL     1      41.624 -12.281   6.365  1.00  0.00    -0.359 N 
HETATM   14  H   UNL     1      42.109 -11.747   7.084  1.00  0.00     0.162 HD
HETATM   15  O   UNL     1      39.721 -12.351   5.091  1.00  0.00    -0.273 OA
BRANCH  13  16
HETATM   16  C   UNL     1      42.510 -13.137   5.569  1.00  0.00     0.150 C 
BRANCH  16  17
HETATM   17  C   UNL     1      42.355 -14.669   5.689  1.00  0.00     0.253 C 
BRANCH  17  18
HETATM   18  N   UNL     1      40.970 -15.165   5.322  1.00  0.00    -0.077 N 
HETATM   19  H   UNL     1      40.428 -14.324   5.042  1.00  0.00     0.279 HD
HETATM   20  C   UNL     1      40.940 -16.127   4.167  1.00  0.00     0.269 C 
HETATM   21  C   UNL     1      40.262 -15.747   6.516  1.00  0.00     0.269 C 
ENDBRANCH  17  18
ENDBRANCH  16  17
ENDBRANCH  13  16
ENDBRANCH  11  12
ENDBRANCH   3  11
BRANCH   1  22
HETATM   22  C   UNL     1      40.844  -8.402  10.154  1.00  0.00    -0.024 A 
HETATM   23  C   UNL     1      41.344  -7.085  10.353  1.00  0.00     0.017 A 
HETATM   24  C   UNL     1      40.779  -6.173  11.257  1.00  0.00    -0.061 A 
HETATM   25  C   UNL     1      41.336  -4.783  11.392  1.00  0.00     0.048 C 
HETATM   26  C   UNL     1      39.664  -6.556  11.985  1.00  0.00     0.007 A 
HETATM   27  C   UNL     1      39.173  -7.849  11.859  1.00  0.00     0.008 A 
HETATM   28  C   UNL     1      39.762  -8.794  10.989  1.00  0.00    -0.053 A 
HETATM   29  C   UNL     1      39.151 -10.166  11.055  1.00  0.00     0.049 C 
ENDBRANCH   1  22
BRANCH  10  30
HETATM   30  C   UNL     1      43.708 -10.353   9.879  1.00  0.00     0.294 C 
HETATM   31  O   UNL     1      43.843 -11.423   9.306  1.00  0.00    -0.259 OA
BRANCH  30  32
HETATM   32  O   UNL     1      44.008 -10.043  11.152  1.00  0.00    -0.313 OA
BRANCH  32  33
HETATM   33  C   UNL     1      43.047 -10.433  12.148  1.00  0.00     0.217 C 
BRANCH  33  34
HETATM   34  C   UNL     1      42.733  -9.274  13.059  1.00  0.00    -0.034 A 
HETATM   35  C   UNL     1      41.711  -9.364  14.016  1.00  0.00     0.009 A 
HETATM   36  C   UNL     1      41.446  -8.298  14.877  1.00  0.00     0.001 A 
HETATM   37  C   UNL     1      42.208  -7.134  14.800  1.00  0.00     0.000 A 
HETATM   38  C   UNL     1      43.230  -7.033  13.860  1.00  0.00     0.001 A 
HETATM   39  C   UNL     1      43.491  -8.095  12.991  1.00  0.00     0.009 A 
ENDBRANCH  33  34
ENDBRANCH  32  33
ENDBRANCH  30  32
ENDBRANCH  10  30
TORSDOF 10
ENDMDL
MODEL 3
REMARK VINA RESULT:      -7.8      2.695      6.049
REMARK  10 active torsions:
REMARK  status: ('A' for Active; 'I' for Inactive)
REMARK    1  A    between atoms: C_4  and  C_5 
REMARK    2  A    between atoms: C_7  and  C_8 
REMARK    3  A    between atoms: C_8  and  C_9 
REMARK       I    between atoms: C_9  and  N_10 
REMARK    4  A    between atoms: N_10  and  C_11 
REMARK    5  A    between atoms: C_11  and  C_12 
REMARK    6  A    between atoms: C_12  and  N_13 
REMARK    7  A    between atoms: C_24  and  C_25 
REMARK    8  A    between atoms: C_25  and  O_26 
REMARK    9  A    between atoms: O_26  and  C_27 
REMARK   10  A    between atoms: C_27  and  C_28 
ROOT
HETATM    1  C   UNL     1      42.321 -11.702   5.689  1.00  0.00     0.166 C 
HETATM    2  N   UNL     1      42.022 -10.654   6.686  1.00  0.00    -0.318 N 
HETATM    3  C   UNL     1      41.163  -9.698   6.822  1.00  0.00     0.011 C 
HETATM    4  C   UNL     1      43.060 -10.638   7.837  1.00  0.00     0.170 C 
HETATM    5  S   UNL     1      42.459  -9.764   9.203  1.00  0.00    -0.086 SA
HETATM    6  C   UNL     1      41.259  -8.919   8.119  1.00  0.00     0.135 C 
HETATM    7  N   UNL     1      44.275 -11.048   7.717  1.00  0.00    -0.229 NA
HETATM    8  C   UNL     1      44.694 -11.366   6.435  1.00  0.00     0.048 C 
HETATM    9  C   UNL     1      46.189 -11.264   6.249  1.00  0.00     0.071 C 
HETATM   10  C   UNL     1      43.813 -11.608   5.438  1.00  0.00     0.069 C 
ENDROOT
BRANCH   3  11
HETATM   11  C   UNL     1      40.176  -9.336   5.751  1.00  0.00     0.156 C 
BRANCH  11  12
HETATM   12  C   UNL     1      40.829  -8.922   4.446  1.00  0.00     0.223 C 
HETATM   13  N   UNL     1      40.354  -9.572   3.337  1.00  0.00    -0.359 N 
HETATM   14  H   UNL     1      39.705 -10.342   3.487  1.00  0.00     0.162 HD
HETATM   15  O   UNL     1      41.717  -8.075   4.410  1.00  0.00    -0.273 OA
BRANCH  13  16
HETATM   16  C   UNL     1      40.938  -9.548   1.991  1.00  0.00     0.150 C 
BRANCH  16  17
HETATM   17  C   UNL     1      40.642 -10.727   1.039  1.00  0.00     0.253 C 
BRANCH  17  18
HETATM   18  N   UNL     1      41.484 -10.709  -0.222  1.00  0.00    -0.077 N 
HETATM   19  H   UNL     1      42.443 -10.979   0.069  1.00  0.00     0.279 HD
HETATM   20  C   UNL     1      41.040 -11.682  -1.279  1.00  0.00     0.269 C 
HETATM   21  C   UNL     1      41.589  -9.319  -0.791  1.00  0.00     0.269 C 
ENDBRANCH  17  18
ENDBRANCH  16  17
ENDBRANCH  13  16
ENDBRANCH  11  12
ENDBRANCH   3  11
BRANCH   1  22
HETATM   22  C   UNL     1      41.862 -13.123   6.130  1.00  0.00    -0.024 A 
HETATM   23  C   UNL     1      42.863 -14.056   6.522  1.00  0.00     0.017 A 
HETATM   24  C   UNL     1      42.578 -15.361   6.947  1.00  0.00    -0.061 A 
HETATM   25  C   UNL     1      43.682 -16.285   7.380  1.00  0.00     0.048 C 
HETATM   26  C   UNL     1      41.256 -15.770   7.012  1.00  0.00     0.007 A 
HETATM   27  C   UNL     1      40.249 -14.909   6.593  1.00  0.00     0.008 A 
HETATM   28  C   UNL     1      40.526 -13.608   6.115  1.00  0.00    -0.053 A 
HETATM   29  C   UNL     1      39.321 -12.858   5.620  1.00  0.00     0.049 C 
ENDBRANCH   1  22
BRANCH  10  30
HETATM   30  C   UNL     1      44.186 -11.638   4.014  1.00  0.00     0.294 C 
HETATM   31  O   UNL     1      45.291 -11.253   3.662  1.00  0.00    -0.259 OA
BRANCH  30  32
HETATM   32  O   UNL     1      43.163 -12.053   3.249  1.00  0.00    -0.313 OA
BRANCH  32  33
HETATM   33  C   UNL     1      43.429 -13.164   2.375  1.00  0.00     0.217 C 
BRANCH  33  34
HETATM   34  C   UNL     1      42.502 -14.310   2.684  1.00  0.00    -0.034 A 
HETATM   35  C   UNL     1      42.996 -15.523   3.187  1.00  0.00     0.009 A 
HETATM   36  C   UNL     1      42.128 -16.571   3.499  1.00  0.00     0.001 A 
HETATM   37  C   UNL     1      40.755 -16.414   3.326  1.00  0.00     0.000 A 
HETATM   38  C   UNL     1      40.249 -15.213   2.834  1.00  0.00     0.001 A 
HETATM   39  C   UNL     1      41.117 -14.167   2.512  1.00  0.00     0.009 A 
ENDBRANCH  33  34
ENDBRANCH  32  33
ENDBRANCH  30  32
ENDBRANCH  10  30
TORSDOF 10
ENDMDL
MODEL 4
REMARK VINA RESULT:      -7.8      6.540      9.342
REMARK  10 active torsions:
REMARK  status: ('A' for Active; 'I' for Inactive)
REMARK    1  A    between atoms: C_4  and  C_5 
REMARK    2  A    between atoms: C_7  and  C_8 
REMARK    3  A    between atoms: C_8  and  C_9 
REMARK       I    between atoms: C_9  and  N_10 
REMARK    4  A    between atoms: N_10  and  C_11 
REMARK    5  A    between atoms: C_11  and  C_12 
REMARK    6  A    between atoms: C_12  and  N_13 
REMARK    7  A    between atoms: C_24  and  C_25 
REMARK    8  A    between atoms: C_25  and  O_26 
REMARK    9  A    between atoms: O_26  and  C_27 
REMARK   10  A    between atoms: C_27  and  C_28 
ROOT
HETATM    1  C   UNL     1      41.354  -7.325  11.858  1.00  0.00     0.166 C 
HETATM    2  N   UNL     1      40.213  -6.501  12.305  1.00  0.00    -0.318 N 
HETATM    3  C   UNL     1      40.045  -5.370  12.907  1.00  0.00     0.011 C 
HETATM    4  C   UNL     1      38.857  -7.213  12.068  1.00  0.00     0.170 C 
HETATM    5  S   UNL     1      37.544  -6.089  12.144  1.00  0.00    -0.086 SA
HETATM    6  C   UNL     1      38.603  -4.934  13.079  1.00  0.00     0.135 C 
HETATM    7  N   UNL     1      38.713  -8.492  12.020  1.00  0.00    -0.229 NA
HETATM    8  C   UNL     1      39.823  -9.249  12.362  1.00  0.00     0.048 C 
HETATM    9  C   UNL     1      39.477 -10.634  12.855  1.00  0.00     0.071 C 
HETATM   10  C   UNL     1      41.068  -8.723  12.369  1.00  0.00     0.069 C 
ENDROOT
BRANCH   3  11
HETATM   11  C   UNL     1      41.186  -4.564  13.457  1.00  0.00     0.156 C 
BRANCH  11  12
HETATM   12  C   UNL     1      41.444  -4.815  14.930  1.00  0.00     0.223 C 
HETATM   13  N   UNL     1      41.974  -6.045  15.217  1.00  0.00    -0.359 N 
HETATM   14  H   UNL     1      42.040  -6.717  14.455  1.00  0.00     0.162 HD
HETATM   15  O   UNL     1      41.183  -3.971  15.782  1.00  0.00    -0.273 OA
BRANCH  13  16
HETATM   16  C   UNL     1      42.117  -6.648  16.547  1.00  0.00     0.150 C 
BRANCH  16  17
HETATM   17  C   UNL     1      41.066  -7.683  17.003  1.00  0.00     0.253 C 
BRANCH  17  18
HETATM   18  N   UNL     1      41.290  -8.189  18.415  1.00  0.00    -0.077 N 
HETATM   19  H   UNL     1      41.632  -9.165  18.320  1.00  0.00     0.279 HD
HETATM   20  C   UNL     1      42.324  -7.422  19.192  1.00  0.00     0.269 C 
HETATM   21  C   UNL     1      39.997  -8.264  19.182  1.00  0.00     0.269 C 
ENDBRANCH  17  18
ENDBRANCH  16  17
ENDBRANCH  13  16
ENDBRANCH  11  12
ENDBRANCH   3  11
BRANCH   1  22
HETATM   22  C   UNL     1      41.588  -7.271  10.320  1.00  0.00    -0.024 A 
HETATM   23  C   UNL     1      41.179  -8.392   9.543  1.00  0.00     0.017 A 
HETATM   24  C   UNL     1      41.328  -8.461   8.150  1.00  0.00    -0.061 A 
HETATM   25  C   UNL     1      40.842  -9.661   7.386  1.00  0.00     0.048 C 
HETATM   26  C   UNL     1      41.882  -7.382   7.482  1.00  0.00     0.007 A 
HETATM   27  C   UNL     1      42.340  -6.288   8.205  1.00  0.00     0.008 A 
HETATM   28  C   UNL     1      42.242  -6.225   9.614  1.00  0.00    -0.053 A 
HETATM   29  C   UNL     1      42.874  -5.007  10.227  1.00  0.00     0.049 C 
ENDBRANCH   1  22
BRANCH  10  30
HETATM   30  C   UNL     1      42.221  -9.374  13.015  1.00  0.00     0.294 C 
HETATM   31  O   UNL     1      42.411  -9.236  14.213  1.00  0.00    -0.259 OA
BRANCH  30  32
HETATM   32  O   UNL     1      42.984 -10.019  12.117  1.00  0.00    -0.313 OA
BRANCH  32  33
HETATM   33  C   UNL     1      44.172  -9.335  11.680  1.00  0.00     0.217 C 
BRANCH  33  34
HETATM   34  C   UNL     1      44.431  -9.609  10.222  1.00  0.00    -0.034 A 
HETATM   35  C   UNL     1      45.217  -8.738   9.452  1.00  0.00     0.009 A 
HETATM   36  C   UNL     1      45.479  -9.014   8.109  1.00  0.00     0.001 A 
HETATM   37  C   UNL     1      44.969 -10.170   7.522  1.00  0.00     0.000 A 
HETATM   38  C   UNL     1      44.194 -11.048   8.276  1.00  0.00     0.001 A 
HETATM   39  C   UNL     1      43.923 -10.769   9.618  1.00  0.00     0.009 A 
ENDBRANCH  33  34
ENDBRANCH  32  33
ENDBRANCH  30  32
ENDBRANCH  10  30
TORSDOF 10
ENDMDL
MODEL 5
REMARK VINA RESULT:      -7.7      2.958      9.913
REMARK  10 active torsions:
REMARK  status: ('A' for Active; 'I' for Inactive)
REMARK    1  A    between atoms: C_4  and  C_5 
REMARK    2  A    between atoms: C_7  and  C_8 
REMARK    3  A    between atoms: C_8  and  C_9 
REMARK       I    between atoms: C_9  and  N_10 
REMARK    4  A    between atoms: N_10  and  C_11 
REMARK    5  A    between atoms: C_11  and  C_12 
REMARK    6  A    between atoms: C_12  and  N_13 
REMARK    7  A    between atoms: C_24  and  C_25 
REMARK    8  A    between atoms: C_25  and  O_26 
REMARK    9  A    between atoms: O_26  and  C_27 
REMARK   10  A    between atoms: C_27  and  C_28 
ROOT
HETATM    1  C   UNL     1      41.938  -8.756   8.591  1.00  0.00     0.166 C 
HETATM    2  N   UNL     1      41.223  -9.681   7.689  1.00  0.00    -0.318 N 
HETATM    3  C   UNL     1      41.537 -10.533   6.769  1.00  0.00     0.011 C 
HETATM    4  C   UNL     1      39.685  -9.540   7.816  1.00  0.00     0.170 C 
HETATM    5  S   UNL     1      38.878 -10.912   7.138  1.00  0.00    -0.086 SA
HETATM    6  C   UNL     1      40.374 -11.298   6.169  1.00  0.00     0.135 C 
HETATM    7  N   UNL     1      39.089  -8.462   8.193  1.00  0.00    -0.229 NA
HETATM    8  C   UNL     1      39.884  -7.336   8.332  1.00  0.00     0.048 C 
HETATM    9  C   UNL     1      39.121  -6.041   8.190  1.00  0.00     0.071 C 
HETATM   10  C   UNL     1      41.228  -7.424   8.449  1.00  0.00     0.069 C 
ENDROOT
BRANCH   3  11
HETATM   11  C   UNL     1      42.944 -10.715   6.277  1.00  0.00     0.156 C 
BRANCH  11  12
HETATM   12  C   UNL     1      43.627 -11.940   6.852  1.00  0.00     0.223 C 
HETATM   13  N   UNL     1      43.468 -13.084   6.112  1.00  0.00    -0.359 N 
HETATM   14  H   UNL     1      42.826 -13.046   5.323  1.00  0.00     0.162 HD
HETATM   15  O   UNL     1      44.261 -11.892   7.902  1.00  0.00    -0.273 OA
BRANCH  13  16
HETATM   16  C   UNL     1      43.817 -14.448   6.524  1.00  0.00     0.150 C 
BRANCH  16  17
HETATM   17  C   UNL     1      42.854 -15.597   6.153  1.00  0.00     0.253 C 
BRANCH  17  18
HETATM   18  N   UNL     1      41.518 -15.116   5.622  1.00  0.00    -0.077 N 
HETATM   19  H   UNL     1      41.535 -14.080   5.695  1.00  0.00     0.279 HD
HETATM   20  C   UNL     1      41.260 -15.463   4.181  1.00  0.00     0.269 C 
HETATM   21  C   UNL     1      40.381 -15.583   6.492  1.00  0.00     0.269 C 
ENDBRANCH  17  18
ENDBRANCH  16  17
ENDBRANCH  13  16
ENDBRANCH  11  12
ENDBRANCH   3  11
BRANCH   1  22
HETATM   22  C   UNL     1      42.007  -9.259  10.063  1.00  0.00    -0.024 A 
HETATM   23  C   UNL     1      40.781  -9.486  10.748  1.00  0.00     0.017 A 
HETATM   24  C   UNL     1      40.710  -9.946  12.071  1.00  0.00    -0.061 A 
HETATM   25  C   UNL     1      39.380 -10.198  12.725  1.00  0.00     0.048 C 
HETATM   26  C   UNL     1      41.887 -10.215  12.750  1.00  0.00     0.007 A 
HETATM   27  C   UNL     1      43.107  -9.961  12.137  1.00  0.00     0.008 A 
HETATM   28  C   UNL     1      43.193  -9.451  10.822  1.00  0.00    -0.053 A 
HETATM   29  C   UNL     1      44.593  -9.152  10.362  1.00  0.00     0.049 C 
ENDBRANCH   1  22
BRANCH  10  30
HETATM   30  C   UNL     1      42.134  -6.274   8.284  1.00  0.00     0.294 C 
HETATM   31  O   UNL     1      42.299  -5.777   7.181  1.00  0.00    -0.259 OA
BRANCH  30  32
HETATM   32  O   UNL     1      42.738  -5.959   9.441  1.00  0.00    -0.313 OA
BRANCH  32  33
HETATM   33  C   UNL     1      42.069  -4.991  10.268  1.00  0.00     0.217 C 
BRANCH  33  34
HETATM   34  C   UNL     1      41.608  -5.626  11.554  1.00  0.00    -0.034 A 
HETATM   35  C   UNL     1      40.243  -5.821  11.815  1.00  0.00     0.009 A 
HETATM   36  C   UNL     1      39.825  -6.438  12.995  1.00  0.00     0.001 A 
HETATM   37  C   UNL     1      40.765  -6.878  13.923  1.00  0.00     0.000 A 
HETATM   38  C   UNL     1      42.124  -6.698  13.675  1.00  0.00     0.001 A 
HETATM   39  C   UNL     1      42.544  -6.072  12.499  1.00  0.00     0.009 A 
ENDBRANCH  33  34
ENDBRANCH  32  33
ENDBRANCH  30  32
ENDBRANCH  10  30
TORSDOF 10
ENDMDL
MODEL 6
REMARK VINA RESULT:      -7.6      4.544      6.644
REMARK  10 active torsions:
REMARK  status: ('A' for Active; 'I' for Inactive)
REMARK    1  A    between atoms: C_4  and  C_5 
REMARK    2  A    between atoms: C_7  and  C_8 
REMARK    3  A    between atoms: C_8  and  C_9 
REMARK       I    between atoms: C_9  and  N_10 
REMARK    4  A    between atoms: N_10  and  C_11 
REMARK    5  A    between atoms: C_11  and  C_12 
REMARK    6  A    between atoms: C_12  and  N_13 
REMARK    7  A    between atoms: C_24  and  C_25 
REMARK    8  A    between atoms: C_25  and  O_26 
REMARK    9  A    between atoms: O_26  and  C_27 
REMARK   10  A    between atoms: C_27  and  C_28 
ROOT
HETATM    1  C   UNL     1      41.256 -11.198   0.678  1.00  0.00     0.166 C 
HETATM    2  N   UNL     1      40.703  -9.973   0.065  1.00  0.00    -0.318 N 
HETATM    3  C   UNL     1      41.112  -9.058  -0.751  1.00  0.00     0.011 C 
HETATM    4  C   UNL     1      39.286  -9.647   0.602  1.00  0.00     0.170 C 
HETATM    5  S   UNL     1      38.472  -8.525  -0.435  1.00  0.00    -0.086 SA
HETATM    6  C   UNL     1      40.083  -8.008  -1.118  1.00  0.00     0.135 C 
HETATM    7  N   UNL     1      38.853 -10.006   1.760  1.00  0.00    -0.229 NA
HETATM    8  C   UNL     1      39.784 -10.577   2.614  1.00  0.00     0.048 C 
HETATM    9  C   UNL     1      39.424 -10.438   4.074  1.00  0.00     0.071 C 
HETATM   10  C   UNL     1      40.953 -11.081   2.158  1.00  0.00     0.069 C 
ENDROOT
BRANCH   3  11
HETATM   11  C   UNL     1      42.524  -8.995  -1.258  1.00  0.00     0.156 C 
BRANCH  11  12
HETATM   12  C   UNL     1      42.950  -7.603  -1.680  1.00  0.00     0.223 C 
HETATM   13  N   UNL     1      43.318  -6.779  -0.648  1.00  0.00    -0.359 N 
HETATM   14  H   UNL     1      43.167  -7.119   0.299  1.00  0.00     0.162 HD
HETATM   15  O   UNL     1      42.949  -7.258  -2.858  1.00  0.00    -0.273 OA
BRANCH  13  16
HETATM   16  C   UNL     1      43.556  -5.333  -0.723  1.00  0.00     0.150 C 
BRANCH  16  17
HETATM   17  C   UNL     1      43.167  -4.459   0.489  1.00  0.00     0.253 C 
BRANCH  17  18
HETATM   18  N   UNL     1      44.041  -4.692   1.705  1.00  0.00    -0.077 N 
HETATM   19  H   UNL     1      44.326  -5.691   1.667  1.00  0.00     0.279 HD
HETATM   20  C   UNL     1      45.297  -3.865   1.736  1.00  0.00     0.269 C 
HETATM   21  C   UNL     1      43.261  -4.522   2.982  1.00  0.00     0.269 C 
ENDBRANCH  17  18
ENDBRANCH  16  17
ENDBRANCH  13  16
ENDBRANCH  11  12
ENDBRANCH   3  11
BRANCH   1  22
HETATM   22  C   UNL     1      40.707 -12.508   0.041  1.00  0.00    -0.024 A 
HETATM   23  C   UNL     1      40.476 -13.620   0.899  1.00  0.00     0.017 A 
HETATM   24  C   UNL     1      39.977 -14.851   0.449  1.00  0.00    -0.061 A 
HETATM   25  C   UNL     1      39.724 -15.975   1.415  1.00  0.00     0.048 C 
HETATM   26  C   UNL     1      39.669 -14.998  -0.894  1.00  0.00     0.007 A 
HETATM   27  C   UNL     1      39.924 -13.955  -1.775  1.00  0.00     0.008 A 
HETATM   28  C   UNL     1      40.474 -12.726  -1.344  1.00  0.00    -0.053 A 
HETATM   29  C   UNL     1      40.765 -11.753  -2.451  1.00  0.00     0.049 C 
ENDBRANCH   1  22
BRANCH  10  30
HETATM   30  C   UNL     1      42.093 -11.405   3.032  1.00  0.00     0.294 C 
HETATM   31  O   UNL     1      43.087 -10.696   3.031  1.00  0.00    -0.259 OA
BRANCH  30  32
HETATM   32  O   UNL     1      41.884 -12.549   3.704  1.00  0.00    -0.313 OA
BRANCH  32  33
HETATM   33  C   UNL     1      43.056 -13.295   4.077  1.00  0.00     0.217 C 
BRANCH  33  34
HETATM   34  C   UNL     1      43.056 -14.644   3.407  1.00  0.00    -0.034 A 
HETATM   35  C   UNL     1      43.393 -14.777   2.051  1.00  0.00     0.009 A 
HETATM   36  C   UNL     1      43.420 -16.034   1.445  1.00  0.00     0.001 A 
HETATM   37  C   UNL     1      43.124 -17.174   2.188  1.00  0.00     0.000 A 
HETATM   38  C   UNL     1      42.796 -17.058   3.537  1.00  0.00     0.001 A 
HETATM   39  C   UNL     1      42.759 -15.801   4.144  1.00  0.00     0.009 A 
ENDBRANCH  33  34
ENDBRANCH  32  33
ENDBRANCH  30  32
ENDBRANCH  10  30
TORSDOF 10
ENDMDL
MODEL 7
REMARK VINA RESULT:      -7.6      3.014      5.844
REMARK  10 active torsions:
REMARK  status: ('A' for Active; 'I' for Inactive)
REMARK    1  A    between atoms: C_4  and  C_5 
REMARK    2  A    between atoms: C_7  and  C_8 
REMARK    3  A    between atoms: C_8  and  C_9 
REMARK       I    between atoms: C_9  and  N_10 
REMARK    4  A    between atoms: N_10  and  C_11 
REMARK    5  A    between atoms: C_11  and  C_12 
REMARK    6  A    between atoms: C_12  and  N_13 
REMARK    7  A    between atoms: C_24  and  C_25 
REMARK    8  A    between atoms: C_25  and  O_26 
REMARK    9  A    between atoms: O_26  and  C_27 
REMARK   10  A    between atoms: C_27  and  C_28 
ROOT
HETATM    1  C   UNL     1      42.430 -11.661   5.709  1.00  0.00     0.166 C 
HETATM    2  N   UNL     1      42.159 -10.615   6.715  1.00  0.00    -0.318 N 
HETATM    3  C   UNL     1      41.340  -9.624   6.849  1.00  0.00     0.011 C 
HETATM    4  C   UNL     1      43.175 -10.659   7.885  1.00  0.00     0.170 C 
HETATM    5  S   UNL     1      42.587  -9.778   9.252  1.00  0.00    -0.086 SA
HETATM    6  C   UNL     1      41.445  -8.868   8.159  1.00  0.00     0.135 C 
HETATM    7  N   UNL     1      44.374 -11.119   7.781  1.00  0.00    -0.229 NA
HETATM    8  C   UNL     1      44.801 -11.437   6.502  1.00  0.00     0.048 C 
HETATM    9  C   UNL     1      46.303 -11.397   6.343  1.00  0.00     0.071 C 
HETATM   10  C   UNL     1      43.929 -11.628   5.487  1.00  0.00     0.069 C 
ENDROOT
BRANCH   3  11
HETATM   11  C   UNL     1      40.388  -9.206   5.766  1.00  0.00     0.156 C 
BRANCH  11  12
HETATM   12  C   UNL     1      41.065  -8.480   4.620  1.00  0.00     0.223 C 
HETATM   13  N   UNL     1      41.242  -7.135   4.819  1.00  0.00    -0.359 N 
HETATM   14  H   UNL     1      40.812  -6.723   5.643  1.00  0.00     0.162 HD
HETATM   15  O   UNL     1      41.411  -9.068   3.600  1.00  0.00    -0.273 OA
BRANCH  13  16
HETATM   16  C   UNL     1      41.654  -6.149   3.814  1.00  0.00     0.150 C 
BRANCH  16  17
HETATM   17  C   UNL     1      40.738  -5.915   2.592  1.00  0.00     0.253 C 
BRANCH  17  18
HETATM   18  N   UNL     1      41.400  -6.250   1.270  1.00  0.00    -0.077 N 
HETATM   19  H   UNL     1      42.398  -6.440   1.488  1.00  0.00     0.279 HD
HETATM   20  C   UNL     1      40.845  -7.471   0.590  1.00  0.00     0.269 C 
HETATM   21  C   UNL     1      41.387  -5.070   0.336  1.00  0.00     0.269 C 
ENDBRANCH  17  18
ENDBRANCH  16  17
ENDBRANCH  13  16
ENDBRANCH  11  12
ENDBRANCH   3  11
BRANCH   1  22
HETATM   22  C   UNL     1      41.903 -13.066   6.123  1.00  0.00    -0.024 A 
HETATM   23  C   UNL     1      42.855 -14.043   6.531  1.00  0.00     0.017 A 
HETATM   24  C   UNL     1      42.506 -15.340   6.934  1.00  0.00    -0.061 A 
HETATM   25  C   UNL     1      43.560 -16.311   7.387  1.00  0.00     0.048 C 
HETATM   26  C   UNL     1      41.168 -15.695   6.959  1.00  0.00     0.007 A 
HETATM   27  C   UNL     1      40.208 -14.791   6.521  1.00  0.00     0.008 A 
HETATM   28  C   UNL     1      40.550 -13.497   6.066  1.00  0.00    -0.053 A 
HETATM   29  C   UNL     1      39.390 -12.695   5.546  1.00  0.00     0.049 C 
ENDBRANCH   1  22
BRANCH  10  30
HETATM   30  C   UNL     1      44.327 -11.655   4.069  1.00  0.00     0.294 C 
HETATM   31  O   UNL     1      45.434 -11.261   3.736  1.00  0.00    -0.259 OA
BRANCH  30  32
HETATM   32  O   UNL     1      43.321 -12.079   3.287  1.00  0.00    -0.313 OA
BRANCH  32  33
HETATM   33  C   UNL     1      43.580 -13.250   2.492  1.00  0.00     0.217 C 
BRANCH  33  34
HETATM   34  C   UNL     1      42.545 -14.311   2.766  1.00  0.00    -0.034 A 
HETATM   35  C   UNL     1      41.185 -14.075   2.513  1.00  0.00     0.009 A 
HETATM   36  C   UNL     1      40.235 -15.072   2.740  1.00  0.00     0.001 A 
HETATM   37  C   UNL     1      40.634 -16.321   3.210  1.00  0.00     0.000 A 
HETATM   38  C   UNL     1      41.982 -16.572   3.458  1.00  0.00     0.001 A 
HETATM   39  C   UNL     1      42.933 -15.573   3.240  1.00  0.00     0.009 A 
ENDBRANCH  33  34
ENDBRANCH  32  33
ENDBRANCH  30  32
ENDBRANCH  10  30
TORSDOF 10
ENDMDL
MODEL 8
REMARK VINA RESULT:      -7.6      3.267      5.316
REMARK  10 active torsions:
REMARK  status: ('A' for Active; 'I' for Inactive)
REMARK    1  A    between atoms: C_4  and  C_5 
REMARK    2  A    between atoms: C_7  and  C_8 
REMARK    3  A    between atoms: C_8  and  C_9 
REMARK       I    between atoms: C_9  and  N_10 
REMARK    4  A    between atoms: N_10  and  C_11 
REMARK    5  A    between atoms: C_11  and  C_12 
REMARK    6  A    between atoms: C_12  and  N_13 
REMARK    7  A    between atoms: C_24  and  C_25 
REMARK    8  A    between atoms: C_25  and  O_26 
REMARK    9  A    between atoms: O_26  and  C_27 
REMARK   10  A    between atoms: C_27  and  C_28 
ROOT
HETATM    1  C   UNL     1      41.259 -10.087   6.927  1.00  0.00     0.166 C 
HETATM    2  N   UNL     1      41.523  -8.706   7.381  1.00  0.00    -0.318 N 
HETATM    3  C   UNL     1      41.976  -8.135   8.448  1.00  0.00     0.011 C 
HETATM    4  C   UNL     1      41.059  -7.656   6.341  1.00  0.00     0.170 C 
HETATM    5  S   UNL     1      41.781  -6.115   6.650  1.00  0.00    -0.086 SA
HETATM    6  C   UNL     1      42.108  -6.627   8.370  1.00  0.00     0.135 C 
HETATM    7  N   UNL     1      40.114  -7.854   5.488  1.00  0.00    -0.229 NA
HETATM    8  C   UNL     1      39.385  -9.023   5.639  1.00  0.00     0.048 C 
HETATM    9  C   UNL     1      37.996  -8.945   5.052  1.00  0.00     0.071 C 
HETATM   10  C   UNL     1      39.852 -10.065   6.364  1.00  0.00     0.069 C 
ENDROOT
BRANCH   3  11
HETATM   11  C   UNL     1      42.295  -8.894   9.703  1.00  0.00     0.156 C 
BRANCH  11  12
HETATM   12  C   UNL     1      41.105  -9.051  10.630  1.00  0.00     0.223 C 
HETATM   13  N   UNL     1      41.135  -8.248  11.741  1.00  0.00    -0.359 N 
HETATM   14  H   UNL     1      41.984  -7.715  11.911  1.00  0.00     0.162 HD
HETATM   15  O   UNL     1      40.201  -9.846  10.389  1.00  0.00    -0.273 OA
BRANCH  13  16
HETATM   16  C   UNL     1      40.252  -8.339  12.910  1.00  0.00     0.150 C 
BRANCH  16  17
HETATM   17  C   UNL     1      39.925  -7.044  13.686  1.00  0.00     0.253 C 
BRANCH  17  18
HETATM   18  N   UNL     1      40.586  -6.976  15.049  1.00  0.00    -0.077 N 
HETATM   19  H   UNL     1      39.819  -6.827  15.733  1.00  0.00     0.279 HD
HETATM   20  C   UNL     1      41.314  -8.229  15.450  1.00  0.00     0.269 C 
HETATM   21  C   UNL     1      41.491  -5.777  15.159  1.00  0.00     0.269 C 
ENDBRANCH  17  18
ENDBRANCH  16  17
ENDBRANCH  13  16
ENDBRANCH  11  12
ENDBRANCH   3  11
BRANCH   1  22
HETATM   22  C   UNL     1      42.316 -10.614   5.913  1.00  0.00    -0.024 A 
HETATM   23  C   UNL     1      41.950 -10.673   4.538  1.00  0.00     0.017 A 
HETATM   24  C   UNL     1      42.815 -11.122   3.528  1.00  0.00    -0.061 A 
HETATM   25  C   UNL     1      42.376 -11.125   2.090  1.00  0.00     0.048 C 
HETATM   26  C   UNL     1      44.099 -11.511   3.871  1.00  0.00     0.007 A 
HETATM   27  C   UNL     1      44.482 -11.517   5.206  1.00  0.00     0.008 A 
HETATM   28  C   UNL     1      43.606 -11.115   6.239  1.00  0.00    -0.053 A 
HETATM   29  C   UNL     1      44.164 -11.276   7.626  1.00  0.00     0.049 C 
ENDBRANCH   1  22
BRANCH  10  30
HETATM   30  C   UNL     1      39.007 -11.184   6.814  1.00  0.00     0.294 C 
HETATM   31  O   UNL     1      38.403 -11.109   7.873  1.00  0.00    -0.259 OA
BRANCH  30  32
HETATM   32  O   UNL     1      39.079 -12.223   5.965  1.00  0.00    -0.313 OA
BRANCH  32  33
HETATM   33  C   UNL     1      39.731 -13.407   6.459  1.00  0.00     0.217 C 
BRANCH  33  34
HETATM   34  C   UNL     1      40.695 -13.943   5.433  1.00  0.00    -0.034 A 
HETATM   35  C   UNL     1      40.364 -13.959   4.070  1.00  0.00     0.009 A 
HETATM   36  C   UNL     1      41.274 -14.429   3.121  1.00  0.00     0.001 A 
HETATM   37  C   UNL     1      42.531 -14.876   3.522  1.00  0.00     0.000 A 
HETATM   38  C   UNL     1      42.876 -14.859   4.872  1.00  0.00     0.001 A 
HETATM   39  C   UNL     1      41.964 -14.398   5.823  1.00  0.00     0.009 A 
ENDBRANCH  33  34
ENDBRANCH  32  33
ENDBRANCH  30  32
ENDBRANCH  10  30
TORSDOF 10
ENDMDL
MODEL 9
REMARK VINA RESULT:      -7.6      5.115      7.940
REMARK  10 active torsions:
REMARK  status: ('A' for Active; 'I' for Inactive)
REMARK    1  A    between atoms: C_4  and  C_5 
REMARK    2  A    between atoms: C_7  and  C_8 
REMARK    3  A    between atoms: C_8  and  C_9 
REMARK       I    between atoms: C_9  and  N_10 
REMARK    4  A    between atoms: N_10  and  C_11 
REMARK    5  A    between atoms: C_11  and  C_12 
REMARK    6  A    between atoms: C_12  and  N_13 
REMARK    7  A    between atoms: C_24  and  C_25 
REMARK    8  A    between atoms: C_25  and  O_26 
REMARK    9  A    between atoms: O_26  and  C_27 
REMARK   10  A    between atoms: C_27  and  C_28 
ROOT
HETATM    1  C   UNL     1      41.618 -11.272   0.988  1.00  0.00     0.166 C 
HETATM    2  N   UNL     1      40.895 -10.005   0.755  1.00  0.00    -0.318 N 
HETATM    3  C   UNL     1      41.063  -8.939   0.044  1.00  0.00     0.011 C 
HETATM    4  C   UNL     1      39.645  -9.877   1.663  1.00  0.00     0.170 C 
HETATM    5  S   UNL     1      38.568  -8.660   1.070  1.00  0.00    -0.086 SA
HETATM    6  C   UNL     1      39.944  -7.920   0.128  1.00  0.00     0.135 C 
HETATM    7  N   UNL     1      39.523 -10.456   2.807  1.00  0.00    -0.229 NA
HETATM    8  C   UNL     1      40.652 -11.093   3.297  1.00  0.00     0.048 C 
HETATM    9  C   UNL     1      40.660 -11.227   4.802  1.00  0.00     0.071 C 
HETATM   10  C   UNL     1      41.686 -11.427   2.494  1.00  0.00     0.069 C 
ENDROOT
BRANCH   3  11
HETATM   11  C   UNL     1      42.303  -8.690  -0.764  1.00  0.00     0.156 C 
BRANCH  11  12
HETATM   12  C   UNL     1      42.282  -7.367  -1.505  1.00  0.00     0.223 C 
HETATM   13  N   UNL     1      42.036  -7.468  -2.850  1.00  0.00    -0.359 N 
HETATM   14  H   UNL     1      42.005  -8.403  -3.252  1.00  0.00     0.162 HD
HETATM   15  O   UNL     1      42.481  -6.302  -0.928  1.00  0.00    -0.273 OA
BRANCH  13  16
HETATM   16  C   UNL     1      42.176  -6.402  -3.848  1.00  0.00     0.150 C 
BRANCH  16  17
HETATM   17  C   UNL     1      43.019  -6.683  -5.111  1.00  0.00     0.253 C 
BRANCH  17  18
HETATM   18  N   UNL     1      43.223  -5.459  -5.983  1.00  0.00    -0.077 N 
HETATM   19  H   UNL     1      43.777  -4.790  -5.414  1.00  0.00     0.279 HD
HETATM   20  C   UNL     1      43.991  -5.720  -7.250  1.00  0.00     0.269 C 
HETATM   21  C   UNL     1      41.916  -4.777  -6.286  1.00  0.00     0.269 C 
ENDBRANCH  17  18
ENDBRANCH  16  17
ENDBRANCH  13  16
ENDBRANCH  11  12
ENDBRANCH   3  11
BRANCH   1  22
HETATM   22  C   UNL     1      40.967 -12.493   0.275  1.00  0.00    -0.024 A 
HETATM   23  C   UNL     1      40.656 -13.637   1.062  1.00  0.00     0.017 A 
HETATM   24  C   UNL     1      40.062 -14.796   0.540  1.00  0.00    -0.061 A 
HETATM   25  C   UNL     1      39.728 -15.956   1.435  1.00  0.00     0.048 C 
HETATM   26  C   UNL     1      39.737 -14.832  -0.807  1.00  0.00     0.007 A 
HETATM   27  C   UNL     1      40.068 -13.757  -1.622  1.00  0.00     0.008 A 
HETATM   28  C   UNL     1      40.711 -12.604  -1.119  1.00  0.00    -0.053 A 
HETATM   29  C   UNL     1      41.072 -11.587  -2.166  1.00  0.00     0.049 C 
ENDBRANCH   1  22
BRANCH  10  30
HETATM   30  C   UNL     1      43.016 -11.809   2.999  1.00  0.00     0.294 C 
HETATM   31  O   UNL     1      43.773 -10.958   3.437  1.00  0.00    -0.259 OA
BRANCH  30  32
HETATM   32  O   UNL     1      43.243 -13.123   2.833  1.00  0.00    -0.313 OA
BRANCH  32  33
HETATM   33  C   UNL     1      42.972 -13.966   3.966  1.00  0.00     0.217 C 
BRANCH  33  34
HETATM   34  C   UNL     1      43.173 -15.415   3.605  1.00  0.00    -0.034 A 
HETATM   35  C   UNL     1      43.287 -16.398   4.599  1.00  0.00     0.009 A 
HETATM   36  C   UNL     1      43.442 -17.742   4.257  1.00  0.00     0.001 A 
HETATM   37  C   UNL     1      43.472 -18.122   2.917  1.00  0.00     0.000 A 
HETATM   38  C   UNL     1      43.353 -17.158   1.919  1.00  0.00     0.001 A 
HETATM   39  C   UNL     1      43.207 -15.811   2.260  1.00  0.00     0.009 A 
ENDBRANCH  33  34
ENDBRANCH  32  33
ENDBRANCH  30  32
ENDBRANCH  10  30
TORSDOF 10
ENDMDL
MODEL 10
REMARK VINA RESULT:      -7.4     16.850     19.098
REMARK  10 active torsions:
REMARK  status: ('A' for Active; 'I' for Inactive)
REMARK    1  A    between atoms: C_4  and  C_5 
REMARK    2  A    between atoms: C_7  and  C_8 
REMARK    3  A    between atoms: C_8  and  C_9 
REMARK       I    between atoms: C_9  and  N_10 
REMARK    4  A    between atoms: N_10  and  C_11 
REMARK    5  A    between atoms: C_11  and  C_12 
REMARK    6  A    between atoms: C_12  and  N_13 
REMARK    7  A    between atoms: C_24  and  C_25 
REMARK    8  A    between atoms: C_25  and  O_26 
REMARK    9  A    between atoms: O_26  and  C_27 
REMARK   10  A    between atoms: C_27  and  C_28 
ROOT
HETATM    1  C   UNL     1      45.985 -30.642   1.460  1.00  0.00     0.166 C 
HETATM    2  N   UNL     1      45.476 -31.288   2.687  1.00  0.00    -0.318 N 
HETATM    3  C   UNL     1      44.366 -31.312   3.349  1.00  0.00     0.011 C 
HETATM    4  C   UNL     1      46.583 -32.081   3.426  1.00  0.00     0.170 C 
HETATM    5  S   UNL     1      45.899 -33.194   4.560  1.00  0.00    -0.086 SA
HETATM    6  C   UNL     1      44.354 -32.223   4.561  1.00  0.00     0.135 C 
HETATM    7  N   UNL     1      47.840 -31.806   3.350  1.00  0.00    -0.229 NA
HETATM    8  C   UNL     1      48.174 -30.635   2.689  1.00  0.00     0.048 C 
HETATM    9  C   UNL     1      49.507 -30.065   3.114  1.00  0.00     0.071 C 
HETATM   10  C   UNL     1      47.310 -30.018   1.853  1.00  0.00     0.069 C 
ENDROOT
BRANCH   3  11
HETATM   11  C   UNL     1      43.186 -30.458   2.988  1.00  0.00     0.156 C 
BRANCH  11  12
HETATM   12  C   UNL     1      41.853 -31.133   3.248  1.00  0.00     0.223 C 
HETATM   13  N   UNL     1      41.217 -30.722   4.391  1.00  0.00    -0.359 N 
HETATM   14  H   UNL     1      41.729 -30.104   5.016  1.00  0.00     0.162 HD
HETATM   15  O   UNL     1      41.402 -31.983   2.486  1.00  0.00    -0.273 OA
BRANCH  13  16
HETATM   16  C   UNL     1      40.043 -31.347   5.012  1.00  0.00     0.150 C 
BRANCH  16  17
HETATM   17  C   UNL     1      40.195 -32.759   5.618  1.00  0.00     0.253 C 
BRANCH  17  18
HETATM   18  N   UNL     1      39.024 -33.673   5.315  1.00  0.00    -0.077 N 
HETATM   19  H   UNL     1      39.416 -34.634   5.260  1.00  0.00     0.279 HD
HETATM   20  C   UNL     1      37.953 -33.682   6.371  1.00  0.00     0.269 C 
HETATM   21  C   UNL     1      38.433 -33.378   3.962  1.00  0.00     0.269 C 
ENDBRANCH  17  18
ENDBRANCH  16  17
ENDBRANCH  13  16
ENDBRANCH  11  12
ENDBRANCH   3  11
BRANCH   1  22
HETATM   22  C   UNL     1      46.102 -31.617   0.253  1.00  0.00    -0.024 A 
HETATM   23  C   UNL     1      47.404 -31.924  -0.235  1.00  0.00     0.017 A 
HETATM   24  C   UNL     1      47.640 -32.793  -1.310  1.00  0.00    -0.061 A 
HETATM   25  C   UNL     1      49.044 -33.100  -1.752  1.00  0.00     0.048 C 
HETATM   26  C   UNL     1      46.561 -33.407  -1.924  1.00  0.00     0.007 A 
HETATM   27  C   UNL     1      45.271 -33.099  -1.514  1.00  0.00     0.008 A 
HETATM   28  C   UNL     1      45.015 -32.187  -0.464  1.00  0.00    -0.053 A 
HETATM   29  C   UNL     1      43.557 -31.910  -0.223  1.00  0.00     0.049 C 
ENDBRANCH   1  22
BRANCH  10  30
HETATM   30  C   UNL     1      47.486 -28.634   1.380  1.00  0.00     0.294 C 
HETATM   31  O   UNL     1      47.053 -27.702   2.039  1.00  0.00    -0.259 OA
BRANCH  30  32
HETATM   32  O   UNL     1      48.082 -28.601   0.176  1.00  0.00    -0.313 OA
BRANCH  32  33
HETATM   33  C   UNL     1      47.516 -27.700  -0.792  1.00  0.00     0.217 C 
BRANCH  33  34
HETATM   34  C   UNL     1      46.506 -28.417  -1.650  1.00  0.00    -0.034 A 
HETATM   35  C   UNL     1      46.915 -29.310  -2.652  1.00  0.00     0.009 A 
HETATM   36  C   UNL     1      45.973 -29.994  -3.423  1.00  0.00     0.001 A 
HETATM   37  C   UNL     1      44.612 -29.803  -3.193  1.00  0.00     0.000 A 
HETATM   38  C   UNL     1      44.193 -28.925  -2.197  1.00  0.00     0.001 A 
HETATM   39  C   UNL     1      45.133 -28.233  -1.431  1.00  0.00     0.009 A 
ENDBRANCH  33  34
ENDBRANCH  32  33
ENDBRANCH  30  32
ENDBRANCH  10  30
TORSDOF 10
ENDMDL
