MODEL 1
REMARK VINA RESULT:      -7.5      0.000      0.000
REMARK  9 active torsions:
REMARK  status: ('A' for Active; 'I' for Inactive)
REMARK    1  A    between atoms: C_2  and  C_3 
REMARK    2  A    between atoms: C_3  and  C_4 
REMARK    3  A    between atoms: C_7  and  C_8 
REMARK       I    between atoms: C_8  and  N_9 
REMARK    4  A    between atoms: C_13  and  O_14 
REMARK    5  A    between atoms: O_14  and  C_15 
REMARK    6  A    between atoms: C_15  and  C_16 
REMARK    7  A    between atoms: C_16  and  O_17 
REMARK    8  A    between atoms: C_19  and  N_20 
REMARK       I    between atoms: N_20  and  C_21 
REMARK    9  A    between atoms: C_21  and  C_22 
ROOT
HETATM    1  C   UNL     1      41.287 -15.740   4.580  1.00  0.00     0.274 C 
HETATM    2  N   UNL     1      41.804 -14.796   5.485  1.00  0.00    -0.347 N 
HETATM    3  C   UNL     1      43.076 -14.092   5.304  1.00  0.00     0.127 C 
HETATM    4  C   UNL     1      42.804 -12.732   4.664  1.00  0.00     0.037 C 
HETATM    5  C   UNL     1      41.845 -11.882   5.531  1.00  0.00     0.019 C 
HETATM    6  C   UNL     1      42.507 -11.364   6.870  1.00  0.00     0.162 C 
HETATM    7  C   UNL     1      42.026  -9.891   7.076  1.00  0.00     0.148 C 
HETATM    8  C   UNL     1      41.605  -9.485   5.694  1.00  0.00    -0.026 A 
HETATM    9  C   UNL     1      41.484 -10.582   4.838  1.00  0.00    -0.038 A 
HETATM   10  C   UNL     1      41.316  -8.196   5.260  1.00  0.00     0.010 A 
HETATM   11  C   UNL     1      40.893  -8.011   3.944  1.00  0.00     0.001 A 
HETATM   12  C   UNL     1      40.756  -9.108   3.085  1.00  0.00     0.001 A 
HETATM   13  C   UNL     1      41.048 -10.400   3.530  1.00  0.00     0.009 A 
HETATM   14  C   UNL     1      40.556 -12.696   5.824  1.00  0.00     0.037 C 
HETATM   15  C   UNL     1      40.870 -14.097   6.364  1.00  0.00     0.127 C 
HETATM   16  O   UNL     1      40.073 -15.936   4.495  1.00  0.00    -0.266 OA
ENDROOT
BRANCH   6  17
HETATM   17  O   UNL     1      43.945 -11.421   6.764  1.00  0.00    -0.380 OA
BRANCH  17  18
HETATM   18  C   UNL     1      44.614 -10.839   7.886  1.00  0.00     0.194 C 
BRANCH  18  19
HETATM   19  C   UNL     1      46.088 -10.649   7.542  1.00  0.00     0.193 C 
BRANCH  19  20
HETATM   20  O   UNL     1      46.501  -9.337   7.918  1.00  0.00    -0.394 OA
HETATM   21  C   UNL     1      45.440  -8.605   8.516  1.00  0.00     0.201 C 
ENDBRANCH  19  20
ENDBRANCH  18  19
ENDBRANCH  17  18
ENDBRANCH   6  17
BRANCH   7  22
HETATM   22  N   UNL     1      40.913  -9.752   7.998  1.00  0.00    -0.350 N 
HETATM   23  C   UNL     1      41.099  -9.292   9.279  1.00  0.00     0.221 C 
HETATM   24  O   UNL     1      42.213  -9.126   9.765  1.00  0.00    -0.273 OA
HETATM   25  H   UNL     1      39.975  -9.836   7.627  1.00  0.00     0.163 HD
BRANCH  23  26
HETATM   26  C   UNL     1      39.803  -9.006  10.031  1.00  0.00     0.070 C 
HETATM   27  C   UNL     1      39.776  -9.737  11.371  1.00  0.00     0.019 C 
HETATM   28  C   UNL     1      39.637  -7.502  10.248  1.00  0.00     0.019 C 
ENDBRANCH  23  26
ENDBRANCH   7  22
BRANCH   1  29
HETATM   29  C   UNL     1      42.198 -16.483   3.694  1.00  0.00     0.154 A 
HETATM   30  N   UNL     1      42.369 -16.205   2.390  1.00  0.00    -0.123 NA
HETATM   31  O   UNL     1      43.252 -17.147   1.905  1.00  0.00    -0.217 OA
HETATM   32  C   UNL     1      43.679 -17.939   2.922  1.00  0.00     0.081 A 
HETATM   33  C   UNL     1      43.065 -17.541   4.083  1.00  0.00     0.074 A 
BRANCH  32  34
HETATM   34  C   UNL     1      44.615 -19.037   2.572  1.00  0.00     0.071 C 
BRANCH  34  35
HETATM   35  C   UNL     1      43.942 -20.417   2.451  1.00  0.00    -0.017 C 
HETATM   36  C   UNL     1      42.539 -20.330   1.843  1.00  0.00     0.010 C 
HETATM   37  C   UNL     1      43.851 -21.065   3.837  1.00  0.00     0.010 C 
ENDBRANCH  34  35
ENDBRANCH  32  34
ENDBRANCH   1  29
TORSDOF 9
ENDMDL
MODEL 2
REMARK VINA RESULT:      -7.4      4.674      7.818
REMARK  9 active torsions:
REMARK  status: ('A' for Active; 'I' for Inactive)
REMARK    1  A    between atoms: C_2  and  C_3 
REMARK    2  A    between atoms: C_3  and  C_4 
REMARK    3  A    between atoms: C_7  and  C_8 
REMARK       I    between atoms: C_8  and  N_9 
REMARK    4  A    between atoms: C_13  and  O_14 
REMARK    5  A    between atoms: O_14  and  C_15 
REMARK    6  A    between atoms: C_15  and  C_16 
REMARK    7  A    between atoms: C_16  and  O_17 
REMARK    8  A    between atoms: C_19  and  N_20 
REMARK       I    between atoms: N_20  and  C_21 
REMARK    9  A    between atoms: C_21  and  C_22 
ROOT
HETATM    1  C   UNL     1      42.195 -13.111   4.055  1.00  0.00     0.274 C 
HETATM    2  N   UNL     1      42.241 -12.773   2.690  1.00  0.00    -0.347 N 
HETATM    3  C   UNL     1      41.704 -13.612   1.616  1.00  0.00     0.127 C 
HETATM    4  C   UNL     1      40.293 -13.138   1.273  1.00  0.00     0.037 C 
HETATM    5  C   UNL     1      40.287 -11.652   0.841  1.00  0.00     0.019 C 
HETATM    6  C   UNL     1      40.947 -11.410  -0.574  1.00  0.00     0.162 C 
HETATM    7  C   UNL     1      40.062 -10.357  -1.317  1.00  0.00     0.148 C 
HETATM    8  C   UNL     1      38.754 -10.453  -0.588  1.00  0.00    -0.026 A 
HETATM    9  C   UNL     1      38.872 -11.151   0.616  1.00  0.00    -0.038 A 
HETATM   10  C   UNL     1      37.541  -9.903  -0.986  1.00  0.00     0.010 A 
HETATM   11  C   UNL     1      36.431 -10.055  -0.155  1.00  0.00     0.001 A 
HETATM   12  C   UNL     1      36.546 -10.742   1.060  1.00  0.00     0.001 A 
HETATM   13  C   UNL     1      37.770 -11.291   1.452  1.00  0.00     0.009 A 
HETATM   14  C   UNL     1      40.979 -10.793   1.934  1.00  0.00     0.037 C 
HETATM   15  C   UNL     1      42.347 -11.362   2.331  1.00  0.00     0.127 C 
HETATM   16  O   UNL     1      42.196 -12.236   4.923  1.00  0.00    -0.266 OA
ENDROOT
BRANCH   6  17
HETATM   17  O   UNL     1      40.994 -12.648  -1.315  1.00  0.00    -0.380 OA
BRANCH  17  18
HETATM   18  C   UNL     1      40.593 -12.501  -2.680  1.00  0.00     0.194 C 
BRANCH  18  19
HETATM   19  C   UNL     1      39.576 -13.587  -3.019  1.00  0.00     0.193 C 
BRANCH  19  20
HETATM   20  O   UNL     1      38.561 -13.620  -2.018  1.00  0.00    -0.394 OA
HETATM   21  C   UNL     1      37.300 -13.219  -2.537  1.00  0.00     0.201 C 
ENDBRANCH  19  20
ENDBRANCH  18  19
ENDBRANCH  17  18
ENDBRANCH   6  17
BRANCH   7  22
HETATM   22  N   UNL     1      40.572  -8.999  -1.249  1.00  0.00    -0.350 N 
HETATM   23  C   UNL     1      41.109  -8.382  -2.354  1.00  0.00     0.221 C 
HETATM   24  O   UNL     1      41.333  -8.981  -3.400  1.00  0.00    -0.273 OA
HETATM   25  H   UNL     1      40.368  -8.455  -0.420  1.00  0.00     0.163 HD
BRANCH  23  26
HETATM   26  C   UNL     1      41.393  -6.896  -2.157  1.00  0.00     0.070 C 
HETATM   27  C   UNL     1      41.341  -6.521  -0.678  1.00  0.00     0.019 C 
HETATM   28  C   UNL     1      42.757  -6.535  -2.744  1.00  0.00     0.019 C 
ENDBRANCH  23  26
ENDBRANCH   7  22
BRANCH   1  29
HETATM   29  C   UNL     1      42.112 -14.524   4.458  1.00  0.00     0.154 A 
HETATM   30  N   UNL     1      40.957 -15.192   4.619  1.00  0.00    -0.123 NA
HETATM   31  O   UNL     1      41.296 -16.458   5.048  1.00  0.00    -0.217 OA
HETATM   32  C   UNL     1      42.649 -16.586   5.067  1.00  0.00     0.081 A 
HETATM   33  C   UNL     1      43.213 -15.399   4.673  1.00  0.00     0.074 A 
BRANCH  32  34
HETATM   34  C   UNL     1      43.194 -17.884   5.540  1.00  0.00     0.071 C 
BRANCH  34  35
HETATM   35  C   UNL     1      44.139 -18.567   4.535  1.00  0.00    -0.017 C 
HETATM   36  C   UNL     1      43.613 -18.495   3.098  1.00  0.00     0.010 C 
HETATM   37  C   UNL     1      44.329 -20.037   4.928  1.00  0.00     0.010 C 
ENDBRANCH  34  35
ENDBRANCH  32  34
ENDBRANCH   1  29
TORSDOF 9
ENDMDL
MODEL 3
REMARK VINA RESULT:      -7.3      2.356      4.401
REMARK  9 active torsions:
REMARK  status: ('A' for Active; 'I' for Inactive)
REMARK    1  A    between atoms: C_2  and  C_3 
REMARK    2  A    between atoms: C_3  and  C_4 
REMARK    3  A    between atoms: C_7  and  C_8 
REMARK       I    between atoms: C_8  and  N_9 
REMARK    4  A    between atoms: C_13  and  O_14 
REMARK    5  A    between atoms: O_14  and  C_15 
REMARK    6  A    between atoms: C_15  and  C_16 
REMARK    7  A    between atoms: C_16  and  O_17 
REMARK    8  A    between atoms: C_19  and  N_20 
REMARK       I    between atoms: N_20  and  C_21 
REMARK    9  A    between atoms: C_21  and  C_22 
ROOT
HETATM    1  C   UNL     1      42.652 -13.639   3.279  1.00  0.00     0.274 C 
HETATM    2  N   UNL     1      41.907 -12.703   4.021  1.00  0.00    -0.347 N 
HETATM    3  C   UNL     1      41.420 -12.934   5.383  1.00  0.00     0.127 C 
HETATM    4  C   UNL     1      42.411 -12.327   6.374  1.00  0.00     0.037 C 
HETATM    5  C   UNL     1      42.601 -10.811   6.126  1.00  0.00     0.019 C 
HETATM    6  C   UNL     1      41.338  -9.950   6.527  1.00  0.00     0.162 C 
HETATM    7  C   UNL     1      41.871  -8.655   7.221  1.00  0.00     0.148 C 
HETATM    8  C   UNL     1      43.253  -9.055   7.648  1.00  0.00    -0.026 A 
HETATM    9  C   UNL     1      43.672 -10.236   7.033  1.00  0.00    -0.038 A 
HETATM   10  C   UNL     1      44.086  -8.359   8.517  1.00  0.00     0.010 A 
HETATM   11  C   UNL     1      45.364  -8.860   8.765  1.00  0.00     0.001 A 
HETATM   12  C   UNL     1      45.795 -10.036   8.140  1.00  0.00     0.001 A 
HETATM   13  C   UNL     1      44.951 -10.729   7.268  1.00  0.00     0.009 A 
HETATM   14  C   UNL     1      42.989 -10.576   4.640  1.00  0.00     0.037 C 
HETATM   15  C   UNL     1      42.033 -11.291   3.677  1.00  0.00     0.127 C 
HETATM   16  O   UNL     1      43.428 -13.271   2.395  1.00  0.00    -0.266 OA
ENDROOT
BRANCH   6  17
HETATM   17  O   UNL     1      40.495 -10.700   7.426  1.00  0.00    -0.380 OA
BRANCH  17  18
HETATM   18  C   UNL     1      39.116 -10.326   7.347  1.00  0.00     0.194 C 
BRANCH  18  19
HETATM   19  C   UNL     1      38.640 -10.487   5.906  1.00  0.00     0.193 C 
BRANCH  19  20
HETATM   20  O   UNL     1      37.726  -9.442   5.585  1.00  0.00    -0.394 OA
HETATM   21  C   UNL     1      38.367  -8.173   5.563  1.00  0.00     0.201 C 
ENDBRANCH  19  20
ENDBRANCH  18  19
ENDBRANCH  17  18
ENDBRANCH   6  17
BRANCH   7  22
HETATM   22  N   UNL     1      41.934  -7.496   6.349  1.00  0.00    -0.350 N 
HETATM   23  C   UNL     1      41.423  -6.280   6.738  1.00  0.00     0.221 C 
HETATM   24  O   UNL     1      40.754  -6.142   7.756  1.00  0.00    -0.273 OA
HETATM   25  H   UNL     1      42.513  -7.555   5.521  1.00  0.00     0.163 HD
BRANCH  23  26
HETATM   26  C   UNL     1      41.767  -5.132   5.794  1.00  0.00     0.070 C 
HETATM   27  C   UNL     1      42.007  -5.645   4.375  1.00  0.00     0.019 C 
HETATM   28  C   UNL     1      40.647  -4.092   5.795  1.00  0.00     0.019 C 
ENDBRANCH  23  26
ENDBRANCH   7  22
BRANCH   1  29
HETATM   29  C   UNL     1      42.533 -15.075   3.579  1.00  0.00     0.154 A 
HETATM   30  N   UNL     1      41.565 -15.867   3.087  1.00  0.00    -0.123 NA
HETATM   31  O   UNL     1      41.767 -17.116   3.638  1.00  0.00    -0.217 OA
HETATM   32  C   UNL     1      42.897 -17.104   4.392  1.00  0.00     0.081 A 
HETATM   33  C   UNL     1      43.437 -15.843   4.364  1.00  0.00     0.074 A 
BRANCH  32  34
HETATM   34  C   UNL     1      43.251 -18.365   5.093  1.00  0.00     0.071 C 
BRANCH  34  35
HETATM   35  C   UNL     1      44.289 -19.223   4.347  1.00  0.00    -0.017 C 
HETATM   36  C   UNL     1      43.914 -19.447   2.879  1.00  0.00     0.010 C 
HETATM   37  C   UNL     1      44.426 -20.582   5.044  1.00  0.00     0.010 C 
ENDBRANCH  34  35
ENDBRANCH  32  34
ENDBRANCH   1  29
TORSDOF 9
ENDMDL
MODEL 4
REMARK VINA RESULT:      -7.2      1.881      2.679
REMARK  9 active torsions:
REMARK  status: ('A' for Active; 'I' for Inactive)
REMARK    1  A    between atoms: C_2  and  C_3 
REMARK    2  A    between atoms: C_3  and  C_4 
REMARK    3  A    between atoms: C_7  and  C_8 
REMARK       I    between atoms: C_8  and  N_9 
REMARK    4  A    between atoms: C_13  and  O_14 
REMARK    5  A    between atoms: O_14  and  C_15 
REMARK    6  A    between atoms: C_15  and  C_16 
REMARK    7  A    between atoms: C_16  and  O_17 
REMARK    8  A    between atoms: C_19  and  N_20 
REMARK       I    between atoms: N_20  and  C_21 
REMARK    9  A    between atoms: C_21  and  C_22 
ROOT
HETATM    1  C   UNL     1      40.389 -12.913   4.326  1.00  0.00     0.274 C 
HETATM    2  N   UNL     1      40.820 -12.321   5.528  1.00  0.00    -0.347 N 
HETATM    3  C   UNL     1      42.204 -11.927   5.801  1.00  0.00     0.127 C 
HETATM    4  C   UNL     1      42.370 -10.443   5.480  1.00  0.00     0.037 C 
HETATM    5  C   UNL     1      41.396  -9.574   6.311  1.00  0.00     0.019 C 
HETATM    6  C   UNL     1      41.771  -9.509   7.845  1.00  0.00     0.162 C 
HETATM    7  C   UNL     1      41.540  -8.033   8.308  1.00  0.00     0.148 C 
HETATM    8  C   UNL     1      41.578  -7.272   7.016  1.00  0.00    -0.026 A 
HETATM    9  C   UNL     1      41.480  -8.114   5.906  1.00  0.00    -0.038 A 
HETATM   10  C   UNL     1      41.660  -5.892   6.868  1.00  0.00     0.010 A 
HETATM   11  C   UNL     1      41.638  -5.353   5.582  1.00  0.00     0.001 A 
HETATM   12  C   UNL     1      41.526  -6.191   4.466  1.00  0.00     0.001 A 
HETATM   13  C   UNL     1      41.443  -7.577   4.624  1.00  0.00     0.009 A 
HETATM   14  C   UNL     1      39.945 -10.091   6.112  1.00  0.00     0.037 C 
HETATM   15  C   UNL     1      39.839 -11.605   6.336  1.00  0.00     0.127 C 
HETATM   16  O   UNL     1      39.224 -12.787   3.942  1.00  0.00    -0.266 OA
ENDROOT
BRANCH   6  17
HETATM   17  O   UNL     1      43.150  -9.891   8.033  1.00  0.00    -0.380 OA
BRANCH  17  18
HETATM   18  C   UNL     1      43.550  -9.892   9.406  1.00  0.00     0.194 C 
BRANCH  18  19
HETATM   19  C   UNL     1      45.054 -10.134   9.485  1.00  0.00     0.193 C 
BRANCH  19  20
HETATM   20  O   UNL     1      45.426 -11.141   8.546  1.00  0.00    -0.394 OA
HETATM   21  C   UNL     1      46.285 -10.625   7.538  1.00  0.00     0.201 C 
ENDBRANCH  19  20
ENDBRANCH  18  19
ENDBRANCH  17  18
ENDBRANCH   6  17
BRANCH   7  22
HETATM   22  N   UNL     1      40.272  -7.813   8.980  1.00  0.00    -0.350 N 
HETATM   23  C   UNL     1      40.196  -7.711  10.348  1.00  0.00     0.221 C 
HETATM   24  O   UNL     1      41.148  -7.955  11.081  1.00  0.00    -0.273 OA
HETATM   25  H   UNL     1      39.471  -7.564   8.413  1.00  0.00     0.163 HD
BRANCH  23  26
HETATM   26  C   UNL     1      38.830  -7.267  10.863  1.00  0.00     0.070 C 
HETATM   27  C   UNL     1      38.720  -7.476  12.372  1.00  0.00     0.019 C 
HETATM   28  C   UNL     1      38.586  -5.798  10.516  1.00  0.00     0.019 C 
ENDBRANCH  23  26
ENDBRANCH   7  22
BRANCH   1  29
HETATM   29  C   UNL     1      41.342 -13.664   3.494  1.00  0.00     0.154 A 
HETATM   30  N   UNL     1      42.036 -13.127   2.476  1.00  0.00    -0.123 NA
HETATM   31  O   UNL     1      42.771 -14.155   1.922  1.00  0.00    -0.217 OA
HETATM   32  C   UNL     1      42.590 -15.289   2.647  1.00  0.00     0.081 A 
HETATM   33  C   UNL     1      41.717 -15.025   3.673  1.00  0.00     0.074 A 
BRANCH  32  34
HETATM   34  C   UNL     1      43.284 -16.511   2.169  1.00  0.00     0.071 C 
BRANCH  34  35
HETATM   35  C   UNL     1      43.019 -17.758   3.033  1.00  0.00    -0.017 C 
HETATM   36  C   UNL     1      43.996 -17.872   4.207  1.00  0.00     0.010 C 
HETATM   37  C   UNL     1      43.129 -19.016   2.163  1.00  0.00     0.010 C 
ENDBRANCH  34  35
ENDBRANCH  32  34
ENDBRANCH   1  29
TORSDOF 9
ENDMDL
MODEL 5
REMARK VINA RESULT:      -7.2      2.492      8.970
REMARK  9 active torsions:
REMARK  status: ('A' for Active; 'I' for Inactive)
REMARK    1  A    between atoms: C_2  and  C_3 
REMARK    2  A    between atoms: C_3  and  C_4 
REMARK    3  A    between atoms: C_7  and  C_8 
REMARK       I    between atoms: C_8  and  N_9 
REMARK    4  A    between atoms: C_13  and  O_14 
REMARK    5  A    between atoms: O_14  and  C_15 
REMARK    6  A    between atoms: C_15  and  C_16 
REMARK    7  A    between atoms: C_16  and  O_17 
REMARK    8  A    between atoms: C_19  and  N_20 
REMARK       I    between atoms: N_20  and  C_21 
REMARK    9  A    between atoms: C_21  and  C_22 
ROOT
HETATM    1  C   UNL     1      45.036 -10.072   7.882  1.00  0.00     0.274 C 
HETATM    2  N   UNL     1      44.251 -11.213   7.637  1.00  0.00    -0.347 N 
HETATM    3  C   UNL     1      42.787 -11.229   7.679  1.00  0.00     0.127 C 
HETATM    4  C   UNL     1      42.247 -11.048   6.262  1.00  0.00     0.037 C 
HETATM    5  C   UNL     1      42.765 -12.157   5.315  1.00  0.00     0.019 C 
HETATM    6  C   UNL     1      42.131 -13.574   5.609  1.00  0.00     0.162 C 
HETATM    7  C   UNL     1      41.834 -14.237   4.224  1.00  0.00     0.148 C 
HETATM    8  C   UNL     1      41.793 -13.058   3.297  1.00  0.00    -0.026 A 
HETATM    9  C   UNL     1      42.324 -11.908   3.884  1.00  0.00    -0.038 A 
HETATM   10  C   UNL     1      41.334 -13.051   1.985  1.00  0.00     0.010 A 
HETATM   11  C   UNL     1      41.416 -11.866   1.252  1.00  0.00     0.001 A 
HETATM   12  C   UNL     1      41.959 -10.714   1.832  1.00  0.00     0.001 A 
HETATM   13  C   UNL     1      42.419 -10.730   3.151  1.00  0.00     0.009 A 
HETATM   14  C   UNL     1      44.315 -12.213   5.384  1.00  0.00     0.037 C 
HETATM   15  C   UNL     1      44.824 -12.285   6.829  1.00  0.00     0.127 C 
HETATM   16  O   UNL     1      46.159  -9.958   7.387  1.00  0.00    -0.266 OA
ENDROOT
BRANCH   6  17
HETATM   17  O   UNL     1      40.916 -13.423   6.373  1.00  0.00    -0.380 OA
BRANCH  17  18
HETATM   18  C   UNL     1      39.734 -13.638   5.596  1.00  0.00     0.194 C 
BRANCH  18  19
HETATM   19  C   UNL     1      38.979 -12.320   5.464  1.00  0.00     0.193 C 
BRANCH  19  20
HETATM   20  O   UNL     1      38.798 -11.742   6.755  1.00  0.00    -0.394 OA
HETATM   21  C   UNL     1      38.765 -10.322   6.694  1.00  0.00     0.201 C 
ENDBRANCH  19  20
ENDBRANCH  18  19
ENDBRANCH  17  18
ENDBRANCH   6  17
BRANCH   7  22
HETATM   22  N   UNL     1      42.846 -15.182   3.788  1.00  0.00    -0.350 N 
HETATM   23  C   UNL     1      42.890 -16.462   4.285  1.00  0.00     0.221 C 
HETATM   24  O   UNL     1      42.194 -16.829   5.225  1.00  0.00    -0.273 OA
HETATM   25  H   UNL     1      43.411 -14.935   2.985  1.00  0.00     0.163 HD
BRANCH  23  26
HETATM   26  C   UNL     1      43.875 -17.375   3.561  1.00  0.00     0.070 C 
HETATM   27  C   UNL     1      44.247 -18.575   4.429  1.00  0.00     0.019 C 
HETATM   28  C   UNL     1      43.281 -17.848   2.234  1.00  0.00     0.019 C 
ENDBRANCH  23  26
ENDBRANCH   7  22
BRANCH   1  29
HETATM   29  C   UNL     1      44.504  -8.979   8.713  1.00  0.00     0.154 A 
HETATM   30  N   UNL     1      44.629  -7.676   8.408  1.00  0.00    -0.123 NA
HETATM   31  O   UNL     1      44.052  -6.977   9.448  1.00  0.00    -0.217 OA
HETATM   32  C   UNL     1      43.507  -7.848  10.337  1.00  0.00     0.081 A 
HETATM   33  C   UNL     1      43.738  -9.128   9.902  1.00  0.00     0.074 A 
BRANCH  32  34
HETATM   34  C   UNL     1      42.869  -7.265  11.544  1.00  0.00     0.071 C 
BRANCH  34  35
HETATM   35  C   UNL     1      43.249  -7.975  12.856  1.00  0.00    -0.017 C 
HETATM   36  C   UNL     1      42.316  -9.147  13.177  1.00  0.00     0.010 C 
HETATM   37  C   UNL     1      43.211  -6.970  14.012  1.00  0.00     0.010 C 
ENDBRANCH  34  35
ENDBRANCH  32  34
ENDBRANCH   1  29
TORSDOF 9
ENDMDL
MODEL 6
REMARK VINA RESULT:      -7.1      3.262      6.796
REMARK  9 active torsions:
REMARK  status: ('A' for Active; 'I' for Inactive)
REMARK    1  A    between atoms: C_2  and  C_3 
REMARK    2  A    between atoms: C_3  and  C_4 
REMARK    3  A    between atoms: C_7  and  C_8 
REMARK       I    between atoms: C_8  and  N_9 
REMARK    4  A    between atoms: C_13  and  O_14 
REMARK    5  A    between atoms: O_14  and  C_15 
REMARK    6  A    between atoms: C_15  and  C_16 
REMARK    7  A    between atoms: C_16  and  O_17 
REMARK    8  A    between atoms: C_19  and  N_20 
REMARK       I    between atoms: N_20  and  C_21 
REMARK    9  A    between atoms: C_21  and  C_22 
ROOT
HETATM    1  C   UNL     1      44.607 -10.697   7.591  1.00  0.00     0.274 C 
HETATM    2  N   UNL     1      43.769  -9.578   7.749  1.00  0.00    -0.347 N 
HETATM    3  C   UNL     1      42.315  -9.655   7.906  1.00  0.00     0.127 C 
HETATM    4  C   UNL     1      41.973  -9.615   9.395  1.00  0.00     0.037 C 
HETATM    5  C   UNL     1      42.514  -8.329  10.063  1.00  0.00     0.019 C 
HETATM    6  C   UNL     1      41.735  -7.024   9.627  1.00  0.00     0.162 C 
HETATM    7  C   UNL     1      41.561  -6.147  10.910  1.00  0.00     0.148 C 
HETATM    8  C   UNL     1      41.733  -7.145  12.017  1.00  0.00    -0.026 A 
HETATM    9  C   UNL     1      42.277  -8.347  11.562  1.00  0.00    -0.038 A 
HETATM   10  C   UNL     1      41.444  -6.948  13.363  1.00  0.00     0.010 A 
HETATM   11  C   UNL     1      41.712  -7.979  14.264  1.00  0.00     0.001 A 
HETATM   12  C   UNL     1      42.270  -9.182  13.815  1.00  0.00     0.001 A 
HETATM   13  C   UNL     1      42.559  -9.370  12.461  1.00  0.00     0.009 A 
HETATM   14  C   UNL     1      44.033  -8.195   9.773  1.00  0.00     0.037 C 
HETATM   15  C   UNL     1      44.349  -8.349   8.280  1.00  0.00     0.127 C 
HETATM   16  O   UNL     1      45.789 -10.656   7.939  1.00  0.00    -0.266 OA
ENDROOT
BRANCH   6  17
HETATM   17  O   UNL     1      40.450  -7.378   9.074  1.00  0.00    -0.380 OA
BRANCH  17  18
HETATM   18  C   UNL     1      40.019  -6.487   8.041  1.00  0.00     0.194 C 
BRANCH  18  19
HETATM   19  C   UNL     1      39.086  -7.237   7.095  1.00  0.00     0.193 C 
BRANCH  19  20
HETATM   20  O   UNL     1      38.897  -8.569   7.567  1.00  0.00    -0.394 OA
HETATM   21  C   UNL     1      38.990  -9.517   6.512  1.00  0.00     0.201 C 
ENDBRANCH  19  20
ENDBRANCH  18  19
ENDBRANCH  17  18
ENDBRANCH   6  17
BRANCH   7  22
HETATM   22  N   UNL     1      42.540  -5.083  11.040  1.00  0.00    -0.350 N 
HETATM   23  C   UNL     1      42.332  -3.848  10.474  1.00  0.00     0.221 C 
HETATM   24  O   UNL     1      41.403  -3.623   9.706  1.00  0.00    -0.273 OA
HETATM   25  H   UNL     1      43.297  -5.212  11.698  1.00  0.00     0.163 HD
BRANCH  23  26
HETATM   26  C   UNL     1      43.354  -2.795  10.891  1.00  0.00     0.070 C 
HETATM   27  C   UNL     1      43.134  -1.489  10.131  1.00  0.00     0.019 C 
HETATM   28  C   UNL     1      43.275  -2.547  12.397  1.00  0.00     0.019 C 
ENDBRANCH  23  26
ENDBRANCH   7  22
BRANCH   1  29
HETATM   29  C   UNL     1      44.065 -11.947   7.035  1.00  0.00     0.154 A 
HETATM   30  N   UNL     1      43.812 -13.046   7.767  1.00  0.00    -0.123 NA
HETATM   31  O   UNL     1      43.369 -14.008   6.884  1.00  0.00    -0.217 OA
HETATM   32  C   UNL     1      43.274 -13.475   5.638  1.00  0.00     0.081 A 
HETATM   33  C   UNL     1      43.674 -12.163   5.685  1.00  0.00     0.074 A 
BRANCH  32  34
HETATM   34  C   UNL     1      42.843 -14.386   4.548  1.00  0.00     0.071 C 
BRANCH  34  35
HETATM   35  C   UNL     1      42.618 -15.840   5.001  1.00  0.00    -0.017 C 
HETATM   36  C   UNL     1      43.314 -16.851   4.086  1.00  0.00     0.010 C 
HETATM   37  C   UNL     1      41.115 -16.140   5.031  1.00  0.00     0.010 C 
ENDBRANCH  34  35
ENDBRANCH  32  34
ENDBRANCH   1  29
TORSDOF 9
ENDMDL
MODEL 7
REMARK VINA RESULT:      -7.1      2.527      3.514
REMARK  9 active torsions:
REMARK  status: ('A' for Active; 'I' for Inactive)
REMARK    1  A    between atoms: C_2  and  C_3 
REMARK    2  A    between atoms: C_3  and  C_4 
REMARK    3  A    between atoms: C_7  and  C_8 
REMARK       I    between atoms: C_8  and  N_9 
REMARK    4  A    between atoms: C_13  and  O_14 
REMARK    5  A    between atoms: O_14  and  C_15 
REMARK    6  A    between atoms: C_15  and  C_16 
REMARK    7  A    between atoms: C_16  and  O_17 
REMARK    8  A    between atoms: C_19  and  N_20 
REMARK       I    between atoms: N_20  and  C_21 
REMARK    9  A    between atoms: C_21  and  C_22 
ROOT
HETATM    1  C   UNL     1      40.547 -14.933   2.723  1.00  0.00     0.274 C 
HETATM    2  N   UNL     1      40.661 -13.759   3.490  1.00  0.00    -0.347 N 
HETATM    3  C   UNL     1      41.916 -13.038   3.708  1.00  0.00     0.127 C 
HETATM    4  C   UNL     1      42.019 -11.902   2.692  1.00  0.00     0.037 C 
HETATM    5  C   UNL     1      40.820 -10.931   2.808  1.00  0.00     0.019 C 
HETATM    6  C   UNL     1      40.854 -10.051   4.120  1.00  0.00     0.162 C 
HETATM    7  C   UNL     1      40.404  -8.610   3.715  1.00  0.00     0.148 C 
HETATM    8  C   UNL     1      40.651  -8.592   2.235  1.00  0.00    -0.026 A 
HETATM    9  C   UNL     1      40.863  -9.872   1.722  1.00  0.00    -0.038 A 
HETATM   10  C   UNL     1      40.644  -7.475   1.407  1.00  0.00     0.010 A 
HETATM   11  C   UNL     1      40.849  -7.653   0.039  1.00  0.00     0.001 A 
HETATM   12  C   UNL     1      41.049  -8.937  -0.484  1.00  0.00     0.001 A 
HETATM   13  C   UNL     1      41.053 -10.054   0.356  1.00  0.00     0.009 A 
HETATM   14  C   UNL     1      39.494 -11.733   2.707  1.00  0.00     0.037 C 
HETATM   15  C   UNL     1      39.473 -12.930   3.666  1.00  0.00     0.127 C 
HETATM   16  O   UNL     1      39.484 -15.228   2.172  1.00  0.00    -0.266 OA
ENDROOT
BRANCH   6  17
HETATM   17  O   UNL     1      42.189 -10.033   4.668  1.00  0.00    -0.380 OA
BRANCH  17  18
HETATM   18  C   UNL     1      42.209  -9.895   6.092  1.00  0.00     0.194 C 
BRANCH  18  19
HETATM   19  C   UNL     1      43.191 -10.906   6.675  1.00  0.00     0.193 C 
BRANCH  19  20
HETATM   20  O   UNL     1      44.196 -11.209   5.710  1.00  0.00    -0.394 OA
HETATM   21  C   UNL     1      45.488 -11.270   6.299  1.00  0.00     0.201 C 
ENDBRANCH  19  20
ENDBRANCH  18  19
ENDBRANCH  17  18
ENDBRANCH   6  17
BRANCH   7  22
HETATM   22  N   UNL     1      39.008  -8.323   3.992  1.00  0.00    -0.350 N 
HETATM   23  C   UNL     1      38.625  -7.692   5.151  1.00  0.00     0.221 C 
HETATM   24  O   UNL     1      39.403  -7.482   6.076  1.00  0.00    -0.273 OA
HETATM   25  H   UNL     1      38.341  -8.440   3.240  1.00  0.00     0.163 HD
BRANCH  23  26
HETATM   26  C   UNL     1      37.156  -7.279   5.177  1.00  0.00     0.070 C 
HETATM   27  C   UNL     1      36.935  -6.103   6.125  1.00  0.00     0.019 C 
HETATM   28  C   UNL     1      36.684  -6.916   3.769  1.00  0.00     0.019 C 
ENDBRANCH  23  26
ENDBRANCH   7  22
BRANCH   1  29
HETATM   29  C   UNL     1      41.716 -15.809   2.543  1.00  0.00     0.154 A 
HETATM   30  N   UNL     1      42.560 -15.729   1.500  1.00  0.00    -0.123 NA
HETATM   31  O   UNL     1      43.481 -16.742   1.667  1.00  0.00    -0.217 OA
HETATM   32  C   UNL     1      43.250 -17.380   2.843  1.00  0.00     0.081 A 
HETATM   33  C   UNL     1      42.161 -16.808   3.452  1.00  0.00     0.074 A 
BRANCH  32  34
HETATM   34  C   UNL     1      44.133 -18.528   3.170  1.00  0.00     0.071 C 
BRANCH  34  35
HETATM   35  C   UNL     1      43.439 -19.898   3.068  1.00  0.00    -0.017 C 
HETATM   36  C   UNL     1      43.973 -20.902   4.094  1.00  0.00     0.010 C 
HETATM   37  C   UNL     1      43.636 -20.468   1.658  1.00  0.00     0.010 C 
ENDBRANCH  34  35
ENDBRANCH  32  34
ENDBRANCH   1  29
TORSDOF 9
ENDMDL
MODEL 8
REMARK VINA RESULT:      -6.8      2.227      4.396
REMARK  9 active torsions:
REMARK  status: ('A' for Active; 'I' for Inactive)
REMARK    1  A    between atoms: C_2  and  C_3 
REMARK    2  A    between atoms: C_3  and  C_4 
REMARK    3  A    between atoms: C_7  and  C_8 
REMARK       I    between atoms: C_8  and  N_9 
REMARK    4  A    between atoms: C_13  and  O_14 
REMARK    5  A    between atoms: O_14  and  C_15 
REMARK    6  A    between atoms: C_15  and  C_16 
REMARK    7  A    between atoms: C_16  and  O_17 
REMARK    8  A    between atoms: C_19  and  N_20 
REMARK       I    between atoms: N_20  and  C_21 
REMARK    9  A    between atoms: C_21  and  C_22 
ROOT
HETATM    1  C   UNL     1      42.274 -13.201   3.452  1.00  0.00     0.274 C 
HETATM    2  N   UNL     1      41.516 -12.259   4.171  1.00  0.00    -0.347 N 
HETATM    3  C   UNL     1      41.022 -12.468   5.534  1.00  0.00     0.127 C 
HETATM    4  C   UNL     1      42.001 -11.833   6.520  1.00  0.00     0.037 C 
HETATM    5  C   UNL     1      42.178 -10.321   6.244  1.00  0.00     0.019 C 
HETATM    6  C   UNL     1      40.904  -9.464   6.621  1.00  0.00     0.162 C 
HETATM    7  C   UNL     1      41.421  -8.151   7.294  1.00  0.00     0.148 C 
HETATM    8  C   UNL     1      42.803  -8.529   7.737  1.00  0.00    -0.026 A 
HETATM    9  C   UNL     1      43.238  -9.718   7.147  1.00  0.00    -0.038 A 
HETATM   10  C   UNL     1      43.625  -7.809   8.597  1.00  0.00     0.010 A 
HETATM   11  C   UNL     1      44.906  -8.293   8.863  1.00  0.00     0.001 A 
HETATM   12  C   UNL     1      45.352  -9.477   8.263  1.00  0.00     0.001 A 
HETATM   13  C   UNL     1      44.520 -10.194   7.399  1.00  0.00     0.009 A 
HETATM   14  C   UNL     1      42.573 -10.110   4.757  1.00  0.00     0.037 C 
HETATM   15  C   UNL     1      41.630 -10.851   3.801  1.00  0.00     0.127 C 
HETATM   16  O   UNL     1      43.052 -12.842   2.566  1.00  0.00    -0.266 OA
ENDROOT
BRANCH   6  17
HETATM   17  O   UNL     1      40.063 -10.205   7.529  1.00  0.00    -0.380 OA
BRANCH  17  18
HETATM   18  C   UNL     1      39.254  -9.364   8.358  1.00  0.00     0.194 C 
BRANCH  18  19
HETATM   19  C   UNL     1      39.072 -10.033   9.717  1.00  0.00     0.193 C 
BRANCH  19  20
HETATM   20  O   UNL     1      39.309  -9.083  10.753  1.00  0.00    -0.394 OA
HETATM   21  C   UNL     1      38.959  -7.766  10.346  1.00  0.00     0.201 C 
ENDBRANCH  19  20
ENDBRANCH  18  19
ENDBRANCH  17  18
ENDBRANCH   6  17
BRANCH   7  22
HETATM   22  N   UNL     1      41.478  -7.008   6.401  1.00  0.00    -0.350 N 
HETATM   23  C   UNL     1      40.579  -5.973   6.505  1.00  0.00     0.221 C 
HETATM   24  O   UNL     1      39.597  -6.025   7.237  1.00  0.00    -0.273 OA
HETATM   25  H   UNL     1      42.295  -6.905   5.813  1.00  0.00     0.163 HD
BRANCH  23  26
HETATM   26  C   UNL     1      40.919  -4.766   5.636  1.00  0.00     0.070 C 
HETATM   27  C   UNL     1      41.254  -3.550   6.497  1.00  0.00     0.019 C 
HETATM   28  C   UNL     1      42.090  -5.094   4.709  1.00  0.00     0.019 C 
ENDBRANCH  23  26
ENDBRANCH   7  22
BRANCH   1  29
HETATM   29  C   UNL     1      42.167 -14.632   3.778  1.00  0.00     0.154 A 
HETATM   30  N   UNL     1      41.087 -15.385   3.508  1.00  0.00    -0.123 NA
HETATM   31  O   UNL     1      41.354 -16.641   4.010  1.00  0.00    -0.217 OA
HETATM   32  C   UNL     1      42.618 -16.676   4.507  1.00  0.00     0.081 A 
HETATM   33  C   UNL     1      43.187 -15.436   4.357  1.00  0.00     0.074 A 
BRANCH  32  34
HETATM   34  C   UNL     1      43.064 -17.951   5.123  1.00  0.00     0.071 C 
BRANCH  34  35
HETATM   35  C   UNL     1      44.135 -18.697   4.307  1.00  0.00    -0.017 C 
HETATM   36  C   UNL     1      43.781 -18.782   2.819  1.00  0.00     0.010 C 
HETATM   37  C   UNL     1      44.308 -20.115   4.864  1.00  0.00     0.010 C 
ENDBRANCH  34  35
ENDBRANCH  32  34
ENDBRANCH   1  29
TORSDOF 9
ENDMDL
MODEL 9
REMARK VINA RESULT:      -6.7     17.751     20.424
REMARK  9 active torsions:
REMARK  status: ('A' for Active; 'I' for Inactive)
REMARK    1  A    between atoms: C_2  and  C_3 
REMARK    2  A    between atoms: C_3  and  C_4 
REMARK    3  A    between atoms: C_7  and  C_8 
REMARK       I    between atoms: C_8  and  N_9 
REMARK    4  A    between atoms: C_13  and  O_14 
REMARK    5  A    between atoms: O_14  and  C_15 
REMARK    6  A    between atoms: C_15  and  C_16 
REMARK    7  A    between atoms: C_16  and  O_17 
REMARK    8  A    between atoms: C_19  and  N_20 
REMARK       I    between atoms: N_20  and  C_21 
REMARK    9  A    between atoms: C_21  and  C_22 
ROOT
HETATM    1  C   UNL     1      41.263 -31.216   4.887  1.00  0.00     0.274 C 
HETATM    2  N   UNL     1      42.391 -30.915   4.103  1.00  0.00    -0.347 N 
HETATM    3  C   UNL     1      43.615 -31.719   4.080  1.00  0.00     0.127 C 
HETATM    4  C   UNL     1      43.553 -32.686   2.898  1.00  0.00     0.037 C 
HETATM    5  C   UNL     1      43.387 -31.928   1.558  1.00  0.00     0.019 C 
HETATM    6  C   UNL     1      44.685 -31.138   1.124  1.00  0.00     0.162 C 
HETATM    7  C   UNL     1      44.844 -31.334  -0.419  1.00  0.00     0.148 C 
HETATM    8  C   UNL     1      44.029 -32.567  -0.679  1.00  0.00    -0.026 A 
HETATM    9  C   UNL     1      43.207 -32.892   0.401  1.00  0.00    -0.038 A 
HETATM   10  C   UNL     1      44.016 -33.321  -1.848  1.00  0.00     0.010 A 
HETATM   11  C   UNL     1      43.156 -34.416  -1.930  1.00  0.00     0.001 A 
HETATM   12  C   UNL     1      42.320 -34.739  -0.855  1.00  0.00     0.001 A 
HETATM   13  C   UNL     1      42.339 -33.976   0.316  1.00  0.00     0.009 A 
HETATM   14  C   UNL     1      42.161 -30.981   1.649  1.00  0.00     0.037 C 
HETATM   15  C   UNL     1      42.204 -30.102   2.905  1.00  0.00     0.127 C 
HETATM   16  O   UNL     1      40.138 -30.845   4.545  1.00  0.00    -0.266 OA
ENDROOT
BRANCH   6  17
HETATM   17  O   UNL     1      45.836 -31.656   1.824  1.00  0.00    -0.380 OA
BRANCH  17  18
HETATM   18  C   UNL     1      46.719 -30.631   2.289  1.00  0.00     0.194 C 
BRANCH  18  19
HETATM   19  C   UNL     1      45.906 -29.379   2.601  1.00  0.00     0.193 C 
BRANCH  19  20
HETATM   20  O   UNL     1      46.555 -28.237   2.047  1.00  0.00    -0.394 OA
HETATM   21  C   UNL     1      47.426 -28.594   0.982  1.00  0.00     0.201 C 
ENDBRANCH  19  20
ENDBRANCH  18  19
ENDBRANCH  17  18
ENDBRANCH   6  17
BRANCH   7  22
HETATM   22  N   UNL     1      44.343 -30.228  -1.213  1.00  0.00    -0.350 N 
HETATM   23  C   UNL     1      45.080 -29.696  -2.244  1.00  0.00     0.221 C 
HETATM   24  O   UNL     1      46.248 -30.010  -2.449  1.00  0.00    -0.273 OA
HETATM   25  H   UNL     1      43.370 -29.968  -1.107  1.00  0.00     0.163 HD
BRANCH  23  26
HETATM   26  C   UNL     1      44.315 -28.693  -3.102  1.00  0.00     0.070 C 
HETATM   27  C   UNL     1      45.266 -27.681  -3.738  1.00  0.00     0.019 C 
HETATM   28  C   UNL     1      43.519 -29.421  -4.185  1.00  0.00     0.019 C 
ENDBRANCH  23  26
ENDBRANCH   7  22
BRANCH   1  29
HETATM   29  C   UNL     1      41.414 -32.013   6.115  1.00  0.00     0.154 A 
HETATM   30  N   UNL     1      40.924 -33.256   6.269  1.00  0.00    -0.123 NA
HETATM   31  O   UNL     1      41.224 -33.635   7.561  1.00  0.00    -0.217 OA
HETATM   32  C   UNL     1      41.962 -32.665   8.161  1.00  0.00     0.081 A 
HETATM   33  C   UNL     1      42.136 -31.629   7.278  1.00  0.00     0.074 A 
BRANCH  32  34
HETATM   34  C   UNL     1      42.347 -32.893   9.577  1.00  0.00     0.071 C 
BRANCH  34  35
HETATM   35  C   UNL     1      41.659 -31.941  10.572  1.00  0.00    -0.017 C 
HETATM   36  C   UNL     1      42.612 -30.866  11.106  1.00  0.00     0.010 C 
HETATM   37  C   UNL     1      41.100 -32.747  11.750  1.00  0.00     0.010 C 
ENDBRANCH  34  35
ENDBRANCH  32  34
ENDBRANCH   1  29
TORSDOF 9
ENDMDL
MODEL 10
REMARK VINA RESULT:      -6.6     18.317     20.820
REMARK  9 active torsions:
REMARK  status: ('A' for Active; 'I' for Inactive)
REMARK    1  A    between atoms: C_2  and  C_3 
REMARK    2  A    between atoms: C_3  and  C_4 
REMARK    3  A    between atoms: C_7  and  C_8 
REMARK       I    between atoms: C_8  and  N_9 
REMARK    4  A    between atoms: C_13  and  O_14 
REMARK    5  A    between atoms: O_14  and  C_15 
REMARK    6  A    between atoms: C_15  and  C_16 
REMARK    7  A    between atoms: C_16  and  O_17 
REMARK    8  A    between atoms: C_19  and  N_20 
REMARK       I    between atoms: N_20  and  C_21 
REMARK    9  A    between atoms: C_21  and  C_22 
ROOT
HETATM    1  C   UNL     1      44.125 -32.867   1.535  1.00  0.00     0.274 C 
HETATM    2  N   UNL     1      45.099 -32.075   0.900  1.00  0.00    -0.347 N 
HETATM    3  C   UNL     1      45.279 -30.642   1.142  1.00  0.00     0.127 C 
HETATM    4  C   UNL     1      46.381 -30.448   2.183  1.00  0.00     0.037 C 
HETATM    5  C   UNL     1      47.714 -31.082   1.718  1.00  0.00     0.019 C 
HETATM    6  C   UNL     1      48.397 -30.295   0.529  1.00  0.00     0.162 C 
HETATM    7  C   UNL     1      49.933 -30.268   0.824  1.00  0.00     0.148 C 
HETATM    8  C   UNL     1      49.989 -30.524   2.301  1.00  0.00    -0.026 A 
HETATM    9  C   UNL     1      48.772 -30.993   2.801  1.00  0.00    -0.038 A 
HETATM   10  C   UNL     1      51.097 -30.372   3.127  1.00  0.00     0.010 A 
HETATM   11  C   UNL     1      50.977 -30.703   4.478  1.00  0.00     0.001 A 
HETATM   12  C   UNL     1      49.764 -31.186   4.981  1.00  0.00     0.001 A 
HETATM   13  C   UNL     1      48.655 -31.336   4.143  1.00  0.00     0.009 A 
HETATM   14  C   UNL     1      47.475 -32.569   1.339  1.00  0.00     0.037 C 
HETATM   15  C   UNL     1      46.292 -32.734   0.377  1.00  0.00     0.127 C 
HETATM   16  O   UNL     1      44.297 -34.078   1.690  1.00  0.00    -0.266 OA
ENDROOT
BRANCH   6  17
HETATM   17  O   UNL     1      47.869 -28.955   0.456  1.00  0.00    -0.380 OA
BRANCH  17  18
HETATM   18  C   UNL     1      48.104 -28.326  -0.807  1.00  0.00     0.194 C 
BRANCH  18  19
HETATM   19  C   UNL     1      47.137 -28.902  -1.837  1.00  0.00     0.193 C 
BRANCH  19  20
HETATM   20  O   UNL     1      45.862 -28.281  -1.694  1.00  0.00    -0.394 OA
HETATM   21  C   UNL     1      45.235 -28.076  -2.953  1.00  0.00     0.201 C 
ENDBRANCH  19  20
ENDBRANCH  18  19
ENDBRANCH  17  18
ENDBRANCH   6  17
BRANCH   7  22
HETATM   22  N   UNL     1      50.693 -31.280   0.113  1.00  0.00    -0.350 N 
HETATM   23  C   UNL     1      51.292 -31.007  -1.094  1.00  0.00     0.221 C 
HETATM   24  O   UNL     1      51.092 -29.965  -1.708  1.00  0.00    -0.273 OA
HETATM   25  H   UNL     1      50.918 -32.137   0.602  1.00  0.00     0.163 HD
BRANCH  23  26
HETATM   26  C   UNL     1      52.222 -32.111  -1.588  1.00  0.00     0.070 C 
HETATM   27  C   UNL     1      52.521 -33.112  -0.475  1.00  0.00     0.019 C 
HETATM   28  C   UNL     1      51.602 -32.827  -2.788  1.00  0.00     0.019 C 
ENDBRANCH  23  26
ENDBRANCH   7  22
BRANCH   1  29
HETATM   29  C   UNL     1      42.897 -32.244   2.055  1.00  0.00     0.154 A 
HETATM   30  N   UNL     1      41.861 -31.870   1.284  1.00  0.00    -0.123 NA
HETATM   31  O   UNL     1      40.939 -31.286   2.128  1.00  0.00    -0.217 OA
HETATM   32  C   UNL     1      41.373 -31.379   3.412  1.00  0.00     0.081 A 
HETATM   33  C   UNL     1      42.595 -32.005   3.424  1.00  0.00     0.074 A 
BRANCH  32  34
HETATM   34  C   UNL     1      40.515 -30.768   4.458  1.00  0.00     0.071 C 
BRANCH  34  35
HETATM   35  C   UNL     1      39.823 -31.792   5.376  1.00  0.00    -0.017 C 
HETATM   36  C   UNL     1      40.762 -32.334   6.458  1.00  0.00     0.010 C 
HETATM   37  C   UNL     1      39.299 -32.961   4.534  1.00  0.00     0.010 C 
ENDBRANCH  34  35
ENDBRANCH  32  34
ENDBRANCH   1  29
TORSDOF 9
ENDMDL
