MODEL 1
REMARK VINA RESULT:      -9.3      0.000      0.000
REMARK  8 active torsions:
REMARK  status: ('A' for Active; 'I' for Inactive)
REMARK    1  A    between atoms: C_4  and  O_5 
REMARK    2  A    between atoms: O_5  and  C_6 
REMARK    3  A    between atoms: C_8  and  C_9 
REMARK    4  A    between atoms: C_9  and  N_10 
REMARK    5  A    between atoms: C_9  and  C_14 
REMARK       I    between atoms: N_10  and  C_11 
REMARK       I    between atoms: C_11  and  N_12 
REMARK    6  A    between atoms: C_14  and  C_15 
REMARK       I    between atoms: C_15  and  N_16 
REMARK    7  A    between atoms: N_16  and  N_17 
REMARK       I    between atoms: N_17  and  C_18 
REMARK    8  A    between atoms: C_18  and  C_19 
ROOT
HETATM    1  C   UNL     1      42.844 -12.332   6.014  1.00  0.00     0.128 C 
ENDROOT
BRANCH   1   2
HETATM    2  C   UNL     1      42.475 -13.813   6.001  1.00  0.00    -0.032 A 
HETATM    3  C   UNL     1      43.403 -14.821   5.691  1.00  0.00     0.046 A 
HETATM    4  C   UNL     1      43.029 -16.168   5.685  1.00  0.00     0.076 A 
HETATM    5  C   UNL     1      41.731 -16.537   6.034  1.00  0.00     0.037 A 
HETATM    6  C   UNL     1      40.790 -15.551   6.322  1.00  0.00     0.003 A 
HETATM    7  C   UNL     1      41.154 -14.203   6.290  1.00  0.00     0.009 A 
BRANCH   4   8
HETATM    8  O   UNL     1      44.023 -17.076   5.398  1.00  0.00    -0.311 OA
BRANCH   8   9
HETATM    9  C   UNL     1      43.793 -18.015   4.418  1.00  0.00     0.076 A 
HETATM   10  C   UNL     1      43.282 -17.702   3.156  1.00  0.00     0.037 A 
HETATM   11  C   UNL     1      43.110 -18.712   2.208  1.00  0.00     0.003 A 
HETATM   12  C   UNL     1      43.470 -20.026   2.511  1.00  0.00     0.000 A 
HETATM   13  C   UNL     1      44.010 -20.331   3.760  1.00  0.00     0.003 A 
HETATM   14  C   UNL     1      44.177 -19.324   4.712  1.00  0.00     0.037 A 
ENDBRANCH   8   9
ENDBRANCH   4   8
ENDBRANCH   1   2
BRANCH   1  15
HETATM   15  N   UNL     1      42.511 -11.649   4.769  1.00  0.00    -0.334 N 
HETATM   16  C   UNL     1      42.140 -10.339   4.769  1.00  0.00     0.314 C 
HETATM   17  N   UNL     1      41.997  -9.849   3.513  1.00  0.00    -0.352 N 
HETATM   18  O   UNL     1      41.944  -9.653   5.760  1.00  0.00    -0.248 OA
HETATM   19  H   UNL     1      41.669 -10.491   2.806  1.00  0.00     0.160 HD
HETATM   20  H   UNL     1      41.594  -8.921   3.478  1.00  0.00     0.160 HD
HETATM   21  H   UNL     1      43.096 -11.899   3.977  1.00  0.00     0.165 HD
ENDBRANCH   1  15
BRANCH   1  22
HETATM   22  C   UNL     1      44.319 -12.098   6.385  1.00  0.00     0.134 C 
BRANCH  22  23
HETATM   23  C   UNL     1      44.440 -11.412   7.729  1.00  0.00     0.238 C 
HETATM   24  N   UNL     1      43.234 -11.038   8.285  1.00  0.00    -0.267 N 
HETATM   25  H   UNL     1      42.367 -11.508   8.024  1.00  0.00     0.190 HD
HETATM   26  O   UNL     1      45.527 -11.198   8.265  1.00  0.00    -0.272 OA
BRANCH  24  27
HETATM   27  N   UNL     1      43.257 -10.540   9.591  1.00  0.00    -0.262 N 
HETATM   28  C   UNL     1      42.479  -9.441   9.901  1.00  0.00     0.288 C 
HETATM   29  O   UNL     1      41.890  -8.771   9.057  1.00  0.00    -0.264 OA
HETATM   30  H   UNL     1      43.576 -11.159  10.341  1.00  0.00     0.190 HD
BRANCH  28  31
HETATM   31  C   UNL     1      42.414  -9.134  11.364  1.00  0.00     0.125 A 
HETATM   32  N   UNL     1      41.464  -9.803  12.077  1.00  0.00    -0.255 NA
HETATM   33  C   UNL     1      41.410  -9.540  13.400  1.00  0.00     0.117 A 
HETATM   34  C   UNL     1      42.251  -8.644  14.043  1.00  0.00     0.019 A 
HETATM   35  C   UNL     1      43.210  -7.972  13.288  1.00  0.00     0.004 A 
HETATM   36  C   UNL     1      43.297  -8.218  11.921  1.00  0.00     0.037 A 
ENDBRANCH  28  31
ENDBRANCH  24  27
ENDBRANCH  22  23
ENDBRANCH   1  22
TORSDOF 8
ENDMDL
MODEL 2
REMARK VINA RESULT:      -9.1      5.066      8.480
REMARK  8 active torsions:
REMARK  status: ('A' for Active; 'I' for Inactive)
REMARK    1  A    between atoms: C_4  and  O_5 
REMARK    2  A    between atoms: O_5  and  C_6 
REMARK    3  A    between atoms: C_8  and  C_9 
REMARK    4  A    between atoms: C_9  and  N_10 
REMARK    5  A    between atoms: C_9  and  C_14 
REMARK       I    between atoms: N_10  and  C_11 
REMARK       I    between atoms: C_11  and  N_12 
REMARK    6  A    between atoms: C_14  and  C_15 
REMARK       I    between atoms: C_15  and  N_16 
REMARK    7  A    between atoms: N_16  and  N_17 
REMARK       I    between atoms: N_17  and  C_18 
REMARK    8  A    between atoms: C_18  and  C_19 
ROOT
HETATM    1  C   UNL     1      41.846 -13.540   4.388  1.00  0.00     0.128 C 
ENDROOT
BRANCH   1   2
HETATM    2  C   UNL     1      42.377 -14.675   5.259  1.00  0.00    -0.032 A 
HETATM    3  C   UNL     1      43.330 -15.599   4.797  1.00  0.00     0.046 A 
HETATM    4  C   UNL     1      43.792 -16.630   5.622  1.00  0.00     0.076 A 
HETATM    5  C   UNL     1      43.345 -16.728   6.939  1.00  0.00     0.037 A 
HETATM    6  C   UNL     1      42.383 -15.837   7.406  1.00  0.00     0.003 A 
HETATM    7  C   UNL     1      41.893 -14.831   6.571  1.00  0.00     0.009 A 
BRANCH   4   8
HETATM    8  O   UNL     1      44.749 -17.460   5.083  1.00  0.00    -0.311 OA
BRANCH   8   9
HETATM    9  C   UNL     1      44.335 -18.545   4.343  1.00  0.00     0.076 A 
HETATM   10  C   UNL     1      44.067 -18.487   2.973  1.00  0.00     0.037 A 
HETATM   11  C   UNL     1      43.684 -19.644   2.292  1.00  0.00     0.003 A 
HETATM   12  C   UNL     1      43.593 -20.859   2.972  1.00  0.00     0.000 A 
HETATM   13  C   UNL     1      43.893 -20.922   4.333  1.00  0.00     0.003 A 
HETATM   14  C   UNL     1      44.270 -19.765   5.017  1.00  0.00     0.037 A 
ENDBRANCH   8   9
ENDBRANCH   4   8
ENDBRANCH   1   2
BRANCH   1  15
HETATM   15  N   UNL     1      40.563 -13.850   3.766  1.00  0.00    -0.334 N 
HETATM   16  C   UNL     1      39.565 -12.923   3.727  1.00  0.00     0.314 C 
HETATM   17  N   UNL     1      38.503 -13.349   2.999  1.00  0.00    -0.352 N 
HETATM   18  O   UNL     1      39.583 -11.831   4.272  1.00  0.00    -0.248 OA
HETATM   19  H   UNL     1      38.305 -14.338   3.014  1.00  0.00     0.160 HD
HETATM   20  H   UNL     1      37.695 -12.742   3.061  1.00  0.00     0.160 HD
HETATM   21  H   UNL     1      40.623 -14.409   2.921  1.00  0.00     0.165 HD
ENDBRANCH   1  15
BRANCH   1  22
HETATM   22  C   UNL     1      42.866 -13.084   3.330  1.00  0.00     0.134 C 
BRANCH  22  23
HETATM   23  C   UNL     1      42.207 -12.911   1.979  1.00  0.00     0.238 C 
HETATM   24  N   UNL     1      42.089 -14.078   1.251  1.00  0.00    -0.267 N 
HETATM   25  H   UNL     1      42.082 -14.986   1.714  1.00  0.00     0.190 HD
HETATM   26  O   UNL     1      41.824 -11.815   1.566  1.00  0.00    -0.272 OA
BRANCH  24  27
HETATM   27  N   UNL     1      41.355 -14.022   0.063  1.00  0.00    -0.262 N 
HETATM   28  C   UNL     1      40.114 -14.628   0.016  1.00  0.00     0.288 C 
HETATM   29  O   UNL     1      39.684 -15.356   0.907  1.00  0.00    -0.264 OA
HETATM   30  H   UNL     1      41.586 -13.292  -0.616  1.00  0.00     0.190 HD
BRANCH  28  31
HETATM   31  C   UNL     1      39.332 -14.318  -1.221  1.00  0.00     0.125 A 
HETATM   32  N   UNL     1      39.086 -15.367  -2.056  1.00  0.00    -0.255 NA
HETATM   33  C   UNL     1      38.369 -15.096  -3.166  1.00  0.00     0.117 A 
HETATM   34  C   UNL     1      37.890 -13.835  -3.487  1.00  0.00     0.019 A 
HETATM   35  C   UNL     1      38.160 -12.780  -2.617  1.00  0.00     0.004 A 
HETATM   36  C   UNL     1      38.896 -13.021  -1.460  1.00  0.00     0.037 A 
ENDBRANCH  28  31
ENDBRANCH  24  27
ENDBRANCH  22  23
ENDBRANCH   1  22
TORSDOF 8
ENDMDL
MODEL 3
REMARK VINA RESULT:      -9.0      2.666      3.677
REMARK  8 active torsions:
REMARK  status: ('A' for Active; 'I' for Inactive)
REMARK    1  A    between atoms: C_4  and  O_5 
REMARK    2  A    between atoms: O_5  and  C_6 
REMARK    3  A    between atoms: C_8  and  C_9 
REMARK    4  A    between atoms: C_9  and  N_10 
REMARK    5  A    between atoms: C_9  and  C_14 
REMARK       I    between atoms: N_10  and  C_11 
REMARK       I    between atoms: C_11  and  N_12 
REMARK    6  A    between atoms: C_14  and  C_15 
REMARK       I    between atoms: C_15  and  N_16 
REMARK    7  A    between atoms: N_16  and  N_17 
REMARK       I    between atoms: N_17  and  C_18 
REMARK    8  A    between atoms: C_18  and  C_19 
ROOT
HETATM    1  C   UNL     1      41.723 -13.244   2.418  1.00  0.00     0.128 C 
ENDROOT
BRANCH   1   2
HETATM    2  C   UNL     1      41.803 -14.402   3.409  1.00  0.00    -0.032 A 
HETATM    3  C   UNL     1      42.907 -15.269   3.471  1.00  0.00     0.046 A 
HETATM    4  C   UNL     1      42.946 -16.322   4.389  1.00  0.00     0.076 A 
HETATM    5  C   UNL     1      41.901 -16.501   5.296  1.00  0.00     0.037 A 
HETATM    6  C   UNL     1      40.787 -15.667   5.234  1.00  0.00     0.003 A 
HETATM    7  C   UNL     1      40.732 -14.638   4.291  1.00  0.00     0.009 A 
BRANCH   4   8
HETATM    8  O   UNL     1      44.087 -17.092   4.388  1.00  0.00    -0.311 OA
BRANCH   8   9
HETATM    9  C   UNL     1      43.980 -18.425   4.065  1.00  0.00     0.076 A 
HETATM   10  C   UNL     1      43.778 -18.889   2.762  1.00  0.00     0.037 A 
HETATM   11  C   UNL     1      43.714 -20.262   2.517  1.00  0.00     0.003 A 
HETATM   12  C   UNL     1      43.875 -21.169   3.565  1.00  0.00     0.000 A 
HETATM   13  C   UNL     1      44.108 -20.705   4.860  1.00  0.00     0.003 A 
HETATM   14  C   UNL     1      44.167 -19.333   5.108  1.00  0.00     0.037 A 
ENDBRANCH   8   9
ENDBRANCH   4   8
ENDBRANCH   1   2
BRANCH   1  15
HETATM   15  N   UNL     1      41.634 -13.686   1.030  1.00  0.00    -0.334 N 
HETATM   16  C   UNL     1      40.612 -13.272   0.231  1.00  0.00     0.314 C 
HETATM   17  N   UNL     1      40.770 -13.681  -1.052  1.00  0.00    -0.352 N 
HETATM   18  O   UNL     1      39.647 -12.614   0.588  1.00  0.00    -0.248 OA
HETATM   19  H   UNL     1      41.227 -14.569  -1.197  1.00  0.00     0.160 HD
HETATM   20  H   UNL     1      39.966 -13.505  -1.641  1.00  0.00     0.160 HD
HETATM   21  H   UNL     1      42.523 -13.744   0.543  1.00  0.00     0.165 HD
ENDBRANCH   1  15
BRANCH   1  22
HETATM   22  C   UNL     1      42.873 -12.238   2.595  1.00  0.00     0.134 C 
BRANCH  22  23
HETATM   23  C   UNL     1      42.816 -11.583   3.958  1.00  0.00     0.238 C 
HETATM   24  N   UNL     1      43.946 -11.775   4.727  1.00  0.00    -0.267 N 
HETATM   25  H   UNL     1      44.845 -11.985   4.295  1.00  0.00     0.190 HD
HETATM   26  O   UNL     1      41.835 -10.947   4.344  1.00  0.00    -0.272 OA
BRANCH  24  27
HETATM   27  N   UNL     1      44.028 -11.072   5.933  1.00  0.00    -0.262 N 
HETATM   28  C   UNL     1      44.183 -11.780   7.109  1.00  0.00     0.288 C 
HETATM   29  O   UNL     1      44.090 -13.003   7.179  1.00  0.00    -0.264 OA
HETATM   30  H   UNL     1      44.288 -10.083   5.902  1.00  0.00     0.190 HD
BRANCH  28  31
HETATM   31  C   UNL     1      44.477 -10.925   8.300  1.00  0.00     0.125 A 
HETATM   32  N   UNL     1      43.838 -11.260   9.456  1.00  0.00    -0.255 NA
HETATM   33  C   UNL     1      44.111 -10.499  10.537  1.00  0.00     0.117 A 
HETATM   34  C   UNL     1      44.984  -9.423  10.522  1.00  0.00     0.019 A 
HETATM   35  C   UNL     1      45.622  -9.101   9.326  1.00  0.00     0.004 A 
HETATM   36  C   UNL     1      45.367  -9.863   8.189  1.00  0.00     0.037 A 
ENDBRANCH  28  31
ENDBRANCH  24  27
ENDBRANCH  22  23
ENDBRANCH   1  22
TORSDOF 8
ENDMDL
MODEL 4
REMARK VINA RESULT:      -8.8      3.767      7.788
REMARK  8 active torsions:
REMARK  status: ('A' for Active; 'I' for Inactive)
REMARK    1  A    between atoms: C_4  and  O_5 
REMARK    2  A    between atoms: O_5  and  C_6 
REMARK    3  A    between atoms: C_8  and  C_9 
REMARK    4  A    between atoms: C_9  and  N_10 
REMARK    5  A    between atoms: C_9  and  C_14 
REMARK       I    between atoms: N_10  and  C_11 
REMARK       I    between atoms: C_11  and  N_12 
REMARK    6  A    between atoms: C_14  and  C_15 
REMARK       I    between atoms: C_15  and  N_16 
REMARK    7  A    between atoms: N_16  and  N_17 
REMARK       I    between atoms: N_17  and  C_18 
REMARK    8  A    between atoms: C_18  and  C_19 
ROOT
HETATM    1  C   UNL     1      43.412 -12.896   5.559  1.00  0.00     0.128 C 
ENDROOT
BRANCH   1   2
HETATM    2  C   UNL     1      43.016 -14.339   5.862  1.00  0.00    -0.032 A 
HETATM    3  C   UNL     1      43.828 -15.433   5.517  1.00  0.00     0.046 A 
HETATM    4  C   UNL     1      43.433 -16.742   5.806  1.00  0.00     0.076 A 
HETATM    5  C   UNL     1      42.239 -16.980   6.487  1.00  0.00     0.037 A 
HETATM    6  C   UNL     1      41.410 -15.911   6.815  1.00  0.00     0.003 A 
HETATM    7  C   UNL     1      41.787 -14.605   6.493  1.00  0.00     0.009 A 
BRANCH   4   8
HETATM    8  O   UNL     1      44.316 -17.738   5.455  1.00  0.00    -0.311 OA
BRANCH   8   9
HETATM    9  C   UNL     1      43.979 -18.579   4.418  1.00  0.00     0.076 A 
HETATM   10  C   UNL     1      43.539 -18.127   3.171  1.00  0.00     0.037 A 
HETATM   11  C   UNL     1      43.250 -19.048   2.162  1.00  0.00     0.003 A 
HETATM   12  C   UNL     1      43.423 -20.414   2.391  1.00  0.00     0.000 A 
HETATM   13  C   UNL     1      43.893 -20.862   3.626  1.00  0.00     0.003 A 
HETATM   14  C   UNL     1      44.177 -19.943   4.637  1.00  0.00     0.037 A 
ENDBRANCH   8   9
ENDBRANCH   4   8
ENDBRANCH   1   2
BRANCH   1  15
HETATM   15  N   UNL     1      44.108 -12.251   6.668  1.00  0.00    -0.334 N 
HETATM   16  C   UNL     1      45.139 -11.392   6.438  1.00  0.00     0.314 C 
HETATM   17  N   UNL     1      45.571 -10.797   7.577  1.00  0.00    -0.352 N 
HETATM   18  O   UNL     1      45.647 -11.160   5.351  1.00  0.00    -0.248 OA
HETATM   19  H   UNL     1      45.515 -11.340   8.426  1.00  0.00     0.160 HD
HETATM   20  H   UNL     1      46.419 -10.257   7.461  1.00  0.00     0.160 HD
HETATM   21  H   UNL     1      43.510 -11.961   7.436  1.00  0.00     0.165 HD
ENDBRANCH   1  15
BRANCH   1  22
HETATM   22  C   UNL     1      42.217 -12.043   5.099  1.00  0.00     0.134 C 
BRANCH  22  23
HETATM   23  C   UNL     1      42.135 -11.994   3.588  1.00  0.00     0.238 C 
HETATM   24  N   UNL     1      41.308 -12.949   3.033  1.00  0.00    -0.267 N 
HETATM   25  H   UNL     1      40.553 -13.368   3.576  1.00  0.00     0.190 HD
HETATM   26  O   UNL     1      42.768 -11.177   2.919  1.00  0.00    -0.272 OA
BRANCH  24  27
HETATM   27  N   UNL     1      41.063 -12.866   1.660  1.00  0.00    -0.262 N 
HETATM   28  C   UNL     1      40.745 -14.019   0.967  1.00  0.00     0.288 C 
HETATM   29  O   UNL     1      40.824 -15.143   1.455  1.00  0.00    -0.264 OA
HETATM   30  H   UNL     1      40.813 -11.956   1.265  1.00  0.00     0.190 HD
BRANCH  28  31
HETATM   31  C   UNL     1      40.293 -13.779  -0.439  1.00  0.00     0.125 A 
HETATM   32  N   UNL     1      39.470 -14.723  -0.976  1.00  0.00    -0.255 NA
HETATM   33  C   UNL     1      39.048 -14.504  -2.239  1.00  0.00     0.117 A 
HETATM   34  C   UNL     1      39.407 -13.397  -2.991  1.00  0.00     0.019 A 
HETATM   35  C   UNL     1      40.253 -12.450  -2.418  1.00  0.00     0.004 A 
HETATM   36  C   UNL     1      40.708 -12.639  -1.117  1.00  0.00     0.037 A 
ENDBRANCH  28  31
ENDBRANCH  24  27
ENDBRANCH  22  23
ENDBRANCH   1  22
TORSDOF 8
ENDMDL
MODEL 5
REMARK VINA RESULT:      -8.6      1.347      1.844
REMARK  8 active torsions:
REMARK  status: ('A' for Active; 'I' for Inactive)
REMARK    1  A    between atoms: C_4  and  O_5 
REMARK    2  A    between atoms: O_5  and  C_6 
REMARK    3  A    between atoms: C_8  and  C_9 
REMARK    4  A    between atoms: C_9  and  N_10 
REMARK    5  A    between atoms: C_9  and  C_14 
REMARK       I    between atoms: N_10  and  C_11 
REMARK       I    between atoms: C_11  and  N_12 
REMARK    6  A    between atoms: C_14  and  C_15 
REMARK       I    between atoms: C_15  and  N_16 
REMARK    7  A    between atoms: N_16  and  N_17 
REMARK       I    between atoms: N_17  and  C_18 
REMARK    8  A    between atoms: C_18  and  C_19 
ROOT
HETATM    1  C   UNL     1      42.158 -11.473   5.217  1.00  0.00     0.128 C 
ENDROOT
BRANCH   1   2
HETATM    2  C   UNL     1      41.968 -12.964   5.481  1.00  0.00    -0.032 A 
HETATM    3  C   UNL     1      42.998 -13.902   5.296  1.00  0.00     0.046 A 
HETATM    4  C   UNL     1      42.788 -15.262   5.544  1.00  0.00     0.076 A 
HETATM    5  C   UNL     1      41.557 -15.704   6.028  1.00  0.00     0.037 A 
HETATM    6  C   UNL     1      40.517 -14.793   6.195  1.00  0.00     0.003 A 
HETATM    7  C   UNL     1      40.715 -13.440   5.910  1.00  0.00     0.009 A 
BRANCH   4   8
HETATM    8  O   UNL     1      43.871 -16.091   5.362  1.00  0.00    -0.311 OA
BRANCH   8   9
HETATM    9  C   UNL     1      43.771 -17.110   4.443  1.00  0.00     0.076 A 
HETATM   10  C   UNL     1      44.085 -18.441   4.730  1.00  0.00     0.037 A 
HETATM   11  C   UNL     1      43.923 -19.420   3.747  1.00  0.00     0.003 A 
HETATM   12  C   UNL     1      43.425 -19.074   2.490  1.00  0.00     0.000 A 
HETATM   13  C   UNL     1      43.080 -17.750   2.215  1.00  0.00     0.003 A 
HETATM   14  C   UNL     1      43.248 -16.769   3.194  1.00  0.00     0.037 A 
ENDBRANCH   8   9
ENDBRANCH   4   8
ENDBRANCH   1   2
BRANCH   1  15
HETATM   15  N   UNL     1      42.507 -11.179   3.831  1.00  0.00    -0.334 N 
HETATM   16  C   UNL     1      41.550 -10.804   2.936  1.00  0.00     0.314 C 
HETATM   17  N   UNL     1      42.082 -10.450   1.740  1.00  0.00    -0.352 N 
HETATM   18  O   UNL     1      40.348 -10.780   3.145  1.00  0.00    -0.248 OA
HETATM   19  H   UNL     1      42.917 -10.937   1.448  1.00  0.00     0.160 HD
HETATM   20  H   UNL     1      41.393 -10.295   1.015  1.00  0.00     0.160 HD
HETATM   21  H   UNL     1      43.385 -10.685   3.707  1.00  0.00     0.165 HD
ENDBRANCH   1  15
BRANCH   1  22
HETATM   22  C   UNL     1      43.172 -10.830   6.179  1.00  0.00     0.134 C 
BRANCH  22  23
HETATM   23  C   UNL     1      42.492 -10.352   7.445  1.00  0.00     0.238 C 
HETATM   24  N   UNL     1      43.176 -10.652   8.605  1.00  0.00    -0.267 N 
HETATM   25  H   UNL     1      44.183 -10.816   8.592  1.00  0.00     0.190 HD
HETATM   26  O   UNL     1      41.412  -9.760   7.430  1.00  0.00    -0.272 OA
BRANCH  24  27
HETATM   27  N   UNL     1      42.688 -10.109   9.796  1.00  0.00    -0.262 N 
HETATM   28  C   UNL     1      43.428 -10.262  10.953  1.00  0.00     0.288 C 
HETATM   29  O   UNL     1      44.416 -10.988  11.032  1.00  0.00    -0.264 OA
HETATM   30  H   UNL     1      41.989  -9.364   9.740  1.00  0.00     0.190 HD
BRANCH  28  31
HETATM   31  C   UNL     1      42.923  -9.459  12.110  1.00  0.00     0.125 A 
HETATM   32  N   UNL     1      41.820  -9.947  12.745  1.00  0.00    -0.255 NA
HETATM   33  C   UNL     1      41.368  -9.234  13.797  1.00  0.00     0.117 A 
HETATM   34  C   UNL     1      41.958  -8.061  14.245  1.00  0.00     0.019 A 
HETATM   35  C   UNL     1      43.081  -7.584  13.574  1.00  0.00     0.004 A 
HETATM   36  C   UNL     1      43.578  -8.293  12.484  1.00  0.00     0.037 A 
ENDBRANCH  28  31
ENDBRANCH  24  27
ENDBRANCH  22  23
ENDBRANCH   1  22
TORSDOF 8
ENDMDL
MODEL 6
REMARK VINA RESULT:      -8.5      4.154      9.785
REMARK  8 active torsions:
REMARK  status: ('A' for Active; 'I' for Inactive)
REMARK    1  A    between atoms: C_4  and  O_5 
REMARK    2  A    between atoms: O_5  and  C_6 
REMARK    3  A    between atoms: C_8  and  C_9 
REMARK    4  A    between atoms: C_9  and  N_10 
REMARK    5  A    between atoms: C_9  and  C_14 
REMARK       I    between atoms: N_10  and  C_11 
REMARK       I    between atoms: C_11  and  N_12 
REMARK    6  A    between atoms: C_14  and  C_15 
REMARK       I    between atoms: C_15  and  N_16 
REMARK    7  A    between atoms: N_16  and  N_17 
REMARK       I    between atoms: N_17  and  C_18 
REMARK    8  A    between atoms: C_18  and  C_19 
ROOT
HETATM    1  C   UNL     1      42.431 -16.065   5.190  1.00  0.00     0.128 C 
ENDROOT
BRANCH   1   2
HETATM    2  C   UNL     1      42.891 -14.617   5.341  1.00  0.00    -0.032 A 
HETATM    3  C   UNL     1      43.302 -14.079   6.573  1.00  0.00     0.046 A 
HETATM    4  C   UNL     1      43.714 -12.748   6.676  1.00  0.00     0.076 A 
HETATM    5  C   UNL     1      43.769 -11.941   5.540  1.00  0.00     0.037 A 
HETATM    6  C   UNL     1      43.344 -12.449   4.315  1.00  0.00     0.003 A 
HETATM    7  C   UNL     1      42.895 -13.768   4.219  1.00  0.00     0.009 A 
BRANCH   4   8
HETATM    8  O   UNL     1      44.126 -12.330   7.921  1.00  0.00    -0.311 OA
BRANCH   8   9
HETATM    9  C   UNL     1      44.430 -11.000   8.101  1.00  0.00     0.076 A 
HETATM   10  C   UNL     1      43.486 -10.035   8.462  1.00  0.00     0.037 A 
HETATM   11  C   UNL     1      43.886  -8.712   8.656  1.00  0.00     0.003 A 
HETATM   12  C   UNL     1      45.229  -8.359   8.515  1.00  0.00     0.000 A 
HETATM   13  C   UNL     1      46.176  -9.329   8.186  1.00  0.00     0.003 A 
HETATM   14  C   UNL     1      45.777 -10.651   7.985  1.00  0.00     0.037 A 
ENDBRANCH   8   9
ENDBRANCH   4   8
ENDBRANCH   1   2
BRANCH   1  15
HETATM   15  N   UNL     1      43.236 -16.824   4.239  1.00  0.00    -0.334 N 
HETATM   16  C   UNL     1      43.794 -18.015   4.593  1.00  0.00     0.314 C 
HETATM   17  N   UNL     1      44.394 -18.628   3.543  1.00  0.00    -0.352 N 
HETATM   18  O   UNL     1      43.783 -18.504   5.711  1.00  0.00    -0.248 OA
HETATM   19  H   UNL     1      44.816 -18.033   2.845  1.00  0.00     0.160 HD
HETATM   20  H   UNL     1      44.931 -19.447   3.798  1.00  0.00     0.160 HD
HETATM   21  H   UNL     1      42.892 -16.811   3.284  1.00  0.00     0.165 HD
ENDBRANCH   1  15
BRANCH   1  22
HETATM   22  C   UNL     1      40.936 -16.173   4.844  1.00  0.00     0.134 C 
BRANCH  22  23
HETATM   23  C   UNL     1      40.710 -16.013   3.355  1.00  0.00     0.238 C 
HETATM   24  N   UNL     1      39.805 -15.026   3.021  1.00  0.00    -0.267 N 
HETATM   25  H   UNL     1      39.617 -14.251   3.656  1.00  0.00     0.190 HD
HETATM   26  O   UNL     1      41.280 -16.718   2.522  1.00  0.00    -0.272 OA
BRANCH  24  27
HETATM   27  N   UNL     1      39.663 -14.719   1.665  1.00  0.00    -0.262 N 
HETATM   28  C   UNL     1      40.201 -13.539   1.188  1.00  0.00     0.288 C 
HETATM   29  O   UNL     1      40.657 -12.661   1.916  1.00  0.00    -0.264 OA
HETATM   30  H   UNL     1      39.462 -15.481   1.013  1.00  0.00     0.190 HD
BRANCH  28  31
HETATM   31  C   UNL     1      40.181 -13.420  -0.303  1.00  0.00     0.125 A 
HETATM   32  N   UNL     1      40.785 -12.317  -0.827  1.00  0.00    -0.255 NA
HETATM   33  C   UNL     1      40.782 -12.212  -2.173  1.00  0.00     0.117 A 
HETATM   34  C   UNL     1      40.205 -13.148  -3.018  1.00  0.00     0.019 A 
HETATM   35  C   UNL     1      39.591 -14.263  -2.454  1.00  0.00     0.004 A 
HETATM   36  C   UNL     1      39.575 -14.408  -1.070  1.00  0.00     0.037 A 
ENDBRANCH  28  31
ENDBRANCH  24  27
ENDBRANCH  22  23
ENDBRANCH   1  22
TORSDOF 8
ENDMDL
MODEL 7
REMARK VINA RESULT:      -8.5      1.945      2.491
REMARK  8 active torsions:
REMARK  status: ('A' for Active; 'I' for Inactive)
REMARK    1  A    between atoms: C_4  and  O_5 
REMARK    2  A    between atoms: O_5  and  C_6 
REMARK    3  A    between atoms: C_8  and  C_9 
REMARK    4  A    between atoms: C_9  and  N_10 
REMARK    5  A    between atoms: C_9  and  C_14 
REMARK       I    between atoms: N_10  and  C_11 
REMARK       I    between atoms: C_11  and  N_12 
REMARK    6  A    between atoms: C_14  and  C_15 
REMARK       I    between atoms: C_15  and  N_16 
REMARK    7  A    between atoms: N_16  and  N_17 
REMARK       I    between atoms: N_17  and  C_18 
REMARK    8  A    between atoms: C_18  and  C_19 
ROOT
HETATM    1  C   UNL     1      41.932 -13.415   5.100  1.00  0.00     0.128 C 
ENDROOT
BRANCH   1   2
HETATM    2  C   UNL     1      41.747 -14.500   4.042  1.00  0.00    -0.032 A 
HETATM    3  C   UNL     1      42.795 -15.340   3.630  1.00  0.00     0.046 A 
HETATM    4  C   UNL     1      42.591 -16.321   2.655  1.00  0.00     0.076 A 
HETATM    5  C   UNL     1      41.323 -16.512   2.108  1.00  0.00     0.037 A 
HETATM    6  C   UNL     1      40.277 -15.674   2.486  1.00  0.00     0.003 A 
HETATM    7  C   UNL     1      40.491 -14.669   3.431  1.00  0.00     0.009 A 
BRANCH   4   8
HETATM    8  O   UNL     1      43.676 -17.111   2.347  1.00  0.00    -0.311 OA
BRANCH   8   9
HETATM    9  C   UNL     1      43.805 -18.326   2.981  1.00  0.00     0.076 A 
HETATM   10  C   UNL     1      44.136 -18.459   4.332  1.00  0.00     0.037 A 
HETATM   11  C   UNL     1      44.214 -19.730   4.905  1.00  0.00     0.003 A 
HETATM   12  C   UNL     1      43.939 -20.862   4.137  1.00  0.00     0.000 A 
HETATM   13  C   UNL     1      43.576 -20.726   2.797  1.00  0.00     0.003 A 
HETATM   14  C   UNL     1      43.504 -19.457   2.221  1.00  0.00     0.037 A 
ENDBRANCH   8   9
ENDBRANCH   4   8
ENDBRANCH   1   2
BRANCH   1  15
HETATM   15  N   UNL     1      41.005 -12.300   4.942  1.00  0.00    -0.334 N 
HETATM   16  C   UNL     1      39.947 -12.147   5.786  1.00  0.00     0.314 C 
HETATM   17  N   UNL     1      39.279 -10.989   5.562  1.00  0.00    -0.352 N 
HETATM   18  O   UNL     1      39.604 -12.938   6.651  1.00  0.00    -0.248 OA
HETATM   19  H   UNL     1      39.248 -10.655   4.610  1.00  0.00     0.160 HD
HETATM   20  H   UNL     1      38.413 -10.908   6.080  1.00  0.00     0.160 HD
HETATM   21  H   UNL     1      41.438 -11.419   4.681  1.00  0.00     0.165 HD
ENDBRANCH   1  15
BRANCH   1  22
HETATM   22  C   UNL     1      43.383 -12.909   5.175  1.00  0.00     0.134 C 
BRANCH  22  23
HETATM   23  C   UNL     1      43.657 -12.240   6.506  1.00  0.00     0.238 C 
HETATM   24  N   UNL     1      43.663 -10.861   6.456  1.00  0.00    -0.267 N 
HETATM   25  H   UNL     1      43.162 -10.361   5.723  1.00  0.00     0.190 HD
HETATM   26  O   UNL     1      43.870 -12.881   7.535  1.00  0.00    -0.272 OA
BRANCH  24  27
HETATM   27  N   UNL     1      43.756 -10.176   7.671  1.00  0.00    -0.262 N 
HETATM   28  C   UNL     1      42.604  -9.670   8.242  1.00  0.00     0.288 C 
HETATM   29  O   UNL     1      41.520  -9.642   7.665  1.00  0.00    -0.264 OA
HETATM   30  H   UNL     1      44.580 -10.335   8.256  1.00  0.00     0.190 HD
BRANCH  28  31
HETATM   31  C   UNL     1      42.790  -9.155   9.634  1.00  0.00     0.125 A 
HETATM   32  N   UNL     1      43.187 -10.066  10.566  1.00  0.00    -0.255 NA
HETATM   33  C   UNL     1      43.370  -9.604  11.820  1.00  0.00     0.117 A 
HETATM   34  C   UNL     1      43.174  -8.282  12.191  1.00  0.00     0.019 A 
HETATM   35  C   UNL     1      42.765  -7.372  11.219  1.00  0.00     0.004 A 
HETATM   36  C   UNL     1      42.568  -7.811   9.913  1.00  0.00     0.037 A 
ENDBRANCH  28  31
ENDBRANCH  24  27
ENDBRANCH  22  23
ENDBRANCH   1  22
TORSDOF 8
ENDMDL
MODEL 8
REMARK VINA RESULT:      -8.4      1.696      2.433
REMARK  8 active torsions:
REMARK  status: ('A' for Active; 'I' for Inactive)
REMARK    1  A    between atoms: C_4  and  O_5 
REMARK    2  A    between atoms: O_5  and  C_6 
REMARK    3  A    between atoms: C_8  and  C_9 
REMARK    4  A    between atoms: C_9  and  N_10 
REMARK    5  A    between atoms: C_9  and  C_14 
REMARK       I    between atoms: N_10  and  C_11 
REMARK       I    between atoms: C_11  and  N_12 
REMARK    6  A    between atoms: C_14  and  C_15 
REMARK       I    between atoms: C_15  and  N_16 
REMARK    7  A    between atoms: N_16  and  N_17 
REMARK       I    between atoms: N_17  and  C_18 
REMARK    8  A    between atoms: C_18  and  C_19 
ROOT
HETATM    1  C   UNL     1      42.663 -11.340   5.581  1.00  0.00     0.128 C 
ENDROOT
BRANCH   1   2
HETATM    2  C   UNL     1      42.151 -12.735   5.235  1.00  0.00    -0.032 A 
HETATM    3  C   UNL     1      42.706 -13.510   4.202  1.00  0.00     0.046 A 
HETATM    4  C   UNL     1      42.208 -14.784   3.910  1.00  0.00     0.076 A 
HETATM    5  C   UNL     1      41.177 -15.326   4.676  1.00  0.00     0.037 A 
HETATM    6  C   UNL     1      40.598 -14.565   5.687  1.00  0.00     0.003 A 
HETATM    7  C   UNL     1      41.069 -13.277   5.954  1.00  0.00     0.009 A 
BRANCH   4   8
HETATM    8  O   UNL     1      42.844 -15.471   2.901  1.00  0.00    -0.311 OA
BRANCH   8   9
HETATM    9  C   UNL     1      43.273 -16.755   3.149  1.00  0.00     0.076 A 
HETATM   10  C   UNL     1      43.921 -17.138   4.326  1.00  0.00     0.037 A 
HETATM   11  C   UNL     1      44.293 -18.471   4.511  1.00  0.00     0.003 A 
HETATM   12  C   UNL     1      43.997 -19.422   3.533  1.00  0.00     0.000 A 
HETATM   13  C   UNL     1      43.321 -19.045   2.373  1.00  0.00     0.003 A 
HETATM   14  C   UNL     1      42.954 -17.712   2.183  1.00  0.00     0.037 A 
ENDBRANCH   8   9
ENDBRANCH   4   8
ENDBRANCH   1   2
BRANCH   1  15
HETATM   15  N   UNL     1      43.695 -11.351   6.612  1.00  0.00    -0.334 N 
HETATM   16  C   UNL     1      45.011 -11.219   6.283  1.00  0.00     0.314 C 
HETATM   17  N   UNL     1      45.803 -11.123   7.379  1.00  0.00    -0.352 N 
HETATM   18  O   UNL     1      45.464 -11.192   5.149  1.00  0.00    -0.248 OA
HETATM   19  H   UNL     1      45.512 -11.632   8.200  1.00  0.00     0.160 HD
HETATM   20  H   UNL     1      46.794 -11.158   7.173  1.00  0.00     0.160 HD
HETATM   21  H   UNL     1      43.447 -10.866   7.469  1.00  0.00     0.165 HD
ENDBRANCH   1  15
BRANCH   1  22
HETATM   22  C   UNL     1      41.527 -10.374   5.959  1.00  0.00     0.134 C 
BRANCH  22  23
HETATM   23  C   UNL     1      41.883  -9.575   7.196  1.00  0.00     0.238 C 
HETATM   24  N   UNL     1      41.279 -10.023   8.353  1.00  0.00    -0.267 N 
HETATM   25  H   UNL     1      40.959 -10.987   8.438  1.00  0.00     0.190 HD
HETATM   26  O   UNL     1      42.635  -8.602   7.158  1.00  0.00    -0.272 OA
BRANCH  24  27
HETATM   27  N   UNL     1      41.679  -9.432   9.555  1.00  0.00    -0.262 N 
HETATM   28  C   UNL     1      40.783  -9.383  10.605  1.00  0.00     0.288 C 
HETATM   29  O   UNL     1      39.597  -9.683  10.496  1.00  0.00    -0.264 OA
HETATM   30  H   UNL     1      42.680  -9.342   9.742  1.00  0.00     0.190 HD
BRANCH  28  31
HETATM   31  C   UNL     1      41.385  -8.932  11.898  1.00  0.00     0.125 A 
HETATM   32  N   UNL     1      40.638  -9.145  13.017  1.00  0.00    -0.255 NA
HETATM   33  C   UNL     1      41.183  -8.752  14.188  1.00  0.00     0.117 A 
HETATM   34  C   UNL     1      42.430  -8.157  14.297  1.00  0.00     0.019 A 
HETATM   35  C   UNL     1      43.171  -7.948  13.136  1.00  0.00     0.004 A 
HETATM   36  C   UNL     1      42.643  -8.341  11.909  1.00  0.00     0.037 A 
ENDBRANCH  28  31
ENDBRANCH  24  27
ENDBRANCH  22  23
ENDBRANCH   1  22
TORSDOF 8
ENDMDL
MODEL 9
REMARK VINA RESULT:      -8.4      7.358     11.189
REMARK  8 active torsions:
REMARK  status: ('A' for Active; 'I' for Inactive)
REMARK    1  A    between atoms: C_4  and  O_5 
REMARK    2  A    between atoms: O_5  and  C_6 
REMARK    3  A    between atoms: C_8  and  C_9 
REMARK    4  A    between atoms: C_9  and  N_10 
REMARK    5  A    between atoms: C_9  and  C_14 
REMARK       I    between atoms: N_10  and  C_11 
REMARK       I    between atoms: C_11  and  N_12 
REMARK    6  A    between atoms: C_14  and  C_15 
REMARK       I    between atoms: C_15  and  N_16 
REMARK    7  A    between atoms: N_16  and  N_17 
REMARK       I    between atoms: N_17  and  C_18 
REMARK    8  A    between atoms: C_18  and  C_19 
ROOT
HETATM    1  C   UNL     1      39.799 -13.298  -0.656  1.00  0.00     0.128 C 
ENDROOT
BRANCH   1   2
HETATM    2  C   UNL     1      39.315 -11.876  -0.926  1.00  0.00    -0.032 A 
HETATM    3  C   UNL     1      39.928 -11.035  -1.871  1.00  0.00     0.046 A 
HETATM    4  C   UNL     1      39.460  -9.736  -2.090  1.00  0.00     0.076 A 
HETATM    5  C   UNL     1      38.340  -9.269  -1.403  1.00  0.00     0.037 A 
HETATM    6  C   UNL     1      37.734 -10.078  -0.446  1.00  0.00     0.003 A 
HETATM    7  C   UNL     1      38.225 -11.362  -0.199  1.00  0.00     0.009 A 
BRANCH   4   8
HETATM    8  O   UNL     1      40.112  -9.008  -3.060  1.00  0.00    -0.311 OA
BRANCH   8   9
HETATM    9  C   UNL     1      41.208  -8.260  -2.694  1.00  0.00     0.076 A 
HETATM   10  C   UNL     1      41.759  -8.278  -1.410  1.00  0.00     0.037 A 
HETATM   11  C   UNL     1      42.894  -7.512  -1.132  1.00  0.00     0.003 A 
HETATM   12  C   UNL     1      43.489  -6.751  -2.139  1.00  0.00     0.000 A 
HETATM   13  C   UNL     1      42.956  -6.760  -3.428  1.00  0.00     0.003 A 
HETATM   14  C   UNL     1      41.819  -7.519  -3.707  1.00  0.00     0.037 A 
ENDBRANCH   8   9
ENDBRANCH   4   8
ENDBRANCH   1   2
BRANCH   1  15
HETATM   15  N   UNL     1      38.894 -14.317  -1.176  1.00  0.00    -0.334 N 
HETATM   16  C   UNL     1      39.054 -14.816  -2.433  1.00  0.00     0.314 C 
HETATM   17  N   UNL     1      38.202 -15.840  -2.687  1.00  0.00    -0.352 N 
HETATM   18  O   UNL     1      39.853 -14.415  -3.264  1.00  0.00    -0.248 OA
HETATM   19  H   UNL     1      37.295 -15.802  -2.245  1.00  0.00     0.160 HD
HETATM   20  H   UNL     1      38.203 -16.144  -3.652  1.00  0.00     0.160 HD
HETATM   21  H   UNL     1      38.610 -15.020  -0.500  1.00  0.00     0.165 HD
ENDBRANCH   1  15
BRANCH   1  22
HETATM   22  C   UNL     1      40.097 -13.544   0.833  1.00  0.00     0.134 C 
BRANCH  22  23
HETATM   23  C   UNL     1      40.615 -14.948   1.059  1.00  0.00     0.238 C 
HETATM   24  N   UNL     1      41.991 -15.049   1.079  1.00  0.00    -0.267 N 
HETATM   25  H   UNL     1      42.573 -14.243   1.308  1.00  0.00     0.190 HD
HETATM   26  O   UNL     1      39.865 -15.914   1.196  1.00  0.00    -0.272 OA
BRANCH  24  27
HETATM   27  N   UNL     1      42.539 -16.284   1.435  1.00  0.00    -0.262 N 
HETATM   28  C   UNL     1      42.994 -16.466   2.727  1.00  0.00     0.288 C 
HETATM   29  O   UNL     1      43.096 -15.553   3.541  1.00  0.00    -0.264 OA
HETATM   30  H   UNL     1      42.309 -17.100   0.862  1.00  0.00     0.190 HD
BRANCH  28  31
HETATM   31  C   UNL     1      43.352 -17.881   3.052  1.00  0.00     0.125 A 
HETATM   32  N   UNL     1      43.976 -18.085   4.247  1.00  0.00    -0.255 NA
HETATM   33  C   UNL     1      44.289 -19.362   4.551  1.00  0.00     0.117 A 
HETATM   34  C   UNL     1      44.016 -20.441   3.725  1.00  0.00     0.019 A 
HETATM   35  C   UNL     1      43.381 -20.203   2.508  1.00  0.00     0.004 A 
HETATM   36  C   UNL     1      43.040 -18.900   2.159  1.00  0.00     0.037 A 
ENDBRANCH  28  31
ENDBRANCH  24  27
ENDBRANCH  22  23
ENDBRANCH   1  22
TORSDOF 8
ENDMDL
MODEL 10
REMARK VINA RESULT:      -8.4      2.119      2.891
REMARK  8 active torsions:
REMARK  status: ('A' for Active; 'I' for Inactive)
REMARK    1  A    between atoms: C_4  and  O_5 
REMARK    2  A    between atoms: O_5  and  C_6 
REMARK    3  A    between atoms: C_8  and  C_9 
REMARK    4  A    between atoms: C_9  and  N_10 
REMARK    5  A    between atoms: C_9  and  C_14 
REMARK       I    between atoms: N_10  and  C_11 
REMARK       I    between atoms: C_11  and  N_12 
REMARK    6  A    between atoms: C_14  and  C_15 
REMARK       I    between atoms: C_15  and  N_16 
REMARK    7  A    between atoms: N_16  and  N_17 
REMARK       I    between atoms: N_17  and  C_18 
REMARK    8  A    between atoms: C_18  and  C_19 
ROOT
HETATM    1  C   UNL     1      41.275 -10.941   6.002  1.00  0.00     0.128 C 
ENDROOT
BRANCH   1   2
HETATM    2  C   UNL     1      41.901 -11.886   4.979  1.00  0.00    -0.032 A 
HETATM    3  C   UNL     1      41.445 -13.202   4.789  1.00  0.00     0.046 A 
HETATM    4  C   UNL     1      42.045 -14.042   3.846  1.00  0.00     0.076 A 
HETATM    5  C   UNL     1      43.081 -13.568   3.042  1.00  0.00     0.037 A 
HETATM    6  C   UNL     1      43.561 -12.275   3.232  1.00  0.00     0.003 A 
HETATM    7  C   UNL     1      42.988 -11.448   4.201  1.00  0.00     0.009 A 
BRANCH   4   8
HETATM    8  O   UNL     1      41.502 -15.301   3.716  1.00  0.00    -0.311 OA
BRANCH   8   9
HETATM    9  C   UNL     1      42.354 -16.379   3.645  1.00  0.00     0.076 A 
HETATM   10  C   UNL     1      42.528 -17.150   2.492  1.00  0.00     0.037 A 
HETATM   11  C   UNL     1      43.439 -18.208   2.496  1.00  0.00     0.003 A 
HETATM   12  C   UNL     1      44.191 -18.480   3.640  1.00  0.00     0.000 A 
HETATM   13  C   UNL     1      44.040 -17.690   4.779  1.00  0.00     0.003 A 
HETATM   14  C   UNL     1      43.126 -16.636   4.780  1.00  0.00     0.037 A 
ENDBRANCH   8   9
ENDBRANCH   4   8
ENDBRANCH   1   2
BRANCH   1  15
HETATM   15  N   UNL     1      40.132 -10.205   5.473  1.00  0.00    -0.334 N 
HETATM   16  C   UNL     1      38.859 -10.574   5.788  1.00  0.00     0.314 C 
HETATM   17  N   UNL     1      37.941  -9.697   5.310  1.00  0.00    -0.352 N 
HETATM   18  O   UNL     1      38.539 -11.569   6.418  1.00  0.00    -0.248 OA
HETATM   19  H   UNL     1      38.158  -9.237   4.438  1.00  0.00     0.160 HD
HETATM   20  H   UNL     1      36.984 -10.010   5.411  1.00  0.00     0.160 HD
HETATM   21  H   UNL     1      40.257  -9.198   5.428  1.00  0.00     0.165 HD
ENDBRANCH   1  15
BRANCH   1  22
HETATM   22  C   UNL     1      42.303  -9.978   6.618  1.00  0.00     0.134 C 
BRANCH  22  23
HETATM   23  C   UNL     1      41.825  -9.454   7.955  1.00  0.00     0.238 C 
HETATM   24  N   UNL     1      42.323 -10.139   9.044  1.00  0.00    -0.267 N 
HETATM   25  H   UNL     1      43.195 -10.663   8.980  1.00  0.00     0.190 HD
HETATM   26  O   UNL     1      41.045  -8.505   8.051  1.00  0.00    -0.272 OA
BRANCH  24  27
HETATM   27  N   UNL     1      42.047  -9.617  10.311  1.00  0.00    -0.262 N 
HETATM   28  C   UNL     1      42.951  -9.832  11.333  1.00  0.00     0.288 C 
HETATM   29  O   UNL     1      43.909 -10.596  11.238  1.00  0.00    -0.264 OA
HETATM   30  H   UNL     1      41.379  -8.846  10.383  1.00  0.00     0.190 HD
BRANCH  28  31
HETATM   31  C   UNL     1      42.664  -9.049  12.575  1.00  0.00     0.125 A 
HETATM   32  N   UNL     1      41.633  -9.498  13.345  1.00  0.00    -0.255 NA
HETATM   33  C   UNL     1      41.379  -8.803  14.473  1.00  0.00     0.117 A 
HETATM   34  C   UNL     1      42.097  -7.685  14.869  1.00  0.00     0.019 A 
HETATM   35  C   UNL     1      43.144  -7.247  14.061  1.00  0.00     0.004 A 
HETATM   36  C   UNL     1      43.438  -7.939  12.890  1.00  0.00     0.037 A 
ENDBRANCH  28  31
ENDBRANCH  24  27
ENDBRANCH  22  23
ENDBRANCH   1  22
TORSDOF 8
ENDMDL
