MODEL 1
REMARK VINA RESULT:      -9.7      0.000      0.000
REMARK  6 active torsions:
REMARK  status: ('A' for Active; 'I' for Inactive)
REMARK    1  A    between atoms: O_2  and  C_3 
REMARK    2  A    between atoms: C_5  and  N_6 
REMARK    3  A    between atoms: C_8  and  C_9 
REMARK    4  A    between atoms: C_9  and  N_10 
REMARK       I    between atoms: N_10  and  C_11 
REMARK       I    between atoms: C_11  and  N_12 
REMARK    5  A    between atoms: N_12  and  C_13 
REMARK    6  A    between atoms: C_13  and  C_14 
ROOT
HETATM    1  N   UNL     1      42.972 -11.682   7.275  1.00  0.00    -0.343 N 
HETATM    2  C   UNL     1      43.899 -11.116   8.108  1.00  0.00     0.316 C 
HETATM    3  N   UNL     1      43.299 -10.333   9.055  1.00  0.00    -0.339 N 
HETATM    4  O   UNL     1      45.102 -11.323   8.042  1.00  0.00    -0.248 OA
HETATM    5  H   UNL     1      42.013 -11.665   7.588  1.00  0.00     0.164 HD
HETATM    6  H   UNL     1      42.435  -9.890   8.784  1.00  0.00     0.164 HD
ENDROOT
BRANCH   1   7
HETATM    7  C   UNL     1      43.337 -12.696   6.301  1.00  0.00     0.130 C 
BRANCH   7   8
HETATM    8  C   UNL     1      42.414 -12.717   5.071  1.00  0.00     0.023 C 
HETATM    9  C   UNL     1      42.895 -13.692   3.991  1.00  0.00     0.129 C 
HETATM   10  N   UNL     1      42.322 -14.977   4.390  1.00  0.00    -0.380 N 
HETATM   11  C   UNL     1      41.229 -14.797   5.343  1.00  0.00     0.123 C 
HETATM   12  C   UNL     1      41.035 -13.281   5.412  1.00  0.00     0.028 C 
BRANCH  10  13
HETATM   13  C   UNL     1      42.780 -16.199   3.953  1.00  0.00     0.032 A 
HETATM   14  C   UNL     1      43.443 -17.094   4.815  1.00  0.00     0.066 A 
HETATM   15  C   UNL     1      43.934 -18.331   4.373  1.00  0.00     0.070 A 
HETATM   16  C   UNL     1      43.777 -18.692   3.037  1.00  0.00     0.037 A 
HETATM   17  C   UNL     1      43.116 -17.840   2.162  1.00  0.00     0.005 A 
HETATM   18  C   UNL     1      42.621 -16.615   2.621  1.00  0.00     0.029 A 
BRANCH  15  19
HETATM   19  O   UNL     1      44.591 -19.256   5.138  1.00  0.00    -0.356 OA
HETATM   20  C   UNL     1      44.059 -20.575   5.148  1.00  0.00     0.210 C 
ENDBRANCH  15  19
ENDBRANCH  10  13
ENDBRANCH   7   8
ENDBRANCH   1   7
BRANCH   3  21
HETATM   21  C   UNL     1      44.102  -9.635  10.034  1.00  0.00     0.162 C 
BRANCH  21  22
HETATM   22  C   UNL     1      43.314  -9.370  11.289  1.00  0.00    -0.040 A 
HETATM   23  C   UNL     1      43.664  -8.319  12.150  1.00  0.00     0.021 A 
HETATM   24  C   UNL     1      42.951  -8.085  13.340  1.00  0.00    -0.025 A 
HETATM   25  C   UNL     1      41.862  -8.922  13.672  1.00  0.00    -0.026 A 
HETATM   26  C   UNL     1      43.302  -7.041  14.211  1.00  0.00     0.012 A 
HETATM   27  C   UNL     1      41.514  -9.970  12.807  1.00  0.00     0.013 A 
HETATM   28  C   UNL     1      41.154  -8.692  14.862  1.00  0.00     0.012 A 
HETATM   29  C   UNL     1      42.234 -10.194  11.633  1.00  0.00     0.010 A 
HETATM   30  C   UNL     1      41.516  -7.651  15.718  1.00  0.00     0.001 A 
HETATM   31  C   UNL     1      42.589  -6.826  15.393  1.00  0.00     0.001 A 
ENDBRANCH  21  22
ENDBRANCH   3  21
TORSDOF 6
ENDMDL
MODEL 2
REMARK VINA RESULT:      -9.7      4.698      9.109
REMARK  6 active torsions:
REMARK  status: ('A' for Active; 'I' for Inactive)
REMARK    1  A    between atoms: O_2  and  C_3 
REMARK    2  A    between atoms: C_5  and  N_6 
REMARK    3  A    between atoms: C_8  and  C_9 
REMARK    4  A    between atoms: C_9  and  N_10 
REMARK       I    between atoms: N_10  and  C_11 
REMARK       I    between atoms: C_11  and  N_12 
REMARK    5  A    between atoms: N_12  and  C_13 
REMARK    6  A    between atoms: C_13  and  C_14 
ROOT
HETATM    1  N   UNL     1      38.737 -12.398   2.899  1.00  0.00    -0.343 N 
HETATM    2  C   UNL     1      39.572 -13.287   2.280  1.00  0.00     0.316 C 
HETATM    3  N   UNL     1      39.125 -14.572   2.429  1.00  0.00    -0.339 N 
HETATM    4  O   UNL     1      40.562 -12.970   1.636  1.00  0.00    -0.248 OA
HETATM    5  H   UNL     1      37.822 -12.740   3.155  1.00  0.00     0.164 HD
HETATM    6  H   UNL     1      38.614 -14.769   3.276  1.00  0.00     0.164 HD
ENDROOT
BRANCH   1   7
HETATM    7  C   UNL     1      38.890 -10.963   2.735  1.00  0.00     0.130 C 
BRANCH   7   8
HETATM    8  C   UNL     1      38.884 -10.195   4.068  1.00  0.00     0.023 C 
HETATM    9  C   UNL     1      39.571 -10.970   5.197  1.00  0.00     0.129 C 
HETATM   10  N   UNL     1      40.986 -10.626   5.055  1.00  0.00    -0.380 N 
HETATM   11  C   UNL     1      41.161  -9.426   4.239  1.00  0.00     0.123 C 
HETATM   12  C   UNL     1      39.736  -8.928   3.992  1.00  0.00     0.028 C 
BRANCH  10  13
HETATM   13  C   UNL     1      42.019 -11.362   5.591  1.00  0.00     0.032 A 
HETATM   14  C   UNL     1      42.740 -10.917   6.716  1.00  0.00     0.066 A 
HETATM   15  C   UNL     1      43.809 -11.648   7.255  1.00  0.00     0.070 A 
HETATM   16  C   UNL     1      44.185 -12.849   6.658  1.00  0.00     0.037 A 
HETATM   17  C   UNL     1      43.488 -13.325   5.556  1.00  0.00     0.005 A 
HETATM   18  C   UNL     1      42.416 -12.590   5.038  1.00  0.00     0.029 A 
BRANCH  15  19
HETATM   19  O   UNL     1      44.563 -11.291   8.339  1.00  0.00    -0.356 OA
HETATM   20  C   UNL     1      45.759 -10.568   8.079  1.00  0.00     0.210 C 
ENDBRANCH  15  19
ENDBRANCH  10  13
ENDBRANCH   7   8
ENDBRANCH   1   7
BRANCH   3  21
HETATM   21  C   UNL     1      39.868 -15.670   1.854  1.00  0.00     0.162 C 
BRANCH  21  22
HETATM   22  C   UNL     1      41.016 -16.070   2.743  1.00  0.00    -0.040 A 
HETATM   23  C   UNL     1      40.876 -16.081   4.138  1.00  0.00     0.021 A 
HETATM   24  C   UNL     1      41.954 -16.423   4.975  1.00  0.00    -0.025 A 
HETATM   25  C   UNL     1      43.198 -16.766   4.399  1.00  0.00    -0.026 A 
HETATM   26  C   UNL     1      41.823 -16.428   6.373  1.00  0.00     0.012 A 
HETATM   27  C   UNL     1      43.333 -16.756   3.003  1.00  0.00     0.013 A 
HETATM   28  C   UNL     1      44.275 -17.103   5.234  1.00  0.00     0.012 A 
HETATM   29  C   UNL     1      42.257 -16.408   2.185  1.00  0.00     0.010 A 
HETATM   30  C   UNL     1      44.129 -17.100   6.622  1.00  0.00     0.001 A 
HETATM   31  C   UNL     1      42.905 -16.763   7.191  1.00  0.00     0.001 A 
ENDBRANCH  21  22
ENDBRANCH   3  21
TORSDOF 6
ENDMDL
MODEL 3
REMARK VINA RESULT:      -9.6      5.498     10.053
REMARK  6 active torsions:
REMARK  status: ('A' for Active; 'I' for Inactive)
REMARK    1  A    between atoms: O_2  and  C_3 
REMARK    2  A    between atoms: C_5  and  N_6 
REMARK    3  A    between atoms: C_8  and  C_9 
REMARK    4  A    between atoms: C_9  and  N_10 
REMARK       I    between atoms: N_10  and  C_11 
REMARK       I    between atoms: C_11  and  N_12 
REMARK    5  A    between atoms: N_12  and  C_13 
REMARK    6  A    between atoms: C_13  and  C_14 
ROOT
HETATM    1  N   UNL     1      39.783 -13.745   1.315  1.00  0.00    -0.343 N 
HETATM    2  C   UNL     1      41.141 -13.912   1.322  1.00  0.00     0.316 C 
HETATM    3  N   UNL     1      41.477 -15.232   1.189  1.00  0.00    -0.339 N 
HETATM    4  O   UNL     1      41.948 -12.997   1.391  1.00  0.00    -0.248 OA
HETATM    5  H   UNL     1      39.234 -14.522   0.979  1.00  0.00     0.164 HD
HETATM    6  H   UNL     1      40.822 -15.898   1.567  1.00  0.00     0.164 HD
ENDROOT
BRANCH   1   7
HETATM    7  C   UNL     1      39.175 -12.427   1.260  1.00  0.00     0.130 C 
BRANCH   7   8
HETATM    8  C   UNL     1      38.567 -11.983   2.601  1.00  0.00     0.023 C 
HETATM    9  C   UNL     1      39.263 -12.626   3.805  1.00  0.00     0.129 C 
HETATM   10  N   UNL     1      40.396 -11.741   4.076  1.00  0.00    -0.380 N 
HETATM   11  C   UNL     1      40.216 -10.439   3.438  1.00  0.00     0.123 C 
HETATM   12  C   UNL     1      38.801 -10.494   2.860  1.00  0.00     0.028 C 
BRANCH  10  13
HETATM   13  C   UNL     1      41.505 -12.105   4.805  1.00  0.00     0.032 A 
HETATM   14  C   UNL     1      42.695 -11.352   4.771  1.00  0.00     0.066 A 
HETATM   15  C   UNL     1      43.837 -11.727   5.493  1.00  0.00     0.070 A 
HETATM   16  C   UNL     1      43.810 -12.886   6.263  1.00  0.00     0.037 A 
HETATM   17  C   UNL     1      42.650 -13.646   6.331  1.00  0.00     0.005 A 
HETATM   18  C   UNL     1      41.514 -13.252   5.615  1.00  0.00     0.029 A 
BRANCH  15  19
HETATM   19  O   UNL     1      45.031 -11.058   5.514  1.00  0.00    -0.356 OA
HETATM   20  C   UNL     1      45.896 -11.322   6.611  1.00  0.00     0.210 C 
ENDBRANCH  15  19
ENDBRANCH  10  13
ENDBRANCH   7   8
ENDBRANCH   1   7
BRANCH   3  21
HETATM   21  C   UNL     1      42.867 -15.629   1.180  1.00  0.00     0.162 C 
BRANCH  21  22
HETATM   22  C   UNL     1      43.168 -16.570   2.316  1.00  0.00    -0.040 A 
HETATM   23  C   UNL     1      43.316 -17.946   2.091  1.00  0.00     0.021 A 
HETATM   24  C   UNL     1      43.566 -18.834   3.153  1.00  0.00    -0.025 A 
HETATM   25  C   UNL     1      43.674 -18.330   4.469  1.00  0.00    -0.026 A 
HETATM   26  C   UNL     1      43.705 -20.215   2.936  1.00  0.00     0.012 A 
HETATM   27  C   UNL     1      43.528 -16.952   4.689  1.00  0.00     0.013 A 
HETATM   28  C   UNL     1      43.919 -19.217   5.529  1.00  0.00     0.012 A 
HETATM   29  C   UNL     1      43.274 -16.084   3.626  1.00  0.00     0.010 A 
HETATM   30  C   UNL     1      44.053 -20.586   5.297  1.00  0.00     0.001 A 
HETATM   31  C   UNL     1      43.946 -21.084   4.002  1.00  0.00     0.001 A 
ENDBRANCH  21  22
ENDBRANCH   3  21
TORSDOF 6
ENDMDL
MODEL 4
REMARK VINA RESULT:      -9.6      5.346      9.457
REMARK  6 active torsions:
REMARK  status: ('A' for Active; 'I' for Inactive)
REMARK    1  A    between atoms: O_2  and  C_3 
REMARK    2  A    between atoms: C_5  and  N_6 
REMARK    3  A    between atoms: C_8  and  C_9 
REMARK    4  A    between atoms: C_9  and  N_10 
REMARK       I    between atoms: N_10  and  C_11 
REMARK       I    between atoms: C_11  and  N_12 
REMARK    5  A    between atoms: N_12  and  C_13 
REMARK    6  A    between atoms: C_13  and  C_14 
ROOT
HETATM    1  N   UNL     1      43.359 -12.253   5.837  1.00  0.00    -0.343 N 
HETATM    2  C   UNL     1      42.953 -13.496   6.241  1.00  0.00     0.316 C 
HETATM    3  N   UNL     1      44.010 -14.362   6.317  1.00  0.00    -0.339 N 
HETATM    4  O   UNL     1      41.802 -13.781   6.542  1.00  0.00    -0.248 OA
HETATM    5  H   UNL     1      44.349 -12.064   5.886  1.00  0.00     0.164 HD
HETATM    6  H   UNL     1      44.768 -14.195   5.674  1.00  0.00     0.164 HD
ENDROOT
BRANCH   1   7
HETATM    7  C   UNL     1      42.461 -11.113   5.851  1.00  0.00     0.130 C 
BRANCH   7   8
HETATM    8  C   UNL     1      42.286 -10.460   4.469  1.00  0.00     0.023 C 
HETATM    9  C   UNL     1      42.356 -11.477   3.324  1.00  0.00     0.129 C 
HETATM   10  N   UNL     1      40.988 -11.982   3.212  1.00  0.00    -0.380 N 
HETATM   11  C   UNL     1      40.037 -11.091   3.874  1.00  0.00     0.123 C 
HETATM   12  C   UNL     1      40.880  -9.885   4.292  1.00  0.00     0.028 C 
BRANCH  10  13
HETATM   13  C   UNL     1      40.647 -13.164   2.594  1.00  0.00     0.032 A 
HETATM   14  C   UNL     1      40.474 -13.249   1.199  1.00  0.00     0.066 A 
HETATM   15  C   UNL     1      40.105 -14.443   0.563  1.00  0.00     0.070 A 
HETATM   16  C   UNL     1      39.888 -15.586   1.328  1.00  0.00     0.037 A 
HETATM   17  C   UNL     1      40.063 -15.543   2.705  1.00  0.00     0.005 A 
HETATM   18  C   UNL     1      40.444 -14.347   3.323  1.00  0.00     0.029 A 
BRANCH  15  19
HETATM   19  O   UNL     1      39.912 -14.613  -0.781  1.00  0.00    -0.356 OA
HETATM   20  C   UNL     1      40.288 -13.533  -1.625  1.00  0.00     0.210 C 
ENDBRANCH  15  19
ENDBRANCH  10  13
ENDBRANCH   7   8
ENDBRANCH   1   7
BRANCH   3  21
HETATM   21  C   UNL     1      43.796 -15.733   6.721  1.00  0.00     0.162 C 
BRANCH  21  22
HETATM   22  C   UNL     1      43.686 -16.638   5.523  1.00  0.00    -0.040 A 
HETATM   23  C   UNL     1      43.904 -18.019   5.641  1.00  0.00     0.021 A 
HETATM   24  C   UNL     1      43.834 -18.865   4.520  1.00  0.00    -0.025 A 
HETATM   25  C   UNL     1      43.536 -18.315   3.252  1.00  0.00    -0.026 A 
HETATM   26  C   UNL     1      44.060 -20.247   4.629  1.00  0.00     0.012 A 
HETATM   27  C   UNL     1      43.317 -16.934   3.139  1.00  0.00     0.013 A 
HETATM   28  C   UNL     1      43.471 -19.159   2.133  1.00  0.00     0.012 A 
HETATM   29  C   UNL     1      43.396 -16.106   4.259  1.00  0.00     0.010 A 
HETATM   30  C   UNL     1      43.700 -20.530   2.258  1.00  0.00     0.001 A 
HETATM   31  C   UNL     1      43.994 -21.073   3.505  1.00  0.00     0.001 A 
ENDBRANCH  21  22
ENDBRANCH   3  21
TORSDOF 6
ENDMDL
MODEL 5
REMARK VINA RESULT:      -9.5      1.896     10.992
REMARK  6 active torsions:
REMARK  status: ('A' for Active; 'I' for Inactive)
REMARK    1  A    between atoms: O_2  and  C_3 
REMARK    2  A    between atoms: C_5  and  N_6 
REMARK    3  A    between atoms: C_8  and  C_9 
REMARK    4  A    between atoms: C_9  and  N_10 
REMARK       I    between atoms: N_10  and  C_11 
REMARK       I    between atoms: C_11  and  N_12 
REMARK    5  A    between atoms: N_12  and  C_13 
REMARK    6  A    between atoms: C_13  and  C_14 
ROOT
HETATM    1  N   UNL     1      43.475 -12.302   7.258  1.00  0.00    -0.343 N 
HETATM    2  C   UNL     1      43.616 -12.364   5.898  1.00  0.00     0.316 C 
HETATM    3  N   UNL     1      42.601 -13.083   5.328  1.00  0.00    -0.339 N 
HETATM    4  O   UNL     1      44.506 -11.808   5.271  1.00  0.00    -0.248 OA
HETATM    5  H   UNL     1      42.572 -12.555   7.631  1.00  0.00     0.164 HD
HETATM    6  H   UNL     1      42.208 -13.821   5.891  1.00  0.00     0.164 HD
ENDROOT
BRANCH   1   7
HETATM    7  C   UNL     1      44.319 -11.450   8.076  1.00  0.00     0.130 C 
BRANCH   7   8
HETATM    8  C   UNL     1      43.968  -9.957   7.961  1.00  0.00     0.023 C 
HETATM    9  C   UNL     1      42.872  -9.533   8.944  1.00  0.00     0.129 C 
HETATM   10  N   UNL     1      43.598  -9.223  10.176  1.00  0.00    -0.380 N 
HETATM   11  C   UNL     1      45.021  -9.020   9.915  1.00  0.00     0.123 C 
HETATM   12  C   UNL     1      45.136  -9.068   8.391  1.00  0.00     0.028 C 
BRANCH  10  13
HETATM   13  C   UNL     1      43.019  -9.169  11.424  1.00  0.00     0.032 A 
HETATM   14  C   UNL     1      41.965 -10.028  11.790  1.00  0.00     0.066 A 
HETATM   15  C   UNL     1      41.353  -9.965  13.050  1.00  0.00     0.070 A 
HETATM   16  C   UNL     1      41.786  -9.018  13.973  1.00  0.00     0.037 A 
HETATM   17  C   UNL     1      42.832  -8.163  13.652  1.00  0.00     0.005 A 
HETATM   18  C   UNL     1      43.440  -8.247  12.395  1.00  0.00     0.029 A 
BRANCH  15  19
HETATM   19  O   UNL     1      40.325 -10.756  13.486  1.00  0.00    -0.356 OA
HETATM   20  C   UNL     1      39.142 -10.764  12.698  1.00  0.00     0.210 C 
ENDBRANCH  15  19
ENDBRANCH  10  13
ENDBRANCH   7   8
ENDBRANCH   1   7
BRANCH   3  21
HETATM   21  C   UNL     1      42.564 -13.275   3.896  1.00  0.00     0.162 C 
BRANCH  21  22
HETATM   22  C   UNL     1      42.821 -14.715   3.537  1.00  0.00    -0.040 A 
HETATM   23  C   UNL     1      43.117 -15.663   4.528  1.00  0.00     0.021 A 
HETATM   24  C   UNL     1      43.388 -17.002   4.196  1.00  0.00    -0.025 A 
HETATM   25  C   UNL     1      43.359 -17.401   2.841  1.00  0.00    -0.026 A 
HETATM   26  C   UNL     1      43.694 -17.954   5.182  1.00  0.00     0.012 A 
HETATM   27  C   UNL     1      43.060 -16.450   1.853  1.00  0.00     0.013 A 
HETATM   28  C   UNL     1      43.634 -18.737   2.509  1.00  0.00     0.012 A 
HETATM   29  C   UNL     1      42.799 -15.123   2.197  1.00  0.00     0.010 A 
HETATM   30  C   UNL     1      43.939 -19.670   3.501  1.00  0.00     0.001 A 
HETATM   31  C   UNL     1      43.969 -19.279   4.836  1.00  0.00     0.001 A 
ENDBRANCH  21  22
ENDBRANCH   3  21
TORSDOF 6
ENDMDL
MODEL 6
REMARK VINA RESULT:      -9.3      2.179     11.516
REMARK  6 active torsions:
REMARK  status: ('A' for Active; 'I' for Inactive)
REMARK    1  A    between atoms: O_2  and  C_3 
REMARK    2  A    between atoms: C_5  and  N_6 
REMARK    3  A    between atoms: C_8  and  C_9 
REMARK    4  A    between atoms: C_9  and  N_10 
REMARK       I    between atoms: N_10  and  C_11 
REMARK       I    between atoms: C_11  and  N_12 
REMARK    5  A    between atoms: N_12  and  C_13 
REMARK    6  A    between atoms: C_13  and  C_14 
ROOT
HETATM    1  N   UNL     1      43.305 -11.043   7.528  1.00  0.00    -0.343 N 
HETATM    2  C   UNL     1      42.684 -11.480   6.390  1.00  0.00     0.316 C 
HETATM    3  N   UNL     1      43.049 -12.763   6.087  1.00  0.00    -0.339 N 
HETATM    4  O   UNL     1      41.871 -10.824   5.753  1.00  0.00    -0.248 OA
HETATM    5  H   UNL     1      43.729 -11.749   8.110  1.00  0.00     0.164 HD
HETATM    6  H   UNL     1      43.978 -13.038   6.367  1.00  0.00     0.164 HD
ENDROOT
BRANCH   1   7
HETATM    7  C   UNL     1      42.950  -9.784   8.158  1.00  0.00     0.130 C 
BRANCH   7   8
HETATM    8  C   UNL     1      44.119  -9.133   8.918  1.00  0.00     0.023 C 
HETATM    9  C   UNL     1      43.649  -8.274  10.096  1.00  0.00     0.129 C 
HETATM   10  N   UNL     1      43.518  -9.225  11.200  1.00  0.00    -0.380 N 
HETATM   11  C   UNL     1      44.244 -10.463  10.924  1.00  0.00     0.123 C 
HETATM   12  C   UNL     1      44.988 -10.179   9.617  1.00  0.00     0.028 C 
BRANCH  10  13
HETATM   13  C   UNL     1      42.773  -8.995  12.335  1.00  0.00     0.032 A 
HETATM   14  C   UNL     1      43.153  -8.030  13.288  1.00  0.00     0.066 A 
HETATM   15  C   UNL     1      42.414  -7.805  14.459  1.00  0.00     0.070 A 
HETATM   16  C   UNL     1      41.272  -8.562  14.702  1.00  0.00     0.037 A 
HETATM   17  C   UNL     1      40.859  -9.513  13.778  1.00  0.00     0.005 A 
HETATM   18  C   UNL     1      41.600  -9.717  12.609  1.00  0.00     0.029 A 
BRANCH  15  19
HETATM   19  O   UNL     1      42.712  -6.894  15.436  1.00  0.00    -0.356 OA
HETATM   20  C   UNL     1      41.671  -6.009  15.827  1.00  0.00     0.210 C 
ENDBRANCH  15  19
ENDBRANCH  10  13
ENDBRANCH   7   8
ENDBRANCH   1   7
BRANCH   3  21
HETATM   21  C   UNL     1      42.509 -13.414   4.916  1.00  0.00     0.162 C 
BRANCH  21  22
HETATM   22  C   UNL     1      42.997 -14.835   4.813  1.00  0.00    -0.040 A 
HETATM   23  C   UNL     1      42.745 -15.602   3.667  1.00  0.00     0.021 A 
HETATM   24  C   UNL     1      43.171 -16.939   3.578  1.00  0.00    -0.025 A 
HETATM   25  C   UNL     1      43.868 -17.519   4.661  1.00  0.00    -0.026 A 
HETATM   26  C   UNL     1      42.913 -17.716   2.436  1.00  0.00     0.012 A 
HETATM   27  C   UNL     1      44.121 -16.747   5.805  1.00  0.00     0.013 A 
HETATM   28  C   UNL     1      44.289 -18.855   4.574  1.00  0.00     0.012 A 
HETATM   29  C   UNL     1      43.687 -15.423   5.882  1.00  0.00     0.010 A 
HETATM   30  C   UNL     1      44.024 -19.615   3.434  1.00  0.00     0.001 A 
HETATM   31  C   UNL     1      43.336 -19.045   2.367  1.00  0.00     0.001 A 
ENDBRANCH  21  22
ENDBRANCH   3  21
TORSDOF 6
ENDMDL
MODEL 7
REMARK VINA RESULT:      -9.1     18.963     21.049
REMARK  6 active torsions:
REMARK  status: ('A' for Active; 'I' for Inactive)
REMARK    1  A    between atoms: O_2  and  C_3 
REMARK    2  A    between atoms: C_5  and  N_6 
REMARK    3  A    between atoms: C_8  and  C_9 
REMARK    4  A    between atoms: C_9  and  N_10 
REMARK       I    between atoms: N_10  and  C_11 
REMARK       I    between atoms: C_11  and  N_12 
REMARK    5  A    between atoms: N_12  and  C_13 
REMARK    6  A    between atoms: C_13  and  C_14 
ROOT
HETATM    1  N   UNL     1      46.111 -30.661   3.959  1.00  0.00    -0.343 N 
HETATM    2  C   UNL     1      45.470 -29.817   3.093  1.00  0.00     0.316 C 
HETATM    3  N   UNL     1      44.251 -30.318   2.725  1.00  0.00    -0.339 N 
HETATM    4  O   UNL     1      45.909 -28.734   2.734  1.00  0.00    -0.248 OA
HETATM    5  H   UNL     1      45.546 -31.376   4.394  1.00  0.00     0.164 HD
HETATM    6  H   UNL     1      44.173 -31.323   2.699  1.00  0.00     0.164 HD
ENDROOT
BRANCH   1   7
HETATM    7  C   UNL     1      47.336 -30.276   4.635  1.00  0.00     0.130 C 
BRANCH   7   8
HETATM    8  C   UNL     1      48.533 -31.175   4.283  1.00  0.00     0.023 C 
HETATM    9  C   UNL     1      48.542 -31.593   2.808  1.00  0.00     0.129 C 
HETATM   10  N   UNL     1      49.224 -30.492   2.130  1.00  0.00    -0.380 N 
HETATM   11  C   UNL     1      49.978 -29.672   3.075  1.00  0.00     0.123 C 
HETATM   12  C   UNL     1      49.859 -30.422   4.403  1.00  0.00     0.028 C 
BRANCH  10  13
HETATM   13  C   UNL     1      49.133 -30.240   0.779  1.00  0.00     0.032 A 
HETATM   14  C   UNL     1      50.244 -30.372  -0.076  1.00  0.00     0.066 A 
HETATM   15  C   UNL     1      50.168 -30.096  -1.449  1.00  0.00     0.070 A 
HETATM   16  C   UNL     1      48.961 -29.665  -1.993  1.00  0.00     0.037 A 
HETATM   17  C   UNL     1      47.841 -29.537  -1.183  1.00  0.00     0.005 A 
HETATM   18  C   UNL     1      47.931 -29.828   0.182  1.00  0.00     0.029 A 
BRANCH  15  19
HETATM   19  O   UNL     1      51.194 -30.194  -2.348  1.00  0.00    -0.356 OA
HETATM   20  C   UNL     1      52.176 -31.191  -2.096  1.00  0.00     0.210 C 
ENDBRANCH  15  19
ENDBRANCH  10  13
ENDBRANCH   7   8
ENDBRANCH   1   7
BRANCH   3  21
HETATM   21  C   UNL     1      43.412 -29.582   1.807  1.00  0.00     0.162 C 
BRANCH  21  22
HETATM   22  C   UNL     1      43.776 -29.887   0.378  1.00  0.00    -0.040 A 
HETATM   23  C   UNL     1      44.148 -28.863  -0.505  1.00  0.00     0.021 A 
HETATM   24  C   UNL     1      44.458 -29.138  -1.848  1.00  0.00    -0.025 A 
HETATM   25  C   UNL     1      44.399 -30.470  -2.316  1.00  0.00    -0.026 A 
HETATM   26  C   UNL     1      44.822 -28.116  -2.740  1.00  0.00     0.012 A 
HETATM   27  C   UNL     1      44.029 -31.492  -1.429  1.00  0.00     0.013 A 
HETATM   28  C   UNL     1      44.705 -30.744  -3.659  1.00  0.00     0.012 A 
HETATM   29  C   UNL     1      43.717 -31.204  -0.100  1.00  0.00     0.010 A 
HETATM   30  C   UNL     1      45.062 -29.716  -4.533  1.00  0.00     0.001 A 
HETATM   31  C   UNL     1      45.121 -28.404  -4.074  1.00  0.00     0.001 A 
ENDBRANCH  21  22
ENDBRANCH   3  21
TORSDOF 6
ENDMDL
MODEL 8
REMARK VINA RESULT:      -9.1      1.955     11.097
REMARK  6 active torsions:
REMARK  status: ('A' for Active; 'I' for Inactive)
REMARK    1  A    between atoms: O_2  and  C_3 
REMARK    2  A    between atoms: C_5  and  N_6 
REMARK    3  A    between atoms: C_8  and  C_9 
REMARK    4  A    between atoms: C_9  and  N_10 
REMARK       I    between atoms: N_10  and  C_11 
REMARK       I    between atoms: C_11  and  N_12 
REMARK    5  A    between atoms: N_12  and  C_13 
REMARK    6  A    between atoms: C_13  and  C_14 
ROOT
HETATM    1  N   UNL     1      43.635 -12.127   7.351  1.00  0.00    -0.343 N 
HETATM    2  C   UNL     1      43.722 -12.183   5.986  1.00  0.00     0.316 C 
HETATM    3  N   UNL     1      42.740 -12.977   5.460  1.00  0.00    -0.339 N 
HETATM    4  O   UNL     1      44.542 -11.565   5.322  1.00  0.00    -0.248 OA
HETATM    5  H   UNL     1      42.770 -12.444   7.761  1.00  0.00     0.164 HD
HETATM    6  H   UNL     1      42.427 -13.740   6.039  1.00  0.00     0.164 HD
ENDROOT
BRANCH   1   7
HETATM    7  C   UNL     1      44.447 -11.211   8.132  1.00  0.00     0.130 C 
BRANCH   7   8
HETATM    8  C   UNL     1      43.997  -9.746   8.011  1.00  0.00     0.023 C 
HETATM    9  C   UNL     1      42.703  -9.462   8.780  1.00  0.00     0.129 C 
HETATM   10  N   UNL     1      43.153  -9.167  10.140  1.00  0.00    -0.380 N 
HETATM   11  C   UNL     1      44.578  -8.841  10.168  1.00  0.00     0.123 C 
HETATM   12  C   UNL     1      44.983  -8.796   8.694  1.00  0.00     0.028 C 
BRANCH  10  13
HETATM   13  C   UNL     1      42.345  -9.227  11.253  1.00  0.00     0.032 A 
HETATM   14  C   UNL     1      42.766  -8.729  12.502  1.00  0.00     0.066 A 
HETATM   15  C   UNL     1      41.960  -8.807  13.647  1.00  0.00     0.070 A 
HETATM   16  C   UNL     1      40.705  -9.403  13.560  1.00  0.00     0.037 A 
HETATM   17  C   UNL     1      40.251  -9.892  12.342  1.00  0.00     0.005 A 
HETATM   18  C   UNL     1      41.063  -9.796  11.207  1.00  0.00     0.029 A 
BRANCH  15  19
HETATM   19  O   UNL     1      42.290  -8.354  14.895  1.00  0.00    -0.356 OA
HETATM   20  C   UNL     1      41.214  -8.077  15.783  1.00  0.00     0.210 C 
ENDBRANCH  15  19
ENDBRANCH  10  13
ENDBRANCH   7   8
ENDBRANCH   1   7
BRANCH   3  21
HETATM   21  C   UNL     1      42.657 -13.176   4.031  1.00  0.00     0.162 C 
BRANCH  21  22
HETATM   22  C   UNL     1      42.913 -14.616   3.670  1.00  0.00    -0.040 A 
HETATM   23  C   UNL     1      43.175 -15.572   4.663  1.00  0.00     0.021 A 
HETATM   24  C   UNL     1      43.445 -16.911   4.330  1.00  0.00    -0.025 A 
HETATM   25  C   UNL     1      43.450 -17.302   2.972  1.00  0.00    -0.026 A 
HETATM   26  C   UNL     1      43.717 -17.871   5.319  1.00  0.00     0.012 A 
HETATM   27  C   UNL     1      43.186 -16.343   1.982  1.00  0.00     0.013 A 
HETATM   28  C   UNL     1      43.725 -18.637   2.640  1.00  0.00     0.012 A 
HETATM   29  C   UNL     1      42.925 -15.016   2.327  1.00  0.00     0.010 A 
HETATM   30  C   UNL     1      43.995 -19.579   3.634  1.00  0.00     0.001 A 
HETATM   31  C   UNL     1      43.991 -19.196   4.972  1.00  0.00     0.001 A 
ENDBRANCH  21  22
ENDBRANCH   3  21
TORSDOF 6
ENDMDL
MODEL 9
REMARK VINA RESULT:      -9.0      7.968     11.961
REMARK  6 active torsions:
REMARK  status: ('A' for Active; 'I' for Inactive)
REMARK    1  A    between atoms: O_2  and  C_3 
REMARK    2  A    between atoms: C_5  and  N_6 
REMARK    3  A    between atoms: C_8  and  C_9 
REMARK    4  A    between atoms: C_9  and  N_10 
REMARK       I    between atoms: N_10  and  C_11 
REMARK       I    between atoms: C_11  and  N_12 
REMARK    5  A    between atoms: N_12  and  C_13 
REMARK    6  A    between atoms: C_13  and  C_14 
ROOT
HETATM    1  N   UNL     1      40.653 -14.118  -0.056  1.00  0.00    -0.343 N 
HETATM    2  C   UNL     1      41.156 -13.924   1.202  1.00  0.00     0.316 C 
HETATM    3  N   UNL     1      42.358 -14.558   1.358  1.00  0.00    -0.339 N 
HETATM    4  O   UNL     1      40.621 -13.235   2.059  1.00  0.00    -0.248 OA
HETATM    5  H   UNL     1      41.298 -14.463  -0.751  1.00  0.00     0.164 HD
HETATM    6  H   UNL     1      42.490 -15.399   0.818  1.00  0.00     0.164 HD
ENDROOT
BRANCH   1   7
HETATM    7  C   UNL     1      39.481 -13.404  -0.530  1.00  0.00     0.130 C 
BRANCH   7   8
HETATM    8  C   UNL     1      39.195 -13.629  -2.024  1.00  0.00     0.023 C 
HETATM    9  C   UNL     1      38.634 -12.379  -2.711  1.00  0.00     0.129 C 
HETATM   10  N   UNL     1      39.824 -11.621  -3.097  1.00  0.00    -0.380 N 
HETATM   11  C   UNL     1      41.017 -12.464  -3.087  1.00  0.00     0.123 C 
HETATM   12  C   UNL     1      40.482 -13.871  -2.814  1.00  0.00     0.028 C 
BRANCH  10  13
HETATM   13  C   UNL     1      39.822 -10.276  -3.394  1.00  0.00     0.032 A 
HETATM   14  C   UNL     1      40.967  -9.475  -3.212  1.00  0.00     0.066 A 
HETATM   15  C   UNL     1      40.968  -8.101  -3.490  1.00  0.00     0.070 A 
HETATM   16  C   UNL     1      39.802  -7.495  -3.950  1.00  0.00     0.037 A 
HETATM   17  C   UNL     1      38.658  -8.256  -4.154  1.00  0.00     0.005 A 
HETATM   18  C   UNL     1      38.677  -9.629  -3.884  1.00  0.00     0.029 A 
BRANCH  15  19
HETATM   19  O   UNL     1      42.030  -7.251  -3.340  1.00  0.00    -0.356 OA
HETATM   20  C   UNL     1      42.781  -7.367  -2.139  1.00  0.00     0.210 C 
ENDBRANCH  15  19
ENDBRANCH  10  13
ENDBRANCH   7   8
ENDBRANCH   1   7
BRANCH   3  21
HETATM   21  C   UNL     1      43.058 -14.485   2.620  1.00  0.00     0.162 C 
BRANCH  21  22
HETATM   22  C   UNL     1      43.331 -15.861   3.167  1.00  0.00    -0.040 A 
HETATM   23  C   UNL     1      43.256 -16.992   2.342  1.00  0.00     0.021 A 
HETATM   24  C   UNL     1      43.478 -18.283   2.855  1.00  0.00    -0.025 A 
HETATM   25  C   UNL     1      43.787 -18.442   4.225  1.00  0.00    -0.026 A 
HETATM   26  C   UNL     1      43.396 -19.421   2.036  1.00  0.00     0.012 A 
HETATM   27  C   UNL     1      43.863 -17.308   5.046  1.00  0.00     0.013 A 
HETATM   28  C   UNL     1      44.004 -19.731   4.737  1.00  0.00     0.012 A 
HETATM   29  C   UNL     1      43.633 -16.033   4.525  1.00  0.00     0.010 A 
HETATM   30  C   UNL     1      43.916 -20.852   3.910  1.00  0.00     0.001 A 
HETATM   31  C   UNL     1      43.612 -20.697   2.561  1.00  0.00     0.001 A 
ENDBRANCH  21  22
ENDBRANCH   3  21
TORSDOF 6
ENDMDL
MODEL 10
REMARK VINA RESULT:      -8.8     19.075     21.256
REMARK  6 active torsions:
REMARK  status: ('A' for Active; 'I' for Inactive)
REMARK    1  A    between atoms: O_2  and  C_3 
REMARK    2  A    between atoms: C_5  and  N_6 
REMARK    3  A    between atoms: C_8  and  C_9 
REMARK    4  A    between atoms: C_9  and  N_10 
REMARK       I    between atoms: N_10  and  C_11 
REMARK       I    between atoms: C_11  and  N_12 
REMARK    5  A    between atoms: N_12  and  C_13 
REMARK    6  A    between atoms: C_13  and  C_14 
ROOT
HETATM    1  N   UNL     1      50.605 -29.815   2.177  1.00  0.00    -0.343 N 
HETATM    2  C   UNL     1      50.305 -30.458   1.006  1.00  0.00     0.316 C 
HETATM    3  N   UNL     1      50.267 -29.582  -0.044  1.00  0.00    -0.339 N 
HETATM    4  O   UNL     1      50.140 -31.665   0.906  1.00  0.00    -0.248 OA
HETATM    5  H   UNL     1      50.988 -28.885   2.095  1.00  0.00     0.164 HD
HETATM    6  H   UNL     1      49.984 -28.639   0.174  1.00  0.00     0.164 HD
ENDROOT
BRANCH   1   7
HETATM    7  C   UNL     1      50.882 -30.545   3.401  1.00  0.00     0.130 C 
BRANCH   7   8
HETATM    8  C   UNL     1      49.839 -30.299   4.504  1.00  0.00     0.023 C 
HETATM    9  C   UNL     1      48.579 -29.604   3.978  1.00  0.00     0.129 C 
HETATM   10  N   UNL     1      47.743 -30.701   3.492  1.00  0.00    -0.380 N 
HETATM   11  C   UNL     1      48.180 -31.984   4.039  1.00  0.00     0.123 C 
HETATM   12  C   UNL     1      49.271 -31.612   5.045  1.00  0.00     0.028 C 
BRANCH  10  13
HETATM   13  C   UNL     1      46.703 -30.547   2.602  1.00  0.00     0.032 A 
HETATM   14  C   UNL     1      45.492 -29.934   2.977  1.00  0.00     0.066 A 
HETATM   15  C   UNL     1      44.419 -29.793   2.085  1.00  0.00     0.070 A 
HETATM   16  C   UNL     1      44.540 -30.282   0.787  1.00  0.00     0.037 A 
HETATM   17  C   UNL     1      45.725 -30.880   0.378  1.00  0.00     0.005 A 
HETATM   18  C   UNL     1      46.790 -31.002   1.277  1.00  0.00     0.029 A 
BRANCH  15  19
HETATM   19  O   UNL     1      43.210 -29.216   2.365  1.00  0.00    -0.356 OA
HETATM   20  C   UNL     1      42.277 -30.002   3.094  1.00  0.00     0.210 C 
ENDBRANCH  15  19
ENDBRANCH  10  13
ENDBRANCH   7   8
ENDBRANCH   1   7
BRANCH   3  21
HETATM   21  C   UNL     1      49.960 -30.057  -1.374  1.00  0.00     0.162 C 
BRANCH  21  22
HETATM   22  C   UNL     1      48.572 -29.644  -1.788  1.00  0.00    -0.040 A 
HETATM   23  C   UNL     1      47.786 -30.475  -2.600  1.00  0.00     0.021 A 
HETATM   24  C   UNL     1      46.502 -30.081  -3.016  1.00  0.00    -0.025 A 
HETATM   25  C   UNL     1      45.992 -28.829  -2.605  1.00  0.00    -0.026 A 
HETATM   26  C   UNL     1      45.713 -30.904  -3.837  1.00  0.00     0.012 A 
HETATM   27  C   UNL     1      46.781 -28.002  -1.791  1.00  0.00     0.013 A 
HETATM   28  C   UNL     1      44.712 -28.434  -3.024  1.00  0.00     0.012 A 
HETATM   29  C   UNL     1      48.056 -28.403  -1.391  1.00  0.00     0.010 A 
HETATM   30  C   UNL     1      43.942 -29.262  -3.842  1.00  0.00     0.001 A 
HETATM   31  C   UNL     1      44.442 -30.496  -4.248  1.00  0.00     0.001 A 
ENDBRANCH  21  22
ENDBRANCH   3  21
TORSDOF 6
ENDMDL
