MODEL 1
REMARK VINA RESULT:      -7.5      0.000      0.000
REMARK  7 active torsions:
REMARK  status: ('A' for Active; 'I' for Inactive)
REMARK    1  A    between atoms: O_2  and  C_3 
REMARK    2  A    between atoms: C_5  and  C_6 
REMARK    3  A    between atoms: C_10  and  N_11 
REMARK    4  A    between atoms: N_11  and  C_12 
REMARK    5  A    between atoms: C_12  and  S_13 
REMARK    6  A    between atoms: N_15  and  C_17 
REMARK    7  A    between atoms: C_17  and  C_18 
ROOT
HETATM    1  C   UNL     1      43.215 -15.460   5.191  1.00  0.00     0.064 A 
HETATM    2  N   UNL     1      43.871 -15.262   6.382  1.00  0.00    -0.276 N 
HETATM    3  H   UNL     1      44.534 -15.884   6.833  1.00  0.00     0.189 HD
HETATM    4  N   UNL     1      43.572 -14.102   6.999  1.00  0.00    -0.156 NA
HETATM    5  C   UNL     1      42.720 -13.509   6.162  1.00  0.00     0.151 A 
HETATM    6  C   UNL     1      42.476 -14.302   5.024  1.00  0.00     0.084 A 
ENDROOT
BRANCH   5   7
HETATM    7  N   UNL     1      42.128 -12.316   6.352  1.00  0.00    -0.320 N 
HETATM    8  H   UNL     1      41.157 -12.191   6.096  1.00  0.00     0.169 HD
BRANCH   7   9
HETATM    9  C   UNL     1      42.691 -11.132   6.873  1.00  0.00     0.141 C 
HETATM   10  N   UNL     1      43.634 -11.216   7.781  1.00  0.00    -0.365 N 
HETATM   11  H   UNL     1      43.883 -12.176   8.042  1.00  0.00     0.162 HD
BRANCH   9  12
HETATM   12  S   UNL     1      42.081  -9.649   6.247  1.00  0.00    -0.099 SA
HETATM   13  C   UNL     1      42.001 -10.070   4.491  1.00  0.00     0.099 C 
ENDBRANCH   9  12
BRANCH  10  14
HETATM   14  C   UNL     1      44.334 -10.093   8.395  1.00  0.00     0.186 C 
BRANCH  14  15
HETATM   15  C   UNL     1      43.947  -9.956   9.825  1.00  0.00     0.070 A 
HETATM   16  O   UNL     1      43.846 -11.097  10.570  1.00  0.00    -0.325 OA
HETATM   17  C   UNL     1      43.495 -10.722  11.826  1.00  0.00     0.142 A 
HETATM   18  C   UNL     1      43.366  -9.356  11.904  1.00  0.00     0.027 A 
HETATM   19  C   UNL     1      43.657  -8.857  10.611  1.00  0.00     0.036 A 
ENDBRANCH  14  15
ENDBRANCH  10  14
ENDBRANCH   7   9
ENDBRANCH   5   7
BRANCH   1  20
HETATM   20  C   UNL     1      43.326 -16.661   4.356  1.00  0.00    -0.005 A 
HETATM   21  C   UNL     1      43.913 -17.826   4.874  1.00  0.00     0.050 A 
HETATM   22  C   UNL     1      44.082 -18.976   4.094  1.00  0.00     0.069 A 
HETATM   23  C   UNL     1      43.634 -18.979   2.777  1.00  0.00     0.037 A 
HETATM   24  C   UNL     1      43.039 -17.833   2.244  1.00  0.00     0.004 A 
HETATM   25  C   UNL     1      42.889 -16.682   3.025  1.00  0.00     0.014 A 
BRANCH  22  26
HETATM   26  O   UNL     1      44.687 -20.018   4.741  1.00  0.00    -0.356 OA
HETATM   27  C   UNL     1      43.832 -20.997   5.319  1.00  0.00     0.210 C 
ENDBRANCH  22  26
ENDBRANCH   1  20
TORSDOF 7
ENDMDL
MODEL 2
REMARK VINA RESULT:      -7.4      1.683      2.374
REMARK  7 active torsions:
REMARK  status: ('A' for Active; 'I' for Inactive)
REMARK    1  A    between atoms: O_2  and  C_3 
REMARK    2  A    between atoms: C_5  and  C_6 
REMARK    3  A    between atoms: C_10  and  N_11 
REMARK    4  A    between atoms: N_11  and  C_12 
REMARK    5  A    between atoms: C_12  and  S_13 
REMARK    6  A    between atoms: N_15  and  C_17 
REMARK    7  A    between atoms: C_17  and  C_18 
ROOT
HETATM    1  C   UNL     1      43.275 -16.795   6.350  1.00  0.00     0.064 A 
HETATM    2  N   UNL     1      43.273 -16.517   7.696  1.00  0.00    -0.276 N 
HETATM    3  H   UNL     1      43.472 -17.155   8.459  1.00  0.00     0.189 HD
HETATM    4  N   UNL     1      42.958 -15.243   8.002  1.00  0.00    -0.156 NA
HETATM    5  C   UNL     1      42.786 -14.664   6.814  1.00  0.00     0.151 A 
HETATM    6  C   UNL     1      42.983 -15.578   5.760  1.00  0.00     0.084 A 
ENDROOT
BRANCH   5   7
HETATM    7  N   UNL     1      42.446 -13.380   6.602  1.00  0.00    -0.320 N 
HETATM    8  H   UNL     1      41.479 -13.139   6.426  1.00  0.00     0.169 HD
BRANCH   7   9
HETATM    9  C   UNL     1      43.284 -12.246   6.572  1.00  0.00     0.141 C 
HETATM   10  N   UNL     1      44.307 -12.182   7.392  1.00  0.00    -0.365 N 
HETATM   11  H   UNL     1      44.405 -12.997   8.006  1.00  0.00     0.162 HD
BRANCH   9  12
HETATM   12  S   UNL     1      42.884 -11.023   5.428  1.00  0.00    -0.099 SA
HETATM   13  C   UNL     1      43.802 -11.634   3.997  1.00  0.00     0.099 C 
ENDBRANCH   9  12
BRANCH  10  14
HETATM   14  C   UNL     1      45.279 -11.097   7.464  1.00  0.00     0.186 C 
BRANCH  14  15
HETATM   15  C   UNL     1      44.915 -10.141   8.544  1.00  0.00     0.070 A 
HETATM   16  O   UNL     1      44.329  -8.961   8.179  1.00  0.00    -0.325 OA
HETATM   17  C   UNL     1      44.085  -8.269   9.320  1.00  0.00     0.142 A 
HETATM   18  C   UNL     1      44.505  -8.982  10.417  1.00  0.00     0.027 A 
HETATM   19  C   UNL     1      45.043 -10.193   9.918  1.00  0.00     0.036 A 
ENDBRANCH  14  15
ENDBRANCH  10  14
ENDBRANCH   7   9
ENDBRANCH   5   7
BRANCH   1  20
HETATM   20  C   UNL     1      43.533 -18.114   5.762  1.00  0.00    -0.005 A 
HETATM   21  C   UNL     1      43.784 -18.233   4.386  1.00  0.00     0.050 A 
HETATM   22  C   UNL     1      43.986 -19.479   3.779  1.00  0.00     0.069 A 
HETATM   23  C   UNL     1      43.964 -20.630   4.560  1.00  0.00     0.037 A 
HETATM   24  C   UNL     1      43.725 -20.533   5.932  1.00  0.00     0.004 A 
HETATM   25  C   UNL     1      43.507 -19.286   6.528  1.00  0.00     0.014 A 
BRANCH  22  26
HETATM   26  O   UNL     1      44.200 -19.425   2.429  1.00  0.00    -0.356 OA
HETATM   27  C   UNL     1      43.602 -20.450   1.644  1.00  0.00     0.210 C 
ENDBRANCH  22  26
ENDBRANCH   1  20
TORSDOF 7
ENDMDL
MODEL 3
REMARK VINA RESULT:      -7.2      5.178      7.571
REMARK  7 active torsions:
REMARK  status: ('A' for Active; 'I' for Inactive)
REMARK    1  A    between atoms: O_2  and  C_3 
REMARK    2  A    between atoms: C_5  and  C_6 
REMARK    3  A    between atoms: C_10  and  N_11 
REMARK    4  A    between atoms: N_11  and  C_12 
REMARK    5  A    between atoms: C_12  and  S_13 
REMARK    6  A    between atoms: N_15  and  C_17 
REMARK    7  A    between atoms: C_17  and  C_18 
ROOT
HETATM    1  C   UNL     1      43.323 -16.612   4.199  1.00  0.00     0.064 A 
HETATM    2  N   UNL     1      43.344 -15.556   5.077  1.00  0.00    -0.276 N 
HETATM    3  H   UNL     1      43.543 -15.583   6.072  1.00  0.00     0.189 HD
HETATM    4  N   UNL     1      43.055 -14.362   4.522  1.00  0.00    -0.156 NA
HETATM    5  C   UNL     1      42.876 -14.647   3.232  1.00  0.00     0.151 A 
HETATM    6  C   UNL     1      43.044 -16.023   2.978  1.00  0.00     0.084 A 
ENDROOT
BRANCH   5   7
HETATM    7  N   UNL     1      42.555 -13.768   2.267  1.00  0.00    -0.320 N 
HETATM    8  H   UNL     1      43.287 -13.271   1.775  1.00  0.00     0.169 HD
BRANCH   7   9
HETATM    9  C   UNL     1      41.272 -13.397   1.812  1.00  0.00     0.141 C 
HETATM   10  N   UNL     1      41.163 -12.662   0.730  1.00  0.00    -0.365 N 
HETATM   11  H   UNL     1      42.059 -12.414   0.298  1.00  0.00     0.162 HD
BRANCH   9  12
HETATM   12  S   UNL     1      39.933 -13.962   2.735  1.00  0.00    -0.099 SA
HETATM   13  C   UNL     1      39.744 -12.574   3.877  1.00  0.00     0.099 C 
ENDBRANCH   9  12
BRANCH  10  14
HETATM   14  C   UNL     1      39.916 -12.221   0.116  1.00  0.00     0.186 C 
BRANCH  14  15
HETATM   15  C   UNL     1      39.591 -13.059  -1.069  1.00  0.00     0.070 A 
HETATM   16  O   UNL     1      39.469 -12.433  -2.277  1.00  0.00    -0.325 OA
HETATM   17  C   UNL     1      39.182 -13.391  -3.195  1.00  0.00     0.142 A 
HETATM   18  C   UNL     1      39.116 -14.627  -2.597  1.00  0.00     0.027 A 
HETATM   19  C   UNL     1      39.379 -14.415  -1.222  1.00  0.00     0.036 A 
ENDBRANCH  14  15
ENDBRANCH  10  14
ENDBRANCH   7   9
ENDBRANCH   5   7
BRANCH   1  20
HETATM   20  C   UNL     1      43.551 -18.015   4.561  1.00  0.00    -0.005 A 
HETATM   21  C   UNL     1      43.729 -18.981   3.558  1.00  0.00     0.050 A 
HETATM   22  C   UNL     1      43.900 -20.337   3.862  1.00  0.00     0.069 A 
HETATM   23  C   UNL     1      43.920 -20.740   5.193  1.00  0.00     0.037 A 
HETATM   24  C   UNL     1      43.754 -19.795   6.207  1.00  0.00     0.004 A 
HETATM   25  C   UNL     1      43.567 -18.444   5.895  1.00  0.00     0.014 A 
BRANCH  22  26
HETATM   26  O   UNL     1      44.042 -21.150   2.771  1.00  0.00    -0.356 OA
HETATM   27  C   UNL     1      43.621 -20.623   1.519  1.00  0.00     0.210 C 
ENDBRANCH  22  26
ENDBRANCH   1  20
TORSDOF 7
ENDMDL
MODEL 4
REMARK VINA RESULT:      -7.1      5.476      8.389
REMARK  7 active torsions:
REMARK  status: ('A' for Active; 'I' for Inactive)
REMARK    1  A    between atoms: O_2  and  C_3 
REMARK    2  A    between atoms: C_5  and  C_6 
REMARK    3  A    between atoms: C_10  and  N_11 
REMARK    4  A    between atoms: N_11  and  C_12 
REMARK    5  A    between atoms: C_12  and  S_13 
REMARK    6  A    between atoms: N_15  and  C_17 
REMARK    7  A    between atoms: C_17  and  C_18 
ROOT
HETATM    1  C   UNL     1      42.196 -15.961   2.584  1.00  0.00     0.064 A 
HETATM    2  N   UNL     1      41.108 -16.093   1.755  1.00  0.00    -0.276 N 
HETATM    3  H   UNL     1      40.584 -16.938   1.553  1.00  0.00     0.189 HD
HETATM    4  N   UNL     1      40.724 -14.951   1.151  1.00  0.00    -0.156 NA
HETATM    5  C   UNL     1      41.569 -14.039   1.632  1.00  0.00     0.151 A 
HETATM    6  C   UNL     1      42.490 -14.610   2.532  1.00  0.00     0.084 A 
ENDROOT
BRANCH   5   7
HETATM    7  N   UNL     1      41.589 -12.733   1.310  1.00  0.00    -0.320 N 
HETATM    8  H   UNL     1      42.010 -12.065   1.943  1.00  0.00     0.169 HD
BRANCH   7   9
HETATM    9  C   UNL     1      41.066 -12.107   0.158  1.00  0.00     0.141 C 
HETATM   10  N   UNL     1      41.186 -12.702  -1.005  1.00  0.00    -0.365 N 
HETATM   11  H   UNL     1      41.671 -13.605  -0.968  1.00  0.00     0.162 HD
BRANCH   9  12
HETATM   12  S   UNL     1      40.293 -10.587   0.391  1.00  0.00    -0.099 SA
HETATM   13  C   UNL     1      38.639 -11.155   0.849  1.00  0.00     0.099 C 
ENDBRANCH   9  12
BRANCH  10  14
HETATM   14  C   UNL     1      40.677 -12.204  -2.278  1.00  0.00     0.186 C 
BRANCH  14  15
HETATM   15  C   UNL     1      39.406 -12.888  -2.637  1.00  0.00     0.070 A 
HETATM   16  O   UNL     1      39.490 -14.105  -3.254  1.00  0.00    -0.325 OA
HETATM   17  C   UNL     1      38.219 -14.528  -3.471  1.00  0.00     0.142 A 
HETATM   18  C   UNL     1      37.315 -13.603  -3.005  1.00  0.00     0.027 A 
HETATM   19  C   UNL     1      38.080 -12.541  -2.465  1.00  0.00     0.036 A 
ENDBRANCH  14  15
ENDBRANCH  10  14
ENDBRANCH   7   9
ENDBRANCH   5   7
BRANCH   1  20
HETATM   20  C   UNL     1      42.838 -17.059   3.314  1.00  0.00    -0.005 A 
HETATM   21  C   UNL     1      42.928 -17.015   4.714  1.00  0.00     0.050 A 
HETATM   22  C   UNL     1      43.575 -18.020   5.444  1.00  0.00     0.069 A 
HETATM   23  C   UNL     1      44.125 -19.106   4.770  1.00  0.00     0.037 A 
HETATM   24  C   UNL     1      44.039 -19.173   3.378  1.00  0.00     0.004 A 
HETATM   25  C   UNL     1      43.405 -18.158   2.655  1.00  0.00     0.014 A 
BRANCH  22  26
HETATM   26  O   UNL     1      43.592 -17.819   6.797  1.00  0.00    -0.356 OA
HETATM   27  C   UNL     1      43.584 -16.469   7.245  1.00  0.00     0.210 C 
ENDBRANCH  22  26
ENDBRANCH   1  20
TORSDOF 7
ENDMDL
MODEL 5
REMARK VINA RESULT:      -7.1      5.864      8.379
REMARK  7 active torsions:
REMARK  status: ('A' for Active; 'I' for Inactive)
REMARK    1  A    between atoms: O_2  and  C_3 
REMARK    2  A    between atoms: C_5  and  C_6 
REMARK    3  A    between atoms: C_10  and  N_11 
REMARK    4  A    between atoms: N_11  and  C_12 
REMARK    5  A    between atoms: C_12  and  S_13 
REMARK    6  A    between atoms: N_15  and  C_17 
REMARK    7  A    between atoms: C_17  and  C_18 
ROOT
HETATM    1  C   UNL     1      42.164 -15.467   2.293  1.00  0.00     0.064 A 
HETATM    2  N   UNL     1      42.408 -14.119   2.194  1.00  0.00    -0.276 N 
HETATM    3  H   UNL     1      43.137 -13.587   2.659  1.00  0.00     0.189 HD
HETATM    4  N   UNL     1      41.561 -13.455   1.383  1.00  0.00    -0.156 NA
HETATM    5  C   UNL     1      40.761 -14.411   0.910  1.00  0.00     0.151 A 
HETATM    6  C   UNL     1      41.100 -15.675   1.433  1.00  0.00     0.084 A 
ENDROOT
BRANCH   5   7
HETATM    7  N   UNL     1      39.735 -14.233   0.059  1.00  0.00    -0.320 N 
HETATM    8  H   UNL     1      38.821 -14.601   0.290  1.00  0.00     0.169 HD
BRANCH   7   9
HETATM    9  C   UNL     1      39.739 -13.585  -1.194  1.00  0.00     0.141 C 
HETATM   10  N   UNL     1      40.860 -13.079  -1.651  1.00  0.00    -0.365 N 
HETATM   11  H   UNL     1      41.664 -13.204  -1.026  1.00  0.00     0.162 HD
BRANCH   9  12
HETATM   12  S   UNL     1      38.238 -13.524  -2.035  1.00  0.00    -0.099 SA
HETATM   13  C   UNL     1      38.405 -15.003  -3.061  1.00  0.00     0.099 C 
ENDBRANCH   9  12
BRANCH  10  14
HETATM   14  C   UNL     1      41.037 -12.407  -2.933  1.00  0.00     0.186 C 
BRANCH  14  15
HETATM   15  C   UNL     1      40.881 -10.936  -2.777  1.00  0.00     0.070 A 
HETATM   16  O   UNL     1      41.594 -10.321  -1.786  1.00  0.00    -0.325 OA
HETATM   17  C   UNL     1      41.297  -8.998  -1.846  1.00  0.00     0.142 A 
HETATM   18  C   UNL     1      40.403  -8.748  -2.859  1.00  0.00     0.027 A 
HETATM   19  C   UNL     1      40.131 -10.000  -3.463  1.00  0.00     0.036 A 
ENDBRANCH  14  15
ENDBRANCH  10  14
ENDBRANCH   7   9
ENDBRANCH   5   7
BRANCH   1  20
HETATM   20  C   UNL     1      42.908 -16.398   3.148  1.00  0.00    -0.005 A 
HETATM   21  C   UNL     1      43.184 -17.699   2.698  1.00  0.00     0.050 A 
HETATM   22  C   UNL     1      43.848 -18.632   3.502  1.00  0.00     0.069 A 
HETATM   23  C   UNL     1      44.271 -18.258   4.774  1.00  0.00     0.037 A 
HETATM   24  C   UNL     1      44.014 -16.967   5.238  1.00  0.00     0.004 A 
HETATM   25  C   UNL     1      43.336 -16.045   4.434  1.00  0.00     0.014 A 
BRANCH  22  26
HETATM   26  O   UNL     1      44.023 -19.859   2.924  1.00  0.00    -0.356 OA
HETATM   27  C   UNL     1      43.109 -20.219   1.894  1.00  0.00     0.210 C 
ENDBRANCH  22  26
ENDBRANCH   1  20
TORSDOF 7
ENDMDL
MODEL 6
REMARK VINA RESULT:      -7.1      5.648      8.132
REMARK  7 active torsions:
REMARK  status: ('A' for Active; 'I' for Inactive)
REMARK    1  A    between atoms: O_2  and  C_3 
REMARK    2  A    between atoms: C_5  and  C_6 
REMARK    3  A    between atoms: C_10  and  N_11 
REMARK    4  A    between atoms: N_11  and  C_12 
REMARK    5  A    between atoms: C_12  and  S_13 
REMARK    6  A    between atoms: N_15  and  C_17 
REMARK    7  A    between atoms: C_17  and  C_18 
ROOT
HETATM    1  C   UNL     1      42.076 -15.832   2.198  1.00  0.00     0.064 A 
HETATM    2  N   UNL     1      42.481 -14.520   2.213  1.00  0.00    -0.276 N 
HETATM    3  H   UNL     1      43.288 -14.127   2.687  1.00  0.00     0.189 HD
HETATM    4  N   UNL     1      41.691 -13.682   1.511  1.00  0.00    -0.156 NA
HETATM    5  C   UNL     1      40.761 -14.485   0.994  1.00  0.00     0.151 A 
HETATM    6  C   UNL     1      40.961 -15.825   1.378  1.00  0.00     0.084 A 
ENDROOT
BRANCH   5   7
HETATM    7  N   UNL     1      39.731 -14.102   0.217  1.00  0.00    -0.320 N 
HETATM    8  H   UNL     1      38.782 -14.306   0.504  1.00  0.00     0.169 HD
BRANCH   7   9
HETATM    9  C   UNL     1      39.772 -13.431  -1.023  1.00  0.00     0.141 C 
HETATM   10  N   UNL     1      40.871 -12.808  -1.379  1.00  0.00    -0.365 N 
HETATM   11  H   UNL     1      41.630 -12.869  -0.693  1.00  0.00     0.162 HD
BRANCH   9  12
HETATM   12  S   UNL     1      38.345 -13.498  -1.983  1.00  0.00    -0.099 SA
HETATM   13  C   UNL     1      38.631 -15.062  -2.843  1.00  0.00     0.099 C 
ENDBRANCH   9  12
BRANCH  10  14
HETATM   14  C   UNL     1      41.083 -12.096  -2.634  1.00  0.00     0.186 C 
BRANCH  14  15
HETATM   15  C   UNL     1      41.212 -10.634  -2.389  1.00  0.00     0.070 A 
HETATM   16  O   UNL     1      41.872 -10.233  -1.262  1.00  0.00    -0.325 OA
HETATM   17  C   UNL     1      41.868  -8.876  -1.261  1.00  0.00     0.142 A 
HETATM   18  C   UNL     1      41.213  -8.394  -2.370  1.00  0.00     0.027 A 
HETATM   19  C   UNL     1      40.787  -9.529  -3.101  1.00  0.00     0.036 A 
ENDBRANCH  14  15
ENDBRANCH  10  14
ENDBRANCH   7   9
ENDBRANCH   5   7
BRANCH   1  20
HETATM   20  C   UNL     1      42.732 -16.925   2.923  1.00  0.00    -0.005 A 
HETATM   21  C   UNL     1      43.030 -16.786   4.287  1.00  0.00     0.050 A 
HETATM   22  C   UNL     1      43.698 -17.787   5.002  1.00  0.00     0.069 A 
HETATM   23  C   UNL     1      44.057 -18.964   4.354  1.00  0.00     0.037 A 
HETATM   24  C   UNL     1      43.762 -19.128   2.999  1.00  0.00     0.004 A 
HETATM   25  C   UNL     1      43.109 -18.116   2.288  1.00  0.00     0.014 A 
BRANCH  22  26
HETATM   26  O   UNL     1      43.929 -17.489   6.317  1.00  0.00    -0.356 OA
HETATM   27  C   UNL     1      44.714 -16.332   6.584  1.00  0.00     0.210 C 
ENDBRANCH  22  26
ENDBRANCH   1  20
TORSDOF 7
ENDMDL
MODEL 7
REMARK VINA RESULT:      -7.0      1.957      2.638
REMARK  7 active torsions:
REMARK  status: ('A' for Active; 'I' for Inactive)
REMARK    1  A    between atoms: O_2  and  C_3 
REMARK    2  A    between atoms: C_5  and  C_6 
REMARK    3  A    between atoms: C_10  and  N_11 
REMARK    4  A    between atoms: N_11  and  C_12 
REMARK    5  A    between atoms: C_12  and  S_13 
REMARK    6  A    between atoms: N_15  and  C_17 
REMARK    7  A    between atoms: C_17  and  C_18 
ROOT
HETATM    1  C   UNL     1      43.187 -13.172   4.075  1.00  0.00     0.064 A 
HETATM    2  N   UNL     1      43.547 -12.012   3.434  1.00  0.00    -0.276 N 
HETATM    3  H   UNL     1      43.803 -11.898   2.458  1.00  0.00     0.189 HD
HETATM    4  N   UNL     1      43.558 -10.918   4.222  1.00  0.00    -0.156 NA
HETATM    5  C   UNL     1      43.156 -11.378   5.407  1.00  0.00     0.151 A 
HETATM    6  C   UNL     1      42.901 -12.763   5.365  1.00  0.00     0.084 A 
ENDROOT
BRANCH   5   7
HETATM    7  N   UNL     1      43.019 -10.652   6.530  1.00  0.00    -0.320 N 
HETATM    8  H   UNL     1      42.277  -9.966   6.598  1.00  0.00     0.169 HD
BRANCH   7   9
HETATM    9  C   UNL     1      43.807 -10.689   7.700  1.00  0.00     0.141 C 
HETATM   10  N   UNL     1      43.223 -10.583   8.870  1.00  0.00    -0.365 N 
HETATM   11  H   UNL     1      42.204 -10.476   8.824  1.00  0.00     0.162 HD
BRANCH   9  12
HETATM   12  S   UNL     1      45.503 -10.884   7.480  1.00  0.00    -0.099 SA
HETATM   13  C   UNL     1      46.056  -9.212   7.885  1.00  0.00     0.099 C 
ENDBRANCH   9  12
BRANCH  10  14
HETATM   14  C   UNL     1      43.889 -10.632  10.166  1.00  0.00     0.186 C 
BRANCH  14  15
HETATM   15  C   UNL     1      43.214  -9.727  11.135  1.00  0.00     0.070 A 
HETATM   16  O   UNL     1      41.873  -9.899  11.339  1.00  0.00    -0.325 OA
HETATM   17  C   UNL     1      41.489  -8.976  12.257  1.00  0.00     0.142 A 
HETATM   18  C   UNL     1      42.561  -8.210  12.649  1.00  0.00     0.027 A 
HETATM   19  C   UNL     1      43.677  -8.693  11.925  1.00  0.00     0.036 A 
ENDBRANCH  14  15
ENDBRANCH  10  14
ENDBRANCH   7   9
ENDBRANCH   5   7
BRANCH   1  20
HETATM   20  C   UNL     1      43.147 -14.501   3.455  1.00  0.00    -0.005 A 
HETATM   21  C   UNL     1      43.187 -15.653   4.256  1.00  0.00     0.050 A 
HETATM   22  C   UNL     1      43.200 -16.938   3.701  1.00  0.00     0.069 A 
HETATM   23  C   UNL     1      43.148 -17.084   2.318  1.00  0.00     0.037 A 
HETATM   24  C   UNL     1      43.099 -15.951   1.502  1.00  0.00     0.004 A 
HETATM   25  C   UNL     1      43.103 -14.671   2.065  1.00  0.00     0.014 A 
BRANCH  22  26
HETATM   26  O   UNL     1      43.259 -17.952   4.616  1.00  0.00    -0.356 OA
HETATM   27  C   UNL     1      44.293 -18.914   4.442  1.00  0.00     0.210 C 
ENDBRANCH  22  26
ENDBRANCH   1  20
TORSDOF 7
ENDMDL
MODEL 8
REMARK VINA RESULT:      -6.9      5.108      7.714
REMARK  7 active torsions:
REMARK  status: ('A' for Active; 'I' for Inactive)
REMARK    1  A    between atoms: O_2  and  C_3 
REMARK    2  A    between atoms: C_5  and  C_6 
REMARK    3  A    between atoms: C_10  and  N_11 
REMARK    4  A    between atoms: N_11  and  C_12 
REMARK    5  A    between atoms: C_12  and  S_13 
REMARK    6  A    between atoms: N_15  and  C_17 
REMARK    7  A    between atoms: C_17  and  C_18 
ROOT
HETATM    1  C   UNL     1      41.626 -15.165   4.285  1.00  0.00     0.064 A 
HETATM    2  N   UNL     1      41.423 -14.392   5.403  1.00  0.00    -0.276 N 
HETATM    3  H   UNL     1      41.902 -14.457   6.295  1.00  0.00     0.189 HD
HETATM    4  N   UNL     1      40.464 -13.454   5.267  1.00  0.00    -0.156 NA
HETATM    5  C   UNL     1      40.056 -13.599   4.007  1.00  0.00     0.151 A 
HETATM    6  C   UNL     1      40.752 -14.635   3.353  1.00  0.00     0.084 A 
ENDROOT
BRANCH   5   7
HETATM    7  N   UNL     1      39.091 -12.883   3.402  1.00  0.00    -0.320 N 
HETATM    8  H   UNL     1      38.169 -12.833   3.816  1.00  0.00     0.169 HD
BRANCH   7   9
HETATM    9  C   UNL     1      39.165 -12.157   2.194  1.00  0.00     0.141 C 
HETATM   10  N   UNL     1      38.525 -12.602   1.139  1.00  0.00    -0.365 N 
HETATM   11  H   UNL     1      38.011 -13.475   1.295  1.00  0.00     0.162 HD
BRANCH   9  12
HETATM   12  S   UNL     1      40.102 -10.714   2.219  1.00  0.00    -0.099 SA
HETATM   13  C   UNL     1      41.673 -11.361   1.603  1.00  0.00     0.099 C 
ENDBRANCH   9  12
BRANCH  10  14
HETATM   14  C   UNL     1      38.477 -11.957  -0.168  1.00  0.00     0.186 C 
BRANCH  14  15
HETATM   15  C   UNL     1      38.679 -12.956  -1.252  1.00  0.00     0.070 A 
HETATM   16  O   UNL     1      37.642 -13.178  -2.115  1.00  0.00    -0.325 OA
HETATM   17  C   UNL     1      38.061 -14.111  -3.007  1.00  0.00     0.142 A 
HETATM   18  C   UNL     1      39.351 -14.496  -2.733  1.00  0.00     0.027 A 
HETATM   19  C   UNL     1      39.754 -13.752  -1.598  1.00  0.00     0.036 A 
ENDBRANCH  14  15
ENDBRANCH  10  14
ENDBRANCH   7   9
ENDBRANCH   5   7
BRANCH   1  20
HETATM   20  C   UNL     1      42.571 -16.283   4.193  1.00  0.00    -0.005 A 
HETATM   21  C   UNL     1      42.520 -17.158   3.097  1.00  0.00     0.050 A 
HETATM   22  C   UNL     1      43.373 -18.264   2.997  1.00  0.00     0.069 A 
HETATM   23  C   UNL     1      44.314 -18.493   3.996  1.00  0.00     0.037 A 
HETATM   24  C   UNL     1      44.387 -17.629   5.090  1.00  0.00     0.004 A 
HETATM   25  C   UNL     1      43.521 -16.536   5.191  1.00  0.00     0.014 A 
BRANCH  22  26
HETATM   26  O   UNL     1      43.184 -19.028   1.878  1.00  0.00    -0.356 OA
HETATM   27  C   UNL     1      43.514 -20.408   1.981  1.00  0.00     0.210 C 
ENDBRANCH  22  26
ENDBRANCH   1  20
TORSDOF 7
ENDMDL
MODEL 9
REMARK VINA RESULT:      -6.8      5.044      7.570
REMARK  7 active torsions:
REMARK  status: ('A' for Active; 'I' for Inactive)
REMARK    1  A    between atoms: O_2  and  C_3 
REMARK    2  A    between atoms: C_5  and  C_6 
REMARK    3  A    between atoms: C_10  and  N_11 
REMARK    4  A    between atoms: N_11  and  C_12 
REMARK    5  A    between atoms: C_12  and  S_13 
REMARK    6  A    between atoms: N_15  and  C_17 
REMARK    7  A    between atoms: C_17  and  C_18 
ROOT
HETATM    1  C   UNL     1      41.344 -16.016   2.648  1.00  0.00     0.064 A 
HETATM    2  N   UNL     1      40.998 -15.825   1.332  1.00  0.00    -0.276 N 
HETATM    3  H   UNL     1      41.361 -16.315   0.520  1.00  0.00     0.189 HD
HETATM    4  N   UNL     1      40.073 -14.866   1.131  1.00  0.00    -0.156 NA
HETATM    5  C   UNL     1      39.781 -14.445   2.361  1.00  0.00     0.151 A 
HETATM    6  C   UNL     1      40.531 -15.133   3.335  1.00  0.00     0.084 A 
ENDROOT
BRANCH   5   7
HETATM    7  N   UNL     1      38.906 -13.474   2.676  1.00  0.00    -0.320 N 
HETATM    8  H   UNL     1      38.324 -13.569   3.500  1.00  0.00     0.169 HD
BRANCH   7   9
HETATM    9  C   UNL     1      38.643 -12.272   1.985  1.00  0.00     0.141 C 
HETATM   10  N   UNL     1      38.299 -12.323   0.719  1.00  0.00    -0.365 N 
HETATM   11  H   UNL     1      38.252 -13.272   0.334  1.00  0.00     0.162 HD
BRANCH   9  12
HETATM   12  S   UNL     1      38.795 -10.814   2.887  1.00  0.00    -0.099 SA
HETATM   13  C   UNL     1      40.594 -10.729   3.027  1.00  0.00     0.099 C 
ENDBRANCH   9  12
BRANCH  10  14
HETATM   14  C   UNL     1      37.968 -11.180  -0.124  1.00  0.00     0.186 C 
BRANCH  14  15
HETATM   15  C   UNL     1      39.012 -10.981  -1.165  1.00  0.00     0.070 A 
HETATM   16  O   UNL     1      40.269 -10.642  -0.750  1.00  0.00    -0.325 OA
HETATM   17  C   UNL     1      41.037 -10.523  -1.863  1.00  0.00     0.142 A 
HETATM   18  C   UNL     1      40.294 -10.779  -2.991  1.00  0.00     0.027 A 
HETATM   19  C   UNL     1      38.984 -11.075  -2.543  1.00  0.00     0.036 A 
ENDBRANCH  14  15
ENDBRANCH  10  14
ENDBRANCH   7   9
ENDBRANCH   5   7
BRANCH   1  20
HETATM   20  C   UNL     1      42.361 -16.959   3.124  1.00  0.00    -0.005 A 
HETATM   21  C   UNL     1      42.952 -16.779   4.385  1.00  0.00     0.050 A 
HETATM   22  C   UNL     1      43.960 -17.629   4.855  1.00  0.00     0.069 A 
HETATM   23  C   UNL     1      44.374 -18.698   4.066  1.00  0.00     0.037 A 
HETATM   24  C   UNL     1      43.794 -18.900   2.812  1.00  0.00     0.004 A 
HETATM   25  C   UNL     1      42.799 -18.037   2.343  1.00  0.00     0.014 A 
BRANCH  22  26
HETATM   26  O   UNL     1      44.444 -17.308   6.093  1.00  0.00    -0.356 OA
HETATM   27  C   UNL     1      44.230 -15.973   6.538  1.00  0.00     0.210 C 
ENDBRANCH  22  26
ENDBRANCH   1  20
TORSDOF 7
ENDMDL
MODEL 10
REMARK VINA RESULT:      -6.8      2.279      2.622
REMARK  7 active torsions:
REMARK  status: ('A' for Active; 'I' for Inactive)
REMARK    1  A    between atoms: O_2  and  C_3 
REMARK    2  A    between atoms: C_5  and  C_6 
REMARK    3  A    between atoms: C_10  and  N_11 
REMARK    4  A    between atoms: N_11  and  C_12 
REMARK    5  A    between atoms: C_12  and  S_13 
REMARK    6  A    between atoms: N_15  and  C_17 
REMARK    7  A    between atoms: C_17  and  C_18 
ROOT
HETATM    1  C   UNL     1      41.248 -14.925   4.984  1.00  0.00     0.064 A 
HETATM    2  N   UNL     1      40.330 -15.136   5.984  1.00  0.00    -0.276 N 
HETATM    3  H   UNL     1      40.040 -16.024   6.380  1.00  0.00     0.189 HD
HETATM    4  N   UNL     1      39.762 -14.013   6.467  1.00  0.00    -0.156 NA
HETATM    5  C   UNL     1      40.359 -13.037   5.784  1.00  0.00     0.151 A 
HETATM    6  C   UNL     1      41.296 -13.547   4.863  1.00  0.00     0.084 A 
ENDROOT
BRANCH   5   7
HETATM    7  N   UNL     1      40.113 -11.721   5.909  1.00  0.00    -0.320 N 
HETATM    8  H   UNL     1      39.173 -11.369   5.773  1.00  0.00     0.169 HD
BRANCH   7   9
HETATM    9  C   UNL     1      41.023 -10.684   6.206  1.00  0.00     0.141 C 
HETATM   10  N   UNL     1      41.625 -10.673   7.372  1.00  0.00    -0.365 N 
HETATM   11  H   UNL     1      41.366 -11.452   7.986  1.00  0.00     0.162 HD
BRANCH   9  12
HETATM   12  S   UNL     1      41.274  -9.503   4.978  1.00  0.00    -0.099 SA
HETATM   13  C   UNL     1      39.751  -9.725   4.029  1.00  0.00     0.099 C 
ENDBRANCH   9  12
BRANCH  10  14
HETATM   14  C   UNL     1      42.608  -9.694   7.819  1.00  0.00     0.186 C 
BRANCH  14  15
HETATM   15  C   UNL     1      43.989 -10.202   7.601  1.00  0.00     0.070 A 
HETATM   16  O   UNL     1      44.154 -11.244   6.731  1.00  0.00    -0.325 OA
HETATM   17  C   UNL     1      45.482 -11.522   6.692  1.00  0.00     0.142 A 
HETATM   18  C   UNL     1      46.177 -10.678   7.524  1.00  0.00     0.027 A 
HETATM   19  C   UNL     1      45.215  -9.823   8.114  1.00  0.00     0.036 A 
ENDBRANCH  14  15
ENDBRANCH  10  14
ENDBRANCH   7   9
ENDBRANCH   5   7
BRANCH   1  20
HETATM   20  C   UNL     1      41.964 -15.980   4.260  1.00  0.00    -0.005 A 
HETATM   21  C   UNL     1      42.748 -16.909   4.963  1.00  0.00     0.050 A 
HETATM   22  C   UNL     1      43.485 -17.901   4.305  1.00  0.00     0.069 A 
HETATM   23  C   UNL     1      43.422 -17.989   2.917  1.00  0.00     0.037 A 
HETATM   24  C   UNL     1      42.641 -17.081   2.199  1.00  0.00     0.004 A 
HETATM   25  C   UNL     1      41.921 -16.083   2.863  1.00  0.00     0.014 A 
BRANCH  22  26
HETATM   26  O   UNL     1      44.211 -18.713   5.132  1.00  0.00    -0.356 OA
HETATM   27  C   UNL     1      44.209 -20.103   4.828  1.00  0.00     0.210 C 
ENDBRANCH  22  26
ENDBRANCH   1  20
TORSDOF 7
ENDMDL
