MODEL 1
REMARK VINA RESULT:      -9.0      0.000      0.000
REMARK  6 active torsions:
REMARK  status: ('A' for Active; 'I' for Inactive)
REMARK    1  A    between atoms: O_2  and  C_3 
REMARK    2  A    between atoms: C_5  and  C_6 
REMARK    3  A    between atoms: C_12  and  C_13 
REMARK       I    between atoms: C_13  and  N_14 
REMARK    4  A    between atoms: N_14  and  C_15 
REMARK    5  A    between atoms: C_15  and  C_16 
REMARK    6  A    between atoms: C_23  and  C_24 
ROOT
HETATM    1  C   UNL     1      40.956 -15.728   2.813  1.00  0.00     0.118 C 
HETATM    2  N   UNL     1      41.032 -14.545   3.663  1.00  0.00    -0.365 N 
HETATM    3  C   UNL     1      40.251 -13.471   3.385  1.00  0.00     0.138 A 
HETATM    4  N   UNL     1      39.687 -13.345   2.131  1.00  0.00    -0.240 N 
HETATM    5  N   UNL     1      38.878 -12.285   2.008  1.00  0.00    -0.181 NA
HETATM    6  C   UNL     1      39.033 -11.646   3.170  1.00  0.00     0.160 A 
HETATM    7  C   UNL     1      39.863 -12.342   4.085  1.00  0.00     0.096 A 
HETATM    8  C   UNL     1      39.830 -14.315   1.057  1.00  0.00     0.221 C 
HETATM    9  C   UNL     1      40.993 -15.285   1.347  1.00  0.00     0.066 C 
HETATM   10  H   UNL     1      41.614 -14.624   4.496  1.00  0.00     0.161 HD
ENDROOT
BRANCH   7  11
HETATM   11  C   UNL     1      40.154 -11.900   5.436  1.00  0.00     0.257 C 
HETATM   12  N   UNL     1      41.113 -10.922   5.552  1.00  0.00    -0.352 N 
HETATM   13  H   UNL     1      41.697 -10.749   4.748  1.00  0.00     0.163 HD
HETATM   14  O   UNL     1      39.612 -12.413   6.411  1.00  0.00    -0.267 OA
BRANCH  12  15
HETATM   15  C   UNL     1      41.613 -10.550   6.853  1.00  0.00     0.161 C 
BRANCH  15  16
HETATM   16  C   UNL     1      43.107 -10.706   6.929  1.00  0.00    -0.041 A 
HETATM   17  C   UNL     1      43.805 -10.258   8.060  1.00  0.00     0.009 A 
HETATM   18  C   UNL     1      45.190 -10.406   8.143  1.00  0.00     0.001 A 
HETATM   19  C   UNL     1      45.891 -10.993   7.092  1.00  0.00     0.000 A 
HETATM   20  C   UNL     1      45.211 -11.426   5.955  1.00  0.00     0.001 A 
HETATM   21  C   UNL     1      43.824 -11.282   5.871  1.00  0.00     0.009 A 
ENDBRANCH  15  16
ENDBRANCH  12  15
ENDBRANCH   7  11
BRANCH   1  22
HETATM   22  C   UNL     1      42.057 -16.703   3.176  1.00  0.00    -0.033 A 
HETATM   23  C   UNL     1      42.665 -16.621   4.445  1.00  0.00     0.046 A 
HETATM   24  C   UNL     1      43.678 -17.511   4.814  1.00  0.00     0.068 A 
HETATM   25  C   UNL     1      44.088 -18.490   3.909  1.00  0.00     0.037 A 
HETATM   26  C   UNL     1      43.511 -18.574   2.644  1.00  0.00     0.003 A 
HETATM   27  C   UNL     1      42.506 -17.680   2.276  1.00  0.00     0.009 A 
BRANCH  24  28
HETATM   28  O   UNL     1      44.332 -17.531   6.015  1.00  0.00    -0.356 OA
HETATM   29  C   UNL     1      43.594 -17.126   7.161  1.00  0.00     0.210 C 
ENDBRANCH  24  28
ENDBRANCH   1  22
BRANCH   8  30
HETATM   30  C   UNL     1      40.056 -13.646  -0.284  1.00  0.00     0.409 C 
HETATM   31  F   UNL     1      40.989 -12.671  -0.227  1.00  0.00    -0.169 F 
HETATM   32  F   UNL     1      40.517 -14.568  -1.175  1.00  0.00    -0.169 F 
HETATM   33  F   UNL     1      38.935 -13.134  -0.830  1.00  0.00    -0.169 F 
ENDBRANCH   8  30
TORSDOF 6
ENDMDL
MODEL 2
REMARK VINA RESULT:      -8.8      2.174      3.168
REMARK  6 active torsions:
REMARK  status: ('A' for Active; 'I' for Inactive)
REMARK    1  A    between atoms: O_2  and  C_3 
REMARK    2  A    between atoms: C_5  and  C_6 
REMARK    3  A    between atoms: C_12  and  C_13 
REMARK       I    between atoms: C_13  and  N_14 
REMARK    4  A    between atoms: N_14  and  C_15 
REMARK    5  A    between atoms: C_15  and  C_16 
REMARK    6  A    between atoms: C_23  and  C_24 
ROOT
HETATM    1  C   UNL     1      42.097 -15.633   4.265  1.00  0.00     0.118 C 
HETATM    2  N   UNL     1      43.050 -14.536   4.396  1.00  0.00    -0.365 N 
HETATM    3  C   UNL     1      42.671 -13.278   4.060  1.00  0.00     0.138 A 
HETATM    4  N   UNL     1      41.559 -13.091   3.264  1.00  0.00    -0.240 N 
HETATM    5  N   UNL     1      41.246 -11.803   3.068  1.00  0.00    -0.181 NA
HETATM    6  C   UNL     1      42.259 -11.152   3.644  1.00  0.00     0.160 A 
HETATM    7  C   UNL     1      43.176 -12.011   4.300  1.00  0.00     0.096 A 
HETATM    8  C   UNL     1      40.706 -14.159   2.767  1.00  0.00     0.221 C 
HETATM    9  C   UNL     1      41.407 -15.525   2.901  1.00  0.00     0.066 C 
HETATM   10  H   UNL     1      43.942 -14.763   4.833  1.00  0.00     0.161 HD
ENDROOT
BRANCH   7  11
HETATM   11  C   UNL     1      44.335 -11.564   5.050  1.00  0.00     0.257 C 
HETATM   12  N   UNL     1      44.201 -11.573   6.419  1.00  0.00    -0.352 N 
HETATM   13  H   UNL     1      43.268 -11.662   6.792  1.00  0.00     0.163 HD
HETATM   14  O   UNL     1      45.345 -11.152   4.488  1.00  0.00    -0.267 OA
BRANCH  12  15
HETATM   15  C   UNL     1      45.216 -10.971   7.248  1.00  0.00     0.161 C 
BRANCH  15  16
HETATM   16  C   UNL     1      44.611 -10.306   8.454  1.00  0.00    -0.041 A 
HETATM   17  C   UNL     1      45.377 -10.119   9.613  1.00  0.00     0.009 A 
HETATM   18  C   UNL     1      44.827  -9.495  10.734  1.00  0.00     0.001 A 
HETATM   19  C   UNL     1      43.504  -9.061  10.709  1.00  0.00     0.000 A 
HETATM   20  C   UNL     1      42.727  -9.256   9.568  1.00  0.00     0.001 A 
HETATM   21  C   UNL     1      43.276  -9.878   8.445  1.00  0.00     0.009 A 
ENDBRANCH  15  16
ENDBRANCH  12  15
ENDBRANCH   7  11
BRANCH   1  22
HETATM   22  C   UNL     1      42.794 -16.959   4.485  1.00  0.00    -0.033 A 
HETATM   23  C   UNL     1      43.221 -17.711   3.373  1.00  0.00     0.046 A 
HETATM   24  C   UNL     1      43.876 -18.934   3.542  1.00  0.00     0.068 A 
HETATM   25  C   UNL     1      44.106 -19.411   4.832  1.00  0.00     0.037 A 
HETATM   26  C   UNL     1      43.675 -18.689   5.944  1.00  0.00     0.003 A 
HETATM   27  C   UNL     1      43.016 -17.473   5.772  1.00  0.00     0.009 A 
BRANCH  24  28
HETATM   28  O   UNL     1      44.338 -19.744   2.542  1.00  0.00    -0.356 OA
HETATM   29  C   UNL     1      43.367 -20.421   1.755  1.00  0.00     0.210 C 
ENDBRANCH  24  28
ENDBRANCH   1  22
BRANCH   8  30
HETATM   30  C   UNL     1      40.304 -13.939   1.323  1.00  0.00     0.409 C 
HETATM   31  F   UNL     1      41.348 -13.585   0.542  1.00  0.00    -0.169 F 
HETATM   32  F   UNL     1      39.816 -15.103   0.809  1.00  0.00    -0.169 F 
HETATM   33  F   UNL     1      39.324 -13.027   1.165  1.00  0.00    -0.169 F 
ENDBRANCH   8  30
TORSDOF 6
ENDMDL
MODEL 3
REMARK VINA RESULT:      -8.8      0.917      1.846
REMARK  6 active torsions:
REMARK  status: ('A' for Active; 'I' for Inactive)
REMARK    1  A    between atoms: O_2  and  C_3 
REMARK    2  A    between atoms: C_5  and  C_6 
REMARK    3  A    between atoms: C_12  and  C_13 
REMARK       I    between atoms: C_13  and  N_14 
REMARK    4  A    between atoms: N_14  and  C_15 
REMARK    5  A    between atoms: C_15  and  C_16 
REMARK    6  A    between atoms: C_23  and  C_24 
ROOT
HETATM    1  C   UNL     1      41.174 -15.590   3.280  1.00  0.00     0.118 C 
HETATM    2  N   UNL     1      41.195 -14.346   4.042  1.00  0.00    -0.365 N 
HETATM    3  C   UNL     1      40.360 -13.335   3.693  1.00  0.00     0.138 A 
HETATM    4  N   UNL     1      39.785 -13.328   2.438  1.00  0.00    -0.240 N 
HETATM    5  N   UNL     1      38.924 -12.320   2.246  1.00  0.00    -0.181 NA
HETATM    6  C   UNL     1      39.051 -11.593   3.357  1.00  0.00     0.160 A 
HETATM    7  C   UNL     1      39.918 -12.179   4.314  1.00  0.00     0.096 A 
HETATM    8  C   UNL     1      39.972 -14.364   1.435  1.00  0.00     0.221 C 
HETATM    9  C   UNL     1      41.183 -15.251   1.785  1.00  0.00     0.066 C 
HETATM   10  H   UNL     1      41.783 -14.336   4.874  1.00  0.00     0.161 HD
ENDROOT
BRANCH   7  11
HETATM   11  C   UNL     1      40.192 -11.627   5.628  1.00  0.00     0.257 C 
HETATM   12  N   UNL     1      41.263 -10.768   5.704  1.00  0.00    -0.352 N 
HETATM   13  H   UNL     1      41.906 -10.759   4.927  1.00  0.00     0.163 HD
HETATM   14  O   UNL     1      39.537 -11.956   6.612  1.00  0.00    -0.267 OA
BRANCH  12  15
HETATM   15  C   UNL     1      41.737 -10.317   6.989  1.00  0.00     0.161 C 
BRANCH  15  16
HETATM   16  C   UNL     1      43.224 -10.503   7.119  1.00  0.00    -0.041 A 
HETATM   17  C   UNL     1      43.895 -11.409   6.286  1.00  0.00     0.009 A 
HETATM   18  C   UNL     1      45.275 -11.583   6.393  1.00  0.00     0.001 A 
HETATM   19  C   UNL     1      45.996 -10.861   7.342  1.00  0.00     0.000 A 
HETATM   20  C   UNL     1      45.337  -9.970   8.188  1.00  0.00     0.001 A 
HETATM   21  C   UNL     1      43.956  -9.793   8.080  1.00  0.00     0.009 A 
ENDBRANCH  15  16
ENDBRANCH  12  15
ENDBRANCH   7  11
BRANCH   1  22
HETATM   22  C   UNL     1      42.325 -16.479   3.703  1.00  0.00    -0.033 A 
HETATM   23  C   UNL     1      42.692 -17.571   2.892  1.00  0.00     0.046 A 
HETATM   24  C   UNL     1      43.755 -18.406   3.250  1.00  0.00     0.068 A 
HETATM   25  C   UNL     1      44.455 -18.149   4.429  1.00  0.00     0.037 A 
HETATM   26  C   UNL     1      44.095 -17.084   5.252  1.00  0.00     0.003 A 
HETATM   27  C   UNL     1      43.030 -16.258   4.896  1.00  0.00     0.009 A 
BRANCH  24  28
HETATM   28  O   UNL     1      44.203 -19.486   2.541  1.00  0.00    -0.356 OA
HETATM   29  C   UNL     1      43.224 -20.283   1.888  1.00  0.00     0.210 C 
ENDBRANCH  24  28
ENDBRANCH   1  22
BRANCH   8  30
HETATM   30  C   UNL     1      40.159 -13.783   0.048  1.00  0.00     0.409 C 
HETATM   31  F   UNL     1      41.023 -12.745   0.033  1.00  0.00    -0.169 F 
HETATM   32  F   UNL     1      40.686 -14.735  -0.771  1.00  0.00    -0.169 F 
HETATM   33  F   UNL     1      39.008 -13.390  -0.535  1.00  0.00    -0.169 F 
ENDBRANCH   8  30
TORSDOF 6
ENDMDL
MODEL 4
REMARK VINA RESULT:      -8.6      3.484      6.815
REMARK  6 active torsions:
REMARK  status: ('A' for Active; 'I' for Inactive)
REMARK    1  A    between atoms: O_2  and  C_3 
REMARK    2  A    between atoms: C_5  and  C_6 
REMARK    3  A    between atoms: C_12  and  C_13 
REMARK       I    between atoms: C_13  and  N_14 
REMARK    4  A    between atoms: N_14  and  C_15 
REMARK    5  A    between atoms: C_15  and  C_16 
REMARK    6  A    between atoms: C_23  and  C_24 
ROOT
HETATM    1  C   UNL     1      43.561 -16.477   4.325  1.00  0.00     0.118 C 
HETATM    2  N   UNL     1      42.448 -16.204   3.422  1.00  0.00    -0.365 N 
HETATM    3  C   UNL     1      42.076 -14.921   3.189  1.00  0.00     0.138 A 
HETATM    4  N   UNL     1      42.476 -13.926   4.058  1.00  0.00    -0.240 N 
HETATM    5  N   UNL     1      42.109 -12.696   3.675  1.00  0.00    -0.181 NA
HETATM    6  C   UNL     1      41.345 -12.924   2.606  1.00  0.00     0.160 A 
HETATM    7  C   UNL     1      41.295 -14.291   2.234  1.00  0.00     0.096 A 
HETATM    8  C   UNL     1      43.322 -14.134   5.222  1.00  0.00     0.221 C 
HETATM    9  C   UNL     1      43.388 -15.629   5.590  1.00  0.00     0.066 C 
HETATM   10  H   UNL     1      42.058 -17.007   2.930  1.00  0.00     0.161 HD
ENDROOT
BRANCH   7  11
HETATM   11  C   UNL     1      40.584 -14.808   1.079  1.00  0.00     0.257 C 
HETATM   12  N   UNL     1      40.640 -14.032  -0.055  1.00  0.00    -0.352 N 
HETATM   13  H   UNL     1      40.961 -13.082   0.051  1.00  0.00     0.163 HD
HETATM   14  O   UNL     1      39.929 -15.844   1.139  1.00  0.00    -0.267 OA
BRANCH  12  15
HETATM   15  C   UNL     1      39.815 -14.354  -1.193  1.00  0.00     0.161 C 
BRANCH  15  16
HETATM   16  C   UNL     1      38.835 -13.252  -1.486  1.00  0.00    -0.041 A 
HETATM   17  C   UNL     1      38.874 -12.061  -0.747  1.00  0.00     0.009 A 
HETATM   18  C   UNL     1      37.974 -11.029  -1.018  1.00  0.00     0.001 A 
HETATM   19  C   UNL     1      37.020 -11.183  -2.021  1.00  0.00     0.000 A 
HETATM   20  C   UNL     1      36.960 -12.369  -2.751  1.00  0.00     0.001 A 
HETATM   21  C   UNL     1      37.862 -13.402  -2.484  1.00  0.00     0.009 A 
ENDBRANCH  15  16
ENDBRANCH  12  15
ENDBRANCH   7  11
BRANCH   1  22
HETATM   22  C   UNL     1      43.655 -17.963   4.602  1.00  0.00    -0.033 A 
HETATM   23  C   UNL     1      43.780 -18.863   3.525  1.00  0.00     0.046 A 
HETATM   24  C   UNL     1      43.879 -20.239   3.748  1.00  0.00     0.068 A 
HETATM   25  C   UNL     1      43.852 -20.721   5.056  1.00  0.00     0.037 A 
HETATM   26  C   UNL     1      43.711 -19.847   6.133  1.00  0.00     0.003 A 
HETATM   27  C   UNL     1      43.605 -18.476   5.907  1.00  0.00     0.009 A 
BRANCH  24  28
HETATM   28  O   UNL     1      44.010 -21.201   2.785  1.00  0.00    -0.356 OA
HETATM   29  C   UNL     1      43.756 -20.813   1.441  1.00  0.00     0.210 C 
ENDBRANCH  24  28
ENDBRANCH   1  22
BRANCH   8  30
HETATM   30  C   UNL     1      42.841 -13.342   6.422  1.00  0.00     0.409 C 
HETATM   31  F   UNL     1      43.198 -12.040   6.360  1.00  0.00    -0.169 F 
HETATM   32  F   UNL     1      41.480 -13.367   6.461  1.00  0.00    -0.169 F 
HETATM   33  F   UNL     1      43.254 -13.843   7.603  1.00  0.00    -0.169 F 
ENDBRANCH   8  30
TORSDOF 6
ENDMDL
MODEL 5
REMARK VINA RESULT:      -8.4      3.395      7.734
REMARK  6 active torsions:
REMARK  status: ('A' for Active; 'I' for Inactive)
REMARK    1  A    between atoms: O_2  and  C_3 
REMARK    2  A    between atoms: C_5  and  C_6 
REMARK    3  A    between atoms: C_12  and  C_13 
REMARK       I    between atoms: C_13  and  N_14 
REMARK    4  A    between atoms: N_14  and  C_15 
REMARK    5  A    between atoms: C_15  and  C_16 
REMARK    6  A    between atoms: C_23  and  C_24 
ROOT
HETATM    1  C   UNL     1      43.269 -13.255   6.390  1.00  0.00     0.118 C 
HETATM    2  N   UNL     1      42.874 -12.979   5.013  1.00  0.00    -0.365 N 
HETATM    3  C   UNL     1      42.250 -13.943   4.291  1.00  0.00     0.138 A 
HETATM    4  N   UNL     1      42.323 -15.258   4.703  1.00  0.00    -0.240 N 
HETATM    5  N   UNL     1      41.603 -16.100   3.950  1.00  0.00    -0.181 NA
HETATM    6  C   UNL     1      41.165 -15.324   2.957  1.00  0.00     0.160 A 
HETATM    7  C   UNL     1      41.517 -13.959   3.116  1.00  0.00     0.096 A 
HETATM    8  C   UNL     1      43.003 -15.713   5.905  1.00  0.00     0.221 C 
HETATM    9  C   UNL     1      43.954 -14.624   6.441  1.00  0.00     0.066 C 
HETATM   10  H   UNL     1      43.008 -12.022   4.688  1.00  0.00     0.161 HD
ENDROOT
BRANCH   7  11
HETATM   11  C   UNL     1      41.123 -12.894   2.213  1.00  0.00     0.257 C 
HETATM   12  N   UNL     1      40.006 -13.140   1.450  1.00  0.00    -0.352 N 
HETATM   13  H   UNL     1      39.682 -14.094   1.397  1.00  0.00     0.163 HD
HETATM   14  O   UNL     1      41.785 -11.866   2.104  1.00  0.00    -0.267 OA
BRANCH  12  15
HETATM   15  C   UNL     1      39.642 -12.233   0.388  1.00  0.00     0.161 C 
BRANCH  15  16
HETATM   16  C   UNL     1      39.076 -12.974  -0.792  1.00  0.00    -0.041 A 
HETATM   17  C   UNL     1      37.993 -12.439  -1.504  1.00  0.00     0.009 A 
HETATM   18  C   UNL     1      37.466 -13.116  -2.606  1.00  0.00     0.001 A 
HETATM   19  C   UNL     1      38.009 -14.337  -2.997  1.00  0.00     0.000 A 
HETATM   20  C   UNL     1      39.074 -14.887  -2.287  1.00  0.00     0.001 A 
HETATM   21  C   UNL     1      39.605 -14.210  -1.186  1.00  0.00     0.009 A 
ENDBRANCH  15  16
ENDBRANCH  12  15
ENDBRANCH   7  11
BRANCH   1  22
HETATM   22  C   UNL     1      44.132 -12.128   6.920  1.00  0.00    -0.033 A 
HETATM   23  C   UNL     1      43.643 -11.309   7.958  1.00  0.00     0.046 A 
HETATM   24  C   UNL     1      44.418 -10.268   8.475  1.00  0.00     0.068 A 
HETATM   25  C   UNL     1      45.691 -10.041   7.953  1.00  0.00     0.037 A 
HETATM   26  C   UNL     1      46.184 -10.830   6.915  1.00  0.00     0.003 A 
HETATM   27  C   UNL     1      45.406 -11.863   6.396  1.00  0.00     0.009 A 
BRANCH  24  28
HETATM   28  O   UNL     1      44.051  -9.417   9.481  1.00  0.00    -0.356 OA
HETATM   29  C   UNL     1      44.085  -9.929  10.807  1.00  0.00     0.210 C 
ENDBRANCH  24  28
ENDBRANCH   1  22
BRANCH   8  30
HETATM   30  C   UNL     1      43.785 -16.990   5.667  1.00  0.00     0.409 C 
HETATM   31  F   UNL     1      44.166 -17.131   4.378  1.00  0.00    -0.169 F 
HETATM   32  F   UNL     1      44.928 -16.962   6.406  1.00  0.00    -0.169 F 
HETATM   33  F   UNL     1      43.128 -18.106   6.043  1.00  0.00    -0.169 F 
ENDBRANCH   8  30
TORSDOF 6
ENDMDL
MODEL 6
REMARK VINA RESULT:      -8.3      3.437      6.708
REMARK  6 active torsions:
REMARK  status: ('A' for Active; 'I' for Inactive)
REMARK    1  A    between atoms: O_2  and  C_3 
REMARK    2  A    between atoms: C_5  and  C_6 
REMARK    3  A    between atoms: C_12  and  C_13 
REMARK       I    between atoms: C_13  and  N_14 
REMARK    4  A    between atoms: N_14  and  C_15 
REMARK    5  A    between atoms: C_15  and  C_16 
REMARK    6  A    between atoms: C_23  and  C_24 
ROOT
HETATM    1  C   UNL     1      43.017 -15.895   3.180  1.00  0.00     0.118 C 
HETATM    2  N   UNL     1      42.053 -15.536   2.146  1.00  0.00    -0.365 N 
HETATM    3  C   UNL     1      41.552 -14.276   2.108  1.00  0.00     0.138 A 
HETATM    4  N   UNL     1      41.649 -13.470   3.225  1.00  0.00    -0.240 N 
HETATM    5  N   UNL     1      41.187 -12.227   3.035  1.00  0.00    -0.181 NA
HETATM    6  C   UNL     1      40.663 -12.280   1.809  1.00  0.00     0.160 A 
HETATM    7  C   UNL     1      40.872 -13.525   1.164  1.00  0.00     0.096 A 
HETATM    8  C   UNL     1      42.297 -13.853   4.469  1.00  0.00     0.221 C 
HETATM    9  C   UNL     1      42.506 -15.379   4.530  1.00  0.00     0.066 C 
HETATM   10  H   UNL     1      41.874 -16.240   1.431  1.00  0.00     0.161 HD
ENDROOT
BRANCH   7  11
HETATM   11  C   UNL     1      40.455 -13.833  -0.192  1.00  0.00     0.257 C 
HETATM   12  N   UNL     1      40.886 -12.960  -1.163  1.00  0.00    -0.352 N 
HETATM   13  H   UNL     1      41.250 -12.071  -0.857  1.00  0.00     0.163 HD
HETATM   14  O   UNL     1      39.719 -14.784  -0.437  1.00  0.00    -0.267 OA
BRANCH  12  15
HETATM   15  C   UNL     1      40.373 -13.064  -2.507  1.00  0.00     0.161 C 
BRANCH  15  16
HETATM   16  C   UNL     1      39.256 -12.084  -2.742  1.00  0.00    -0.041 A 
HETATM   17  C   UNL     1      39.542 -10.787  -3.192  1.00  0.00     0.009 A 
HETATM   18  C   UNL     1      38.512  -9.874  -3.421  1.00  0.00     0.001 A 
HETATM   19  C   UNL     1      37.189 -10.245  -3.193  1.00  0.00     0.000 A 
HETATM   20  C   UNL     1      36.894 -11.526  -2.729  1.00  0.00     0.001 A 
HETATM   21  C   UNL     1      37.923 -12.442  -2.502  1.00  0.00     0.009 A 
ENDBRANCH  15  16
ENDBRANCH  12  15
ENDBRANCH   7  11
BRANCH   1  22
HETATM   22  C   UNL     1      43.269 -17.389   3.161  1.00  0.00    -0.033 A 
HETATM   23  C   UNL     1      43.738 -18.028   4.326  1.00  0.00     0.046 A 
HETATM   24  C   UNL     1      43.972 -19.406   4.344  1.00  0.00     0.068 A 
HETATM   25  C   UNL     1      43.736 -20.152   3.190  1.00  0.00     0.037 A 
HETATM   26  C   UNL     1      43.288 -19.534   2.024  1.00  0.00     0.003 A 
HETATM   27  C   UNL     1      43.063 -18.159   2.007  1.00  0.00     0.009 A 
BRANCH  24  28
HETATM   28  O   UNL     1      44.419 -20.131   5.414  1.00  0.00    -0.356 OA
HETATM   29  C   UNL     1      43.556 -20.225   6.540  1.00  0.00     0.210 C 
ENDBRANCH  24  28
ENDBRANCH   1  22
BRANCH   8  30
HETATM   30  C   UNL     1      41.505 -13.406   5.682  1.00  0.00     0.409 C 
HETATM   31  F   UNL     1      40.172 -13.534   5.507  1.00  0.00    -0.169 F 
HETATM   32  F   UNL     1      41.831 -14.192   6.747  1.00  0.00    -0.169 F 
HETATM   33  F   UNL     1      41.768 -12.140   6.064  1.00  0.00    -0.169 F 
ENDBRANCH   8  30
TORSDOF 6
ENDMDL
MODEL 7
REMARK VINA RESULT:      -8.1     16.345     17.538
REMARK  6 active torsions:
REMARK  status: ('A' for Active; 'I' for Inactive)
REMARK    1  A    between atoms: O_2  and  C_3 
REMARK    2  A    between atoms: C_5  and  C_6 
REMARK    3  A    between atoms: C_12  and  C_13 
REMARK       I    between atoms: C_13  and  N_14 
REMARK    4  A    between atoms: N_14  and  C_15 
REMARK    5  A    between atoms: C_15  and  C_16 
REMARK    6  A    between atoms: C_23  and  C_24 
ROOT
HETATM    1  C   UNL     1      44.193 -29.282   0.342  1.00  0.00     0.118 C 
HETATM    2  N   UNL     1      45.549 -29.766   0.575  1.00  0.00    -0.365 N 
HETATM    3  C   UNL     1      46.579 -29.236  -0.131  1.00  0.00     0.138 A 
HETATM    4  N   UNL     1      46.320 -28.540  -1.295  1.00  0.00    -0.240 N 
HETATM    5  N   UNL     1      47.412 -28.002  -1.856  1.00  0.00    -0.181 NA
HETATM    6  C   UNL     1      48.406 -28.476  -1.103  1.00  0.00     0.160 A 
HETATM    7  C   UNL     1      47.957 -29.239   0.004  1.00  0.00     0.096 A 
HETATM    8  C   UNL     1      44.992 -28.285  -1.830  1.00  0.00     0.221 C 
HETATM    9  C   UNL     1      43.950 -29.208  -1.170  1.00  0.00     0.066 C 
HETATM   10  H   UNL     1      45.667 -30.427   1.342  1.00  0.00     0.161 HD
ENDROOT
BRANCH   7  11
HETATM   11  C   UNL     1      48.824 -29.824   1.011  1.00  0.00     0.257 C 
HETATM   12  N   UNL     1      48.823 -29.200   2.236  1.00  0.00    -0.352 N 
HETATM   13  H   UNL     1      48.418 -28.277   2.285  1.00  0.00     0.163 HD
HETATM   14  O   UNL     1      49.549 -30.781   0.757  1.00  0.00    -0.267 OA
BRANCH  12  15
HETATM   15  C   UNL     1      49.785 -29.580   3.241  1.00  0.00     0.161 C 
BRANCH  15  16
HETATM   16  C   UNL     1      49.188 -30.540   4.233  1.00  0.00    -0.041 A 
HETATM   17  C   UNL     1      47.816 -30.493   4.521  1.00  0.00     0.009 A 
HETATM   18  C   UNL     1      47.252 -31.386   5.433  1.00  0.00     0.001 A 
HETATM   19  C   UNL     1      48.056 -32.326   6.074  1.00  0.00     0.000 A 
HETATM   20  C   UNL     1      49.423 -32.372   5.809  1.00  0.00     0.001 A 
HETATM   21  C   UNL     1      49.989 -31.481   4.894  1.00  0.00     0.009 A 
ENDBRANCH  15  16
ENDBRANCH  12  15
ENDBRANCH   7  11
BRANCH   1  22
HETATM   22  C   UNL     1      43.194 -30.156   1.072  1.00  0.00    -0.033 A 
HETATM   23  C   UNL     1      42.628 -29.703   2.280  1.00  0.00     0.046 A 
HETATM   24  C   UNL     1      41.697 -30.481   2.972  1.00  0.00     0.068 A 
HETATM   25  C   UNL     1      41.329 -31.724   2.456  1.00  0.00     0.037 A 
HETATM   26  C   UNL     1      41.892 -32.196   1.272  1.00  0.00     0.003 A 
HETATM   27  C   UNL     1      42.826 -31.420   0.587  1.00  0.00     0.009 A 
BRANCH  24  28
HETATM   28  O   UNL     1      41.080 -30.143   4.144  1.00  0.00    -0.356 OA
HETATM   29  C   UNL     1      40.421 -31.184   4.854  1.00  0.00     0.210 C 
ENDBRANCH  24  28
ENDBRANCH   1  22
BRANCH   8  30
HETATM   30  C   UNL     1      44.942 -28.465  -3.334  1.00  0.00     0.409 C 
HETATM   31  F   UNL     1      45.767 -29.444  -3.766  1.00  0.00    -0.169 F 
HETATM   32  F   UNL     1      43.683 -28.832  -3.702  1.00  0.00    -0.169 F 
HETATM   33  F   UNL     1      45.216 -27.340  -4.025  1.00  0.00    -0.169 F 
ENDBRANCH   8  30
TORSDOF 6
ENDMDL
MODEL 8
REMARK VINA RESULT:      -8.0      4.712      9.256
REMARK  6 active torsions:
REMARK  status: ('A' for Active; 'I' for Inactive)
REMARK    1  A    between atoms: O_2  and  C_3 
REMARK    2  A    between atoms: C_5  and  C_6 
REMARK    3  A    between atoms: C_12  and  C_13 
REMARK       I    between atoms: C_13  and  N_14 
REMARK    4  A    between atoms: N_14  and  C_15 
REMARK    5  A    between atoms: C_15  and  C_16 
REMARK    6  A    between atoms: C_23  and  C_24 
ROOT
HETATM    1  C   UNL     1      41.479  -9.471   7.949  1.00  0.00     0.118 C 
HETATM    2  N   UNL     1      42.156  -9.905   6.733  1.00  0.00    -0.365 N 
HETATM    3  C   UNL     1      43.291 -10.643   6.827  1.00  0.00     0.138 A 
HETATM    4  N   UNL     1      43.995 -10.662   8.015  1.00  0.00    -0.240 N 
HETATM    5  N   UNL     1      45.051 -11.486   8.002  1.00  0.00    -0.181 NA
HETATM    6  C   UNL     1      45.098 -11.903   6.736  1.00  0.00     0.160 A 
HETATM    7  C   UNL     1      44.017 -11.430   5.949  1.00  0.00     0.096 A 
HETATM    8  C   UNL     1      43.593  -9.967   9.227  1.00  0.00     0.221 C 
HETATM    9  C   UNL     1      42.522  -8.903   8.918  1.00  0.00     0.066 C 
HETATM   10  H   UNL     1      41.679  -9.707   5.854  1.00  0.00     0.161 HD
ENDROOT
BRANCH   7  11
HETATM   11  C   UNL     1      43.796 -11.774   4.557  1.00  0.00     0.257 C 
HETATM   12  N   UNL     1      42.871 -12.765   4.326  1.00  0.00    -0.352 N 
HETATM   13  H   UNL     1      42.590 -13.329   5.113  1.00  0.00     0.163 HD
HETATM   14  O   UNL     1      44.439 -11.247   3.654  1.00  0.00    -0.267 OA
BRANCH  12  15
HETATM   15  C   UNL     1      42.716 -13.314   3.001  1.00  0.00     0.161 C 
BRANCH  15  16
HETATM   16  C   UNL     1      42.943 -14.800   2.996  1.00  0.00    -0.041 A 
HETATM   17  C   UNL     1      43.077 -15.488   1.782  1.00  0.00     0.009 A 
HETATM   18  C   UNL     1      43.297 -16.866   1.768  1.00  0.00     0.001 A 
HETATM   19  C   UNL     1      43.373 -17.571   2.967  1.00  0.00     0.000 A 
HETATM   20  C   UNL     1      43.224 -16.901   4.180  1.00  0.00     0.001 A 
HETATM   21  C   UNL     1      43.007 -15.521   4.197  1.00  0.00     0.009 A 
ENDBRANCH  15  16
ENDBRANCH  12  15
ENDBRANCH   7  11
BRANCH   1  22
HETATM   22  C   UNL     1      40.375  -8.491   7.610  1.00  0.00    -0.033 A 
HETATM   23  C   UNL     1      40.043  -8.261   6.260  1.00  0.00     0.046 A 
HETATM   24  C   UNL     1      39.023  -7.370   5.913  1.00  0.00     0.068 A 
HETATM   25  C   UNL     1      38.329  -6.702   6.922  1.00  0.00     0.037 A 
HETATM   26  C   UNL     1      38.656  -6.904   8.262  1.00  0.00     0.003 A 
HETATM   27  C   UNL     1      39.678  -7.788   8.604  1.00  0.00     0.009 A 
BRANCH  24  28
HETATM   28  O   UNL     1      38.612  -7.074   4.643  1.00  0.00    -0.356 OA
HETATM   29  C   UNL     1      37.751  -8.009   4.006  1.00  0.00     0.210 C 
ENDBRANCH  24  28
ENDBRANCH   1  22
BRANCH   8  30
HETATM   30  C   UNL     1      44.770  -9.309   9.920  1.00  0.00     0.409 C 
HETATM   31  F   UNL     1      45.542  -8.599   9.069  1.00  0.00    -0.169 F 
HETATM   32  F   UNL     1      44.308  -8.426  10.849  1.00  0.00    -0.169 F 
HETATM   33  F   UNL     1      45.556 -10.174  10.591  1.00  0.00    -0.169 F 
ENDBRANCH   8  30
TORSDOF 6
ENDMDL
MODEL 9
REMARK VINA RESULT:      -7.9      3.418      6.485
REMARK  6 active torsions:
REMARK  status: ('A' for Active; 'I' for Inactive)
REMARK    1  A    between atoms: O_2  and  C_3 
REMARK    2  A    between atoms: C_5  and  C_6 
REMARK    3  A    between atoms: C_12  and  C_13 
REMARK       I    between atoms: C_13  and  N_14 
REMARK    4  A    between atoms: N_14  and  C_15 
REMARK    5  A    between atoms: C_15  and  C_16 
REMARK    6  A    between atoms: C_23  and  C_24 
ROOT
HETATM    1  C   UNL     1      43.094 -12.799   3.400  1.00  0.00     0.118 C 
HETATM    2  N   UNL     1      41.911 -12.166   2.827  1.00  0.00    -0.365 N 
HETATM    3  C   UNL     1      41.601 -10.892   3.175  1.00  0.00     0.138 A 
HETATM    4  N   UNL     1      42.156 -10.342   4.313  1.00  0.00    -0.240 N 
HETATM    5  N   UNL     1      41.831  -9.056   4.504  1.00  0.00    -0.181 NA
HETATM    6  C   UNL     1      40.944  -8.818   3.536  1.00  0.00     0.160 A 
HETATM    7  C   UNL     1      40.766  -9.916   2.656  1.00  0.00     0.096 A 
HETATM    8  C   UNL     1      43.105 -11.018   5.182  1.00  0.00     0.221 C 
HETATM    9  C   UNL     1      43.112 -12.535   4.909  1.00  0.00     0.066 C 
HETATM   10  H   UNL     1      41.420 -12.693   2.106  1.00  0.00     0.161 HD
ENDROOT
BRANCH   7  11
HETATM   11  C   UNL     1      39.904  -9.908   1.489  1.00  0.00     0.257 C 
HETATM   12  N   UNL     1      38.961 -10.908   1.436  1.00  0.00    -0.352 N 
HETATM   13  H   UNL     1      39.078 -11.688   2.065  1.00  0.00     0.163 HD
HETATM   14  O   UNL     1      40.051  -9.090   0.586  1.00  0.00    -0.267 OA
BRANCH  12  15
HETATM   15  C   UNL     1      38.186 -11.107   0.237  1.00  0.00     0.161 C 
BRANCH  15  16
HETATM   16  C   UNL     1      38.583 -12.376  -0.467  1.00  0.00    -0.041 A 
HETATM   17  C   UNL     1      37.981 -12.723  -1.685  1.00  0.00     0.009 A 
HETATM   18  C   UNL     1      38.350 -13.894  -2.349  1.00  0.00     0.001 A 
HETATM   19  C   UNL     1      39.314 -14.734  -1.796  1.00  0.00     0.000 A 
HETATM   20  C   UNL     1      39.907 -14.407  -0.577  1.00  0.00     0.001 A 
HETATM   21  C   UNL     1      39.542 -13.235   0.087  1.00  0.00     0.009 A 
ENDBRANCH  15  16
ENDBRANCH  12  15
ENDBRANCH   7  11
BRANCH   1  22
HETATM   22  C   UNL     1      43.120 -14.271   3.044  1.00  0.00    -0.033 A 
HETATM   23  C   UNL     1      43.134 -15.233   4.074  1.00  0.00     0.046 A 
HETATM   24  C   UNL     1      43.149 -16.599   3.780  1.00  0.00     0.068 A 
HETATM   25  C   UNL     1      43.152 -17.009   2.447  1.00  0.00     0.037 A 
HETATM   26  C   UNL     1      43.156 -16.072   1.415  1.00  0.00     0.003 A 
HETATM   27  C   UNL     1      43.148 -14.710   1.712  1.00  0.00     0.009 A 
BRANCH  24  28
HETATM   28  O   UNL     1      43.156 -17.618   4.692  1.00  0.00    -0.356 OA
HETATM   29  C   UNL     1      44.140 -18.631   4.524  1.00  0.00     0.210 C 
ENDBRANCH  24  28
ENDBRANCH   1  22
BRANCH   8  30
HETATM   30  C   UNL     1      42.808 -10.772   6.648  1.00  0.00     0.409 C 
HETATM   31  F   UNL     1      41.483 -10.762   6.913  1.00  0.00    -0.169 F 
HETATM   32  F   UNL     1      43.341 -11.782   7.391  1.00  0.00    -0.169 F 
HETATM   33  F   UNL     1      43.349  -9.635   7.128  1.00  0.00    -0.169 F 
ENDBRANCH   8  30
TORSDOF 6
ENDMDL
MODEL 10
REMARK VINA RESULT:      -7.8      1.373      2.061
REMARK  6 active torsions:
REMARK  status: ('A' for Active; 'I' for Inactive)
REMARK    1  A    between atoms: O_2  and  C_3 
REMARK    2  A    between atoms: C_5  and  C_6 
REMARK    3  A    between atoms: C_12  and  C_13 
REMARK       I    between atoms: C_13  and  N_14 
REMARK    4  A    between atoms: N_14  and  C_15 
REMARK    5  A    between atoms: C_15  and  C_16 
REMARK    6  A    between atoms: C_23  and  C_24 
ROOT
HETATM    1  C   UNL     1      40.948 -15.749   2.884  1.00  0.00     0.118 C 
HETATM    2  N   UNL     1      41.035 -14.544   3.701  1.00  0.00    -0.365 N 
HETATM    3  C   UNL     1      40.250 -13.478   3.405  1.00  0.00     0.138 A 
HETATM    4  N   UNL     1      39.670 -13.385   2.156  1.00  0.00    -0.240 N 
HETATM    5  N   UNL     1      38.859 -12.328   2.015  1.00  0.00    -0.181 NA
HETATM    6  C   UNL     1      39.029 -11.659   3.157  1.00  0.00     0.160 A 
HETATM    7  C   UNL     1      39.870 -12.330   4.080  1.00  0.00     0.096 A 
HETATM    8  C   UNL     1      39.800 -14.382   1.105  1.00  0.00     0.221 C 
HETATM    9  C   UNL     1      40.966 -15.345   1.406  1.00  0.00     0.066 C 
HETATM   10  H   UNL     1      41.627 -14.601   4.529  1.00  0.00     0.161 HD
ENDROOT
BRANCH   7  11
HETATM   11  C   UNL     1      40.178 -11.853   5.415  1.00  0.00     0.257 C 
HETATM   12  N   UNL     1      41.221 -10.961   5.506  1.00  0.00    -0.352 N 
HETATM   13  H   UNL     1      41.831 -10.879   4.706  1.00  0.00     0.163 HD
HETATM   14  O   UNL     1      39.577 -12.268   6.401  1.00  0.00    -0.267 OA
BRANCH  12  15
HETATM   15  C   UNL     1      41.731 -10.575   6.798  1.00  0.00     0.161 C 
BRANCH  15  16
HETATM   16  C   UNL     1      41.807  -9.078   6.930  1.00  0.00    -0.041 A 
HETATM   17  C   UNL     1      42.431  -8.501   8.045  1.00  0.00     0.009 A 
HETATM   18  C   UNL     1      42.513  -7.113   8.172  1.00  0.00     0.001 A 
HETATM   19  C   UNL     1      41.962  -6.291   7.192  1.00  0.00     0.000 A 
HETATM   20  C   UNL     1      41.324  -6.854   6.087  1.00  0.00     0.001 A 
HETATM   21  C   UNL     1      41.244  -8.242   5.957  1.00  0.00     0.009 A 
ENDBRANCH  15  16
ENDBRANCH  12  15
ENDBRANCH   7  11
BRANCH   1  22
HETATM   22  C   UNL     1      42.054 -16.714   3.259  1.00  0.00    -0.033 A 
HETATM   23  C   UNL     1      42.510 -16.762   4.591  1.00  0.00     0.046 A 
HETATM   24  C   UNL     1      43.523 -17.648   4.971  1.00  0.00     0.068 A 
HETATM   25  C   UNL     1      44.086 -18.491   4.013  1.00  0.00     0.037 A 
HETATM   26  C   UNL     1      43.659 -18.445   2.687  1.00  0.00     0.003 A 
HETATM   27  C   UNL     1      42.653 -17.555   2.309  1.00  0.00     0.009 A 
BRANCH  24  28
HETATM   28  O   UNL     1      44.039 -17.786   6.230  1.00  0.00    -0.356 OA
HETATM   29  C   UNL     1      43.672 -16.806   7.192  1.00  0.00     0.210 C 
ENDBRANCH  24  28
ENDBRANCH   1  22
BRANCH   8  30
HETATM   30  C   UNL     1      40.008 -13.750  -0.256  1.00  0.00     0.409 C 
HETATM   31  F   UNL     1      38.882 -13.181  -0.741  1.00  0.00    -0.169 F 
HETATM   32  F   UNL     1      40.930 -12.752  -0.152  1.00  0.00    -0.169 F 
HETATM   33  F   UNL     1      40.490 -14.603  -1.182  1.00  0.00    -0.169 F 
ENDBRANCH   8  30
TORSDOF 6
ENDMDL
