MODEL 1
REMARK VINA RESULT:      -8.2      0.000      0.000
REMARK  7 active torsions:
REMARK  status: ('A' for Active; 'I' for Inactive)
REMARK    1  A    between atoms: C_3  and  C_4 
REMARK    2  A    between atoms: C_4  and  N_5 
REMARK    3  A    between atoms: C_4  and  C_9 
REMARK       I    between atoms: N_5  and  C_6 
REMARK       I    between atoms: C_6  and  N_7 
REMARK    4  A    between atoms: C_9  and  C_10 
REMARK       I    between atoms: C_10  and  N_11 
REMARK    5  A    between atoms: N_11  and  C_12 
REMARK    6  A    between atoms: C_12  and  C_13 
REMARK    7  A    between atoms: C_13  and  N_14 
ROOT
HETATM    1  C   UNL     1      43.272 -16.016   2.005  1.00  0.00     0.132 C 
ENDROOT
BRANCH   1   2
HETATM    2  C   UNL     1      43.126 -16.585   3.429  1.00  0.00     0.128 C 
BRANCH   2   3
HETATM    3  C   UNL     1      43.427 -18.083   3.454  1.00  0.00    -0.029 A 
HETATM    4  C   UNL     1      43.810 -18.749   4.640  1.00  0.00    -0.054 A 
HETATM    5  C   UNL     1      43.955 -18.033   5.957  1.00  0.00     0.049 C 
HETATM    6  C   UNL     1      44.074 -20.129   4.601  1.00  0.00     0.007 A 
HETATM    7  C   UNL     1      43.949 -20.852   3.417  1.00  0.00     0.001 A 
HETATM    8  C   UNL     1      43.550 -20.210   2.252  1.00  0.00     0.001 A 
HETATM    9  C   UNL     1      43.287 -18.840   2.271  1.00  0.00     0.010 A 
ENDBRANCH   2   3
BRANCH   2  10
HETATM   10  N   UNL     1      41.785 -16.373   3.968  1.00  0.00    -0.334 N 
HETATM   11  C   UNL     1      41.505 -15.540   5.003  1.00  0.00     0.314 C 
HETATM   12  N   UNL     1      40.196 -15.560   5.351  1.00  0.00    -0.352 N 
HETATM   13  O   UNL     1      42.304 -14.792   5.553  1.00  0.00    -0.248 OA
HETATM   14  H   UNL     1      39.663 -16.408   5.216  1.00  0.00     0.160 HD
HETATM   15  H   UNL     1      39.950 -15.033   6.179  1.00  0.00     0.160 HD
HETATM   16  H   UNL     1      41.052 -16.992   3.648  1.00  0.00     0.165 HD
ENDBRANCH   2  10
ENDBRANCH   1   2
BRANCH   1  17
HETATM   17  C   UNL     1      42.651 -14.644   1.895  1.00  0.00     0.219 C 
HETATM   18  N   UNL     1      43.301 -13.648   2.583  1.00  0.00    -0.359 N 
HETATM   19  H   UNL     1      44.115 -13.896   3.138  1.00  0.00     0.162 HD
HETATM   20  O   UNL     1      41.638 -14.411   1.237  1.00  0.00    -0.274 OA
BRANCH  18  21
HETATM   21  C   UNL     1      42.821 -12.276   2.647  1.00  0.00     0.150 C 
BRANCH  21  22
HETATM   22  C   UNL     1      41.745 -12.010   3.725  1.00  0.00     0.254 C 
BRANCH  22  23
HETATM   23  N   UNL     1      42.320 -11.618   5.061  1.00  0.00    -0.065 N 
HETATM   24  H   UNL     1      42.019 -12.356   5.732  1.00  0.00     0.280 HD
HETATM   25  C   UNL     1      43.834 -11.648   5.125  1.00  0.00     0.274 C 
HETATM   26  C   UNL     1      44.355 -11.097   6.411  1.00  0.00    -0.019 A 
HETATM   27  C   UNL     1      43.558 -10.384   7.285  1.00  0.00    -0.008 A 
HETATM   28  C   UNL     1      45.691 -11.204   6.909  1.00  0.00     0.017 A 
HETATM   29  S   UNL     1      44.388  -9.855   8.667  1.00  0.00    -0.106 SA
HETATM   30  C   UNL     1      42.102 -10.117   7.072  1.00  0.00     0.074 C 
HETATM   31  C   UNL     1      45.845 -10.573   8.126  1.00  0.00     0.051 A 
HETATM   32  C   UNL     1      41.748 -10.313   5.589  1.00  0.00     0.240 C 
ENDBRANCH  22  23
ENDBRANCH  21  22
ENDBRANCH  18  21
ENDBRANCH   1  17
TORSDOF 7
ENDMDL
MODEL 2
REMARK VINA RESULT:      -8.2      3.119      3.458
REMARK  7 active torsions:
REMARK  status: ('A' for Active; 'I' for Inactive)
REMARK    1  A    between atoms: C_3  and  C_4 
REMARK    2  A    between atoms: C_4  and  N_5 
REMARK    3  A    between atoms: C_4  and  C_9 
REMARK       I    between atoms: N_5  and  C_6 
REMARK       I    between atoms: C_6  and  N_7 
REMARK    4  A    between atoms: C_9  and  C_10 
REMARK       I    between atoms: C_10  and  N_11 
REMARK    5  A    between atoms: N_11  and  C_12 
REMARK    6  A    between atoms: C_12  and  C_13 
REMARK    7  A    between atoms: C_13  and  N_14 
ROOT
HETATM    1  C   UNL     1      43.199 -16.112   1.813  1.00  0.00     0.132 C 
ENDROOT
BRANCH   1   2
HETATM    2  C   UNL     1      43.023 -16.680   3.234  1.00  0.00     0.128 C 
BRANCH   2   3
HETATM    3  C   UNL     1      43.359 -18.170   3.274  1.00  0.00    -0.029 A 
HETATM    4  C   UNL     1      43.860 -18.793   4.439  1.00  0.00    -0.054 A 
HETATM    5  C   UNL     1      44.105 -18.035   5.717  1.00  0.00     0.049 C 
HETATM    6  C   UNL     1      44.151 -20.168   4.415  1.00  0.00     0.007 A 
HETATM    7  C   UNL     1      43.938 -20.928   3.267  1.00  0.00     0.001 A 
HETATM    8  C   UNL     1      43.425 -20.329   2.125  1.00  0.00     0.001 A 
HETATM    9  C   UNL     1      43.133 -18.965   2.129  1.00  0.00     0.010 A 
ENDBRANCH   2   3
BRANCH   2  10
HETATM   10  N   UNL     1      41.661 -16.499   3.730  1.00  0.00    -0.334 N 
HETATM   11  C   UNL     1      41.346 -15.794   4.847  1.00  0.00     0.314 C 
HETATM   12  N   UNL     1      40.021 -15.820   5.126  1.00  0.00    -0.352 N 
HETATM   13  O   UNL     1      42.132 -15.143   5.524  1.00  0.00    -0.248 OA
HETATM   14  H   UNL     1      39.477 -16.630   4.860  1.00  0.00     0.160 HD
HETATM   15  H   UNL     1      39.745 -15.393   6.001  1.00  0.00     0.160 HD
HETATM   16  H   UNL     1      40.932 -17.052   3.299  1.00  0.00     0.165 HD
ENDBRANCH   2  10
ENDBRANCH   1   2
BRANCH   1  17
HETATM   17  C   UNL     1      42.676 -14.699   1.717  1.00  0.00     0.219 C 
HETATM   18  N   UNL     1      41.741 -14.483   0.734  1.00  0.00    -0.359 N 
HETATM   19  H   UNL     1      41.495 -15.256   0.124  1.00  0.00     0.162 HD
HETATM   20  O   UNL     1      43.043 -13.791   2.462  1.00  0.00    -0.274 OA
BRANCH  18  21
HETATM   21  C   UNL     1      41.167 -13.176   0.449  1.00  0.00     0.150 C 
BRANCH  21  22
HETATM   22  C   UNL     1      39.633 -13.089   0.609  1.00  0.00     0.254 C 
BRANCH  22  23
HETATM   23  N   UNL     1      39.201 -12.294   1.814  1.00  0.00    -0.065 N 
HETATM   24  H   UNL     1      38.164 -12.383   1.861  1.00  0.00     0.280 HD
HETATM   25  C   UNL     1      39.686 -12.849   3.138  1.00  0.00     0.274 C 
HETATM   26  C   UNL     1      39.371 -11.941   4.280  1.00  0.00    -0.019 A 
HETATM   27  C   UNL     1      38.961 -10.635   4.092  1.00  0.00    -0.008 A 
HETATM   28  C   UNL     1      39.452 -12.257   5.672  1.00  0.00     0.017 A 
HETATM   29  S   UNL     1      38.679  -9.808   5.547  1.00  0.00    -0.106 SA
HETATM   30  C   UNL     1      38.750 -10.001   2.755  1.00  0.00     0.074 C 
HETATM   31  C   UNL     1      39.102 -11.187   6.470  1.00  0.00     0.051 A 
HETATM   32  C   UNL     1      39.488 -10.808   1.674  1.00  0.00     0.240 C 
ENDBRANCH  22  23
ENDBRANCH  21  22
ENDBRANCH  18  21
ENDBRANCH   1  17
TORSDOF 7
ENDMDL
MODEL 3
REMARK VINA RESULT:      -8.1      4.116      5.861
REMARK  7 active torsions:
REMARK  status: ('A' for Active; 'I' for Inactive)
REMARK    1  A    between atoms: C_3  and  C_4 
REMARK    2  A    between atoms: C_4  and  N_5 
REMARK    3  A    between atoms: C_4  and  C_9 
REMARK       I    between atoms: N_5  and  C_6 
REMARK       I    between atoms: C_6  and  N_7 
REMARK    4  A    between atoms: C_9  and  C_10 
REMARK       I    between atoms: C_10  and  N_11 
REMARK    5  A    between atoms: N_11  and  C_12 
REMARK    6  A    between atoms: C_12  and  C_13 
REMARK    7  A    between atoms: C_13  and  N_14 
ROOT
HETATM    1  C   UNL     1      43.267 -15.584   1.779  1.00  0.00     0.132 C 
ENDROOT
BRANCH   1   2
HETATM    2  C   UNL     1      43.103 -16.133   3.208  1.00  0.00     0.128 C 
BRANCH   2   3
HETATM    3  C   UNL     1      43.370 -17.637   3.252  1.00  0.00    -0.029 A 
HETATM    4  C   UNL     1      43.960 -18.260   4.375  1.00  0.00    -0.054 A 
HETATM    5  C   UNL     1      44.373 -17.489   5.601  1.00  0.00     0.049 C 
HETATM    6  C   UNL     1      44.182 -19.648   4.356  1.00  0.00     0.007 A 
HETATM    7  C   UNL     1      43.814 -20.421   3.256  1.00  0.00     0.001 A 
HETATM    8  C   UNL     1      43.212 -19.820   2.158  1.00  0.00     0.001 A 
HETATM    9  C   UNL     1      42.988 -18.443   2.158  1.00  0.00     0.010 A 
ENDBRANCH   2   3
BRANCH   2  10
HETATM   10  N   UNL     1      41.765 -15.886   3.740  1.00  0.00    -0.334 N 
HETATM   11  C   UNL     1      41.517 -15.193   4.881  1.00  0.00     0.314 C 
HETATM   12  N   UNL     1      40.199 -15.148   5.189  1.00  0.00    -0.352 N 
HETATM   13  O   UNL     1      42.354 -14.609   5.557  1.00  0.00    -0.248 OA
HETATM   14  H   UNL     1      39.601 -15.917   4.915  1.00  0.00     0.160 HD
HETATM   15  H   UNL     1      39.967 -14.730   6.081  1.00  0.00     0.160 HD
HETATM   16  H   UNL     1      40.996 -16.383   3.312  1.00  0.00     0.165 HD
ENDBRANCH   2  10
ENDBRANCH   1   2
BRANCH   1  17
HETATM   17  C   UNL     1      42.202 -14.563   1.457  1.00  0.00     0.219 C 
HETATM   18  N   UNL     1      41.260 -14.964   0.541  1.00  0.00    -0.359 N 
HETATM   19  H   UNL     1      41.357 -15.883   0.119  1.00  0.00     0.162 HD
HETATM   20  O   UNL     1      42.159 -13.447   1.973  1.00  0.00    -0.274 OA
BRANCH  18  21
HETATM   21  C   UNL     1      40.193 -14.099   0.060  1.00  0.00     0.150 C 
BRANCH  21  22
HETATM   22  C   UNL     1      40.296 -13.703  -1.430  1.00  0.00     0.254 C 
BRANCH  22  23
HETATM   23  N   UNL     1      40.873 -12.328  -1.647  1.00  0.00    -0.065 N 
HETATM   24  H   UNL     1      41.900 -12.463  -1.766  1.00  0.00     0.280 HD
HETATM   25  C   UNL     1      40.430 -11.658  -2.931  1.00  0.00     0.274 C 
HETATM   26  C   UNL     1      40.897 -10.243  -3.019  1.00  0.00    -0.019 A 
HETATM   27  C   UNL     1      41.405  -9.565  -1.928  1.00  0.00    -0.008 A 
HETATM   28  C   UNL     1      40.881  -9.407  -4.179  1.00  0.00     0.017 A 
HETATM   29  S   UNL     1      41.853  -7.967  -2.283  1.00  0.00    -0.106 SA
HETATM   30  C   UNL     1      41.581 -10.164  -0.569  1.00  0.00     0.074 C 
HETATM   31  C   UNL     1      41.374  -8.145  -3.917  1.00  0.00     0.051 A 
HETATM   32  C   UNL     1      40.707 -11.422  -0.438  1.00  0.00     0.240 C 
ENDBRANCH  22  23
ENDBRANCH  21  22
ENDBRANCH  18  21
ENDBRANCH   1  17
TORSDOF 7
ENDMDL
MODEL 4
REMARK VINA RESULT:      -8.0      1.711      2.254
REMARK  7 active torsions:
REMARK  status: ('A' for Active; 'I' for Inactive)
REMARK    1  A    between atoms: C_3  and  C_4 
REMARK    2  A    between atoms: C_4  and  N_5 
REMARK    3  A    between atoms: C_4  and  C_9 
REMARK       I    between atoms: N_5  and  C_6 
REMARK       I    between atoms: C_6  and  N_7 
REMARK    4  A    between atoms: C_9  and  C_10 
REMARK       I    between atoms: C_10  and  N_11 
REMARK    5  A    between atoms: N_11  and  C_12 
REMARK    6  A    between atoms: C_12  and  C_13 
REMARK    7  A    between atoms: C_13  and  N_14 
ROOT
HETATM    1  C   UNL     1      43.222 -14.438   2.371  1.00  0.00     0.132 C 
ENDROOT
BRANCH   1   2
HETATM    2  C   UNL     1      42.208 -15.528   2.765  1.00  0.00     0.128 C 
BRANCH   2   3
HETATM    3  C   UNL     1      42.920 -16.798   3.227  1.00  0.00    -0.029 A 
HETATM    4  C   UNL     1      43.375 -16.960   4.555  1.00  0.00    -0.054 A 
HETATM    5  C   UNL     1      43.198 -15.895   5.604  1.00  0.00     0.049 C 
HETATM    6  C   UNL     1      44.025 -18.152   4.920  1.00  0.00     0.007 A 
HETATM    7  C   UNL     1      44.213 -19.181   4.000  1.00  0.00     0.001 A 
HETATM    8  C   UNL     1      43.749 -19.039   2.699  1.00  0.00     0.001 A 
HETATM    9  C   UNL     1      43.104 -17.862   2.317  1.00  0.00     0.010 A 
ENDBRANCH   2   3
BRANCH   2  10
HETATM   10  N   UNL     1      41.319 -15.874   1.658  1.00  0.00    -0.334 N 
HETATM   11  C   UNL     1      40.142 -15.245   1.403  1.00  0.00     0.314 C 
HETATM   12  N   UNL     1      39.477 -15.786   0.355  1.00  0.00    -0.352 N 
HETATM   13  O   UNL     1      39.719 -14.259   1.993  1.00  0.00    -0.248 OA
HETATM   14  H   UNL     1      39.586 -16.771   0.157  1.00  0.00     0.160 HD
HETATM   15  H   UNL     1      38.549 -15.420   0.184  1.00  0.00     0.160 HD
HETATM   16  H   UNL     1      41.523 -16.721   1.146  1.00  0.00     0.165 HD
ENDBRANCH   2  10
ENDBRANCH   1   2
BRANCH   1  17
HETATM   17  C   UNL     1      42.905 -13.124   3.044  1.00  0.00     0.219 C 
HETATM   18  N   UNL     1      41.743 -13.104   3.778  1.00  0.00    -0.359 N 
HETATM   19  H   UNL     1      41.166 -13.940   3.791  1.00  0.00     0.162 HD
HETATM   20  O   UNL     1      43.624 -12.130   2.959  1.00  0.00    -0.274 OA
BRANCH  18  21
HETATM   21  C   UNL     1      41.240 -11.914   4.448  1.00  0.00     0.150 C 
BRANCH  21  22
HETATM   22  C   UNL     1      40.994 -12.074   5.965  1.00  0.00     0.254 C 
BRANCH  22  23
HETATM   23  N   UNL     1      41.991 -11.330   6.815  1.00  0.00    -0.065 N 
HETATM   24  H   UNL     1      41.934 -11.757   7.764  1.00  0.00     0.280 HD
HETATM   25  C   UNL     1      43.435 -11.524   6.401  1.00  0.00     0.274 C 
HETATM   26  C   UNL     1      44.365 -10.643   7.168  1.00  0.00    -0.019 A 
HETATM   27  C   UNL     1      43.915  -9.585   7.933  1.00  0.00    -0.008 A 
HETATM   28  C   UNL     1      45.791 -10.741   7.219  1.00  0.00     0.017 A 
HETATM   29  S   UNL     1      45.168  -8.730   8.694  1.00  0.00    -0.106 SA
HETATM   30  C   UNL     1      42.474  -9.226   8.113  1.00  0.00     0.074 C 
HETATM   31  C   UNL     1      46.351  -9.763   8.013  1.00  0.00     0.051 A 
HETATM   32  C   UNL     1      41.636  -9.863   6.993  1.00  0.00     0.240 C 
ENDBRANCH  22  23
ENDBRANCH  21  22
ENDBRANCH  18  21
ENDBRANCH   1  17
TORSDOF 7
ENDMDL
MODEL 5
REMARK VINA RESULT:      -8.0      1.617      2.209
REMARK  7 active torsions:
REMARK  status: ('A' for Active; 'I' for Inactive)
REMARK    1  A    between atoms: C_3  and  C_4 
REMARK    2  A    between atoms: C_4  and  N_5 
REMARK    3  A    between atoms: C_4  and  C_9 
REMARK       I    between atoms: N_5  and  C_6 
REMARK       I    between atoms: C_6  and  N_7 
REMARK    4  A    between atoms: C_9  and  C_10 
REMARK       I    between atoms: C_10  and  N_11 
REMARK    5  A    between atoms: N_11  and  C_12 
REMARK    6  A    between atoms: C_12  and  C_13 
REMARK    7  A    between atoms: C_13  and  N_14 
ROOT
HETATM    1  C   UNL     1      41.401 -16.249   4.563  1.00  0.00     0.132 C 
ENDROOT
BRANCH   1   2
HETATM    2  C   UNL     1      42.816 -16.551   5.090  1.00  0.00     0.128 C 
BRANCH   2   3
HETATM    3  C   UNL     1      43.306 -17.912   4.597  1.00  0.00    -0.029 A 
HETATM    4  C   UNL     1      43.503 -18.185   3.225  1.00  0.00    -0.054 A 
HETATM    5  C   UNL     1      43.241 -17.160   2.153  1.00  0.00     0.049 C 
HETATM    6  C   UNL     1      43.955 -19.457   2.833  1.00  0.00     0.007 A 
HETATM    7  C   UNL     1      44.225 -20.447   3.775  1.00  0.00     0.001 A 
HETATM    8  C   UNL     1      44.055 -20.180   5.127  1.00  0.00     0.001 A 
HETATM    9  C   UNL     1      43.605 -18.924   5.535  1.00  0.00     0.010 A 
ENDBRANCH   2   3
BRANCH   2  10
HETATM   10  N   UNL     1      42.871 -16.541   6.550  1.00  0.00    -0.334 N 
HETATM   11  C   UNL     1      43.193 -15.450   7.291  1.00  0.00     0.314 C 
HETATM   12  N   UNL     1      43.226 -15.712   8.620  1.00  0.00    -0.352 N 
HETATM   13  O   UNL     1      43.383 -14.322   6.854  1.00  0.00    -0.248 OA
HETATM   14  H   UNL     1      43.480 -16.639   8.934  1.00  0.00     0.160 HD
HETATM   15  H   UNL     1      43.557 -14.960   9.210  1.00  0.00     0.160 HD
HETATM   16  H   UNL     1      42.808 -17.433   7.023  1.00  0.00     0.165 HD
ENDBRANCH   2  10
ENDBRANCH   1   2
BRANCH   1  17
HETATM   17  C   UNL     1      41.294 -14.829   4.060  1.00  0.00     0.219 C 
HETATM   18  N   UNL     1      42.490 -14.190   3.843  1.00  0.00    -0.359 N 
HETATM   19  H   UNL     1      43.349 -14.685   4.065  1.00  0.00     0.162 HD
HETATM   20  O   UNL     1      40.220 -14.268   3.846  1.00  0.00    -0.274 OA
BRANCH  18  21
HETATM   21  C   UNL     1      42.590 -12.802   3.417  1.00  0.00     0.150 C 
BRANCH  21  22
HETATM   22  C   UNL     1      43.830 -12.045   3.945  1.00  0.00     0.254 C 
BRANCH  22  23
HETATM   23  N   UNL     1      43.698 -11.608   5.381  1.00  0.00    -0.065 N 
HETATM   24  H   UNL     1      43.324 -12.431   5.899  1.00  0.00     0.280 HD
HETATM   25  C   UNL     1      45.015 -11.301   6.065  1.00  0.00     0.274 C 
HETATM   26  C   UNL     1      44.821 -10.720   7.427  1.00  0.00    -0.019 A 
HETATM   27  C   UNL     1      43.596 -10.253   7.861  1.00  0.00    -0.008 A 
HETATM   28  C   UNL     1      45.819 -10.552   8.436  1.00  0.00     0.017 A 
HETATM   29  S   UNL     1      43.640  -9.629   9.439  1.00  0.00    -0.106 SA
HETATM   30  C   UNL     1      42.337 -10.308   7.055  1.00  0.00     0.074 C 
HETATM   31  C   UNL     1      45.311  -9.971   9.579  1.00  0.00     0.051 A 
HETATM   32  C   UNL     1      42.680 -10.496   5.568  1.00  0.00     0.240 C 
ENDBRANCH  22  23
ENDBRANCH  21  22
ENDBRANCH  18  21
ENDBRANCH   1  17
TORSDOF 7
ENDMDL
MODEL 6
REMARK VINA RESULT:      -7.9      4.933      6.711
REMARK  7 active torsions:
REMARK  status: ('A' for Active; 'I' for Inactive)
REMARK    1  A    between atoms: C_3  and  C_4 
REMARK    2  A    between atoms: C_4  and  N_5 
REMARK    3  A    between atoms: C_4  and  C_9 
REMARK       I    between atoms: N_5  and  C_6 
REMARK       I    between atoms: C_6  and  N_7 
REMARK    4  A    between atoms: C_9  and  C_10 
REMARK       I    between atoms: C_10  and  N_11 
REMARK    5  A    between atoms: N_11  and  C_12 
REMARK    6  A    between atoms: C_12  and  C_13 
REMARK    7  A    between atoms: C_13  and  N_14 
ROOT
HETATM    1  C   UNL     1      43.345 -15.787   1.853  1.00  0.00     0.132 C 
ENDROOT
BRANCH   1   2
HETATM    2  C   UNL     1      43.120 -16.359   3.265  1.00  0.00     0.128 C 
BRANCH   2   3
HETATM    3  C   UNL     1      43.377 -17.865   3.294  1.00  0.00    -0.029 A 
HETATM    4  C   UNL     1      43.908 -18.511   4.433  1.00  0.00    -0.054 A 
HETATM    5  C   UNL     1      44.263 -17.766   5.692  1.00  0.00     0.049 C 
HETATM    6  C   UNL     1      44.124 -19.900   4.398  1.00  0.00     0.007 A 
HETATM    7  C   UNL     1      43.808 -20.650   3.268  1.00  0.00     0.001 A 
HETATM    8  C   UNL     1      43.265 -20.026   2.153  1.00  0.00     0.001 A 
HETATM    9  C   UNL     1      43.046 -18.648   2.167  1.00  0.00     0.010 A 
ENDBRANCH   2   3
BRANCH   2  10
HETATM   10  N   UNL     1      41.761 -16.114   3.745  1.00  0.00    -0.334 N 
HETATM   11  C   UNL     1      41.470 -15.432   4.883  1.00  0.00     0.314 C 
HETATM   12  N   UNL     1      40.140 -15.387   5.139  1.00  0.00    -0.352 N 
HETATM   13  O   UNL     1      42.281 -14.857   5.598  1.00  0.00    -0.248 OA
HETATM   14  H   UNL     1      39.553 -16.151   4.832  1.00  0.00     0.160 HD
HETATM   15  H   UNL     1      39.874 -14.977   6.024  1.00  0.00     0.160 HD
HETATM   16  H   UNL     1      41.009 -16.604   3.281  1.00  0.00     0.165 HD
ENDBRANCH   2  10
ENDBRANCH   1   2
BRANCH   1  17
HETATM   17  C   UNL     1      42.376 -14.668   1.553  1.00  0.00     0.219 C 
HETATM   18  N   UNL     1      41.431 -14.948   0.596  1.00  0.00    -0.359 N 
HETATM   19  H   UNL     1      41.464 -15.853   0.135  1.00  0.00     0.162 HD
HETATM   20  O   UNL     1      42.409 -13.576   2.118  1.00  0.00    -0.274 OA
BRANCH  18  21
HETATM   21  C   UNL     1      40.452 -13.978   0.130  1.00  0.00     0.150 C 
BRANCH  21  22
HETATM   22  C   UNL     1      39.526 -14.477  -1.002  1.00  0.00     0.254 C 
BRANCH  22  23
HETATM   23  N   UNL     1      38.475 -13.475  -1.403  1.00  0.00    -0.065 N 
HETATM   24  H   UNL     1      37.688 -13.600  -0.731  1.00  0.00     0.280 HD
HETATM   25  C   UNL     1      38.891 -12.028  -1.230  1.00  0.00     0.274 C 
HETATM   26  C   UNL     1      37.882 -11.081  -1.790  1.00  0.00    -0.019 A 
HETATM   27  C   UNL     1      36.859 -11.498  -2.618  1.00  0.00    -0.008 A 
HETATM   28  C   UNL     1      37.825  -9.668  -1.579  1.00  0.00     0.017 A 
HETATM   29  S   UNL     1      35.855 -10.230  -3.131  1.00  0.00    -0.106 SA
HETATM   30  C   UNL     1      36.620 -12.920  -3.014  1.00  0.00     0.074 C 
HETATM   31  C   UNL     1      36.771  -9.083  -2.250  1.00  0.00     0.051 A 
HETATM   32  C   UNL     1      37.895 -13.746  -2.781  1.00  0.00     0.240 C 
ENDBRANCH  22  23
ENDBRANCH  21  22
ENDBRANCH  18  21
ENDBRANCH   1  17
TORSDOF 7
ENDMDL
MODEL 7
REMARK VINA RESULT:      -7.9      2.229      2.933
REMARK  7 active torsions:
REMARK  status: ('A' for Active; 'I' for Inactive)
REMARK    1  A    between atoms: C_3  and  C_4 
REMARK    2  A    between atoms: C_4  and  N_5 
REMARK    3  A    between atoms: C_4  and  C_9 
REMARK       I    between atoms: N_5  and  C_6 
REMARK       I    between atoms: C_6  and  N_7 
REMARK    4  A    between atoms: C_9  and  C_10 
REMARK       I    between atoms: C_10  and  N_11 
REMARK    5  A    between atoms: N_11  and  C_12 
REMARK    6  A    between atoms: C_12  and  C_13 
REMARK    7  A    between atoms: C_13  and  N_14 
ROOT
HETATM    1  C   UNL     1      42.647 -14.186   3.253  1.00  0.00     0.132 C 
ENDROOT
BRANCH   1   2
HETATM    2  C   UNL     1      42.625 -15.215   4.398  1.00  0.00     0.128 C 
BRANCH   2   3
HETATM    3  C   UNL     1      43.106 -16.583   3.916  1.00  0.00    -0.029 A 
HETATM    4  C   UNL     1      44.071 -17.330   4.628  1.00  0.00    -0.054 A 
HETATM    5  C   UNL     1      44.696 -16.833   5.905  1.00  0.00     0.049 C 
HETATM    6  C   UNL     1      44.475 -18.583   4.133  1.00  0.00     0.007 A 
HETATM    7  C   UNL     1      43.929 -19.105   2.963  1.00  0.00     0.001 A 
HETATM    8  C   UNL     1      42.964 -18.387   2.270  1.00  0.00     0.001 A 
HETATM    9  C   UNL     1      42.552 -17.141   2.744  1.00  0.00     0.010 A 
ENDBRANCH   2   3
BRANCH   2  10
HETATM   10  N   UNL     1      41.289 -15.371   4.969  1.00  0.00    -0.334 N 
HETATM   11  C   UNL     1      41.046 -15.591   6.287  1.00  0.00     0.314 C 
HETATM   12  N   UNL     1      39.729 -15.754   6.556  1.00  0.00    -0.352 N 
HETATM   13  O   UNL     1      41.887 -15.593   7.176  1.00  0.00    -0.248 OA
HETATM   14  H   UNL     1      39.127 -16.155   5.848  1.00  0.00     0.160 HD
HETATM   15  H   UNL     1      39.500 -16.019   7.505  1.00  0.00     0.160 HD
HETATM   16  H   UNL     1      40.516 -15.465   4.324  1.00  0.00     0.165 HD
ENDBRANCH   2  10
ENDBRANCH   1   2
BRANCH   1  17
HETATM   17  C   UNL     1      43.135 -12.840   3.734  1.00  0.00     0.219 C 
HETATM   18  N   UNL     1      43.574 -12.804   5.035  1.00  0.00    -0.359 N 
HETATM   19  H   UNL     1      43.510 -13.652   5.590  1.00  0.00     0.162 HD
HETATM   20  O   UNL     1      43.151 -11.835   3.025  1.00  0.00    -0.274 OA
BRANCH  18  21
HETATM   21  C   UNL     1      44.023 -11.587   5.694  1.00  0.00     0.150 C 
BRANCH  21  22
HETATM   22  C   UNL     1      44.480 -11.769   7.159  1.00  0.00     0.254 C 
BRANCH  22  23
HETATM   23  N   UNL     1      43.662 -10.975   8.145  1.00  0.00    -0.065 N 
HETATM   24  H   UNL     1      42.981 -11.646   8.560  1.00  0.00     0.280 HD
HETATM   25  C   UNL     1      44.445 -10.452   9.331  1.00  0.00     0.274 C 
HETATM   26  C   UNL     1      43.630  -9.541  10.189  1.00  0.00    -0.019 A 
HETATM   27  C   UNL     1      42.421  -9.021   9.770  1.00  0.00    -0.008 A 
HETATM   28  C   UNL     1      43.959  -9.078  11.501  1.00  0.00     0.017 A 
HETATM   29  S   UNL     1      41.697  -8.003  10.919  1.00  0.00    -0.106 SA
HETATM   30  C   UNL     1      41.779  -9.331   8.455  1.00  0.00     0.074 C 
HETATM   31  C   UNL     1      42.994  -8.236  12.012  1.00  0.00     0.051 A 
HETATM   32  C   UNL     1      42.829  -9.890   7.482  1.00  0.00     0.240 C 
ENDBRANCH  22  23
ENDBRANCH  21  22
ENDBRANCH  18  21
ENDBRANCH   1  17
TORSDOF 7
ENDMDL
MODEL 8
REMARK VINA RESULT:      -7.8      4.234      6.418
REMARK  7 active torsions:
REMARK  status: ('A' for Active; 'I' for Inactive)
REMARK    1  A    between atoms: C_3  and  C_4 
REMARK    2  A    between atoms: C_4  and  N_5 
REMARK    3  A    between atoms: C_4  and  C_9 
REMARK       I    between atoms: N_5  and  C_6 
REMARK       I    between atoms: C_6  and  N_7 
REMARK    4  A    between atoms: C_9  and  C_10 
REMARK       I    between atoms: C_10  and  N_11 
REMARK    5  A    between atoms: N_11  and  C_12 
REMARK    6  A    between atoms: C_12  and  C_13 
REMARK    7  A    between atoms: C_13  and  N_14 
ROOT
HETATM    1  C   UNL     1      40.837 -15.217   4.324  1.00  0.00     0.132 C 
ENDROOT
BRANCH   1   2
HETATM    2  C   UNL     1      42.368 -15.159   4.481  1.00  0.00     0.128 C 
BRANCH   2   3
HETATM    3  C   UNL     1      42.994 -16.536   4.265  1.00  0.00    -0.029 A 
HETATM    4  C   UNL     1      43.311 -17.019   2.975  1.00  0.00    -0.054 A 
HETATM    5  C   UNL     1      43.051 -16.219   1.727  1.00  0.00     0.049 C 
HETATM    6  C   UNL     1      43.885 -18.296   2.840  1.00  0.00     0.007 A 
HETATM    7  C   UNL     1      44.160 -19.083   3.955  1.00  0.00     0.001 A 
HETATM    8  C   UNL     1      43.873 -18.607   5.227  1.00  0.00     0.001 A 
HETATM    9  C   UNL     1      43.300 -17.344   5.381  1.00  0.00     0.010 A 
ENDBRANCH   2   3
BRANCH   2  10
HETATM   10  N   UNL     1      42.765 -14.674   5.801  1.00  0.00    -0.334 N 
HETATM   11  C   UNL     1      43.147 -13.396   6.058  1.00  0.00     0.314 C 
HETATM   12  N   UNL     1      43.519 -13.211   7.347  1.00  0.00    -0.352 N 
HETATM   13  O   UNL     1      43.119 -12.470   5.259  1.00  0.00    -0.248 OA
HETATM   14  H   UNL     1      43.927 -13.982   7.859  1.00  0.00     0.160 HD
HETATM   15  H   UNL     1      43.905 -12.303   7.570  1.00  0.00     0.160 HD
HETATM   16  H   UNL     1      42.902 -15.364   6.528  1.00  0.00     0.165 HD
ENDBRANCH   2  10
ENDBRANCH   1   2
BRANCH   1  17
HETATM   17  C   UNL     1      40.348 -14.191   3.331  1.00  0.00     0.219 C 
HETATM   18  N   UNL     1      40.958 -12.962   3.405  1.00  0.00    -0.359 N 
HETATM   19  H   UNL     1      41.655 -12.812   4.129  1.00  0.00     0.162 HD
HETATM   20  O   UNL     1      39.470 -14.419   2.500  1.00  0.00    -0.274 OA
BRANCH  18  21
HETATM   21  C   UNL     1      40.581 -11.829   2.573  1.00  0.00     0.150 C 
BRANCH  21  22
HETATM   22  C   UNL     1      41.251 -11.790   1.182  1.00  0.00     0.254 C 
BRANCH  22  23
HETATM   23  N   UNL     1      40.287 -12.020   0.046  1.00  0.00    -0.065 N 
HETATM   24  H   UNL     1      40.556 -11.345  -0.701  1.00  0.00     0.280 HD
HETATM   25  C   UNL     1      40.410 -13.379  -0.614  1.00  0.00     0.274 C 
HETATM   26  C   UNL     1      39.332 -13.617  -1.618  1.00  0.00    -0.019 A 
HETATM   27  C   UNL     1      38.209 -12.816  -1.699  1.00  0.00    -0.008 A 
HETATM   28  C   UNL     1      39.285 -14.662  -2.593  1.00  0.00     0.017 A 
HETATM   29  S   UNL     1      37.127 -13.302  -2.913  1.00  0.00    -0.106 SA
HETATM   30  C   UNL     1      37.963 -11.619  -0.838  1.00  0.00     0.074 C 
HETATM   31  C   UNL     1      38.142 -14.606  -3.362  1.00  0.00     0.051 A 
HETATM   32  C   UNL     1      38.851 -11.687   0.415  1.00  0.00     0.240 C 
ENDBRANCH  22  23
ENDBRANCH  21  22
ENDBRANCH  18  21
ENDBRANCH   1  17
TORSDOF 7
ENDMDL
MODEL 9
REMARK VINA RESULT:      -7.7      4.038      5.957
REMARK  7 active torsions:
REMARK  status: ('A' for Active; 'I' for Inactive)
REMARK    1  A    between atoms: C_3  and  C_4 
REMARK    2  A    between atoms: C_4  and  N_5 
REMARK    3  A    between atoms: C_4  and  C_9 
REMARK       I    between atoms: N_5  and  C_6 
REMARK       I    between atoms: C_6  and  N_7 
REMARK    4  A    between atoms: C_9  and  C_10 
REMARK       I    between atoms: C_10  and  N_11 
REMARK    5  A    between atoms: N_11  and  C_12 
REMARK    6  A    between atoms: C_12  and  C_13 
REMARK    7  A    between atoms: C_13  and  N_14 
ROOT
HETATM    1  C   UNL     1      43.193 -15.087   3.094  1.00  0.00     0.132 C 
ENDROOT
BRANCH   1   2
HETATM    2  C   UNL     1      42.913 -16.049   4.263  1.00  0.00     0.128 C 
BRANCH   2   3
HETATM    3  C   UNL     1      43.238 -17.491   3.877  1.00  0.00    -0.029 A 
HETATM    4  C   UNL     1      43.719 -18.429   4.819  1.00  0.00    -0.054 A 
HETATM    5  C   UNL     1      43.950 -18.073   6.264  1.00  0.00     0.049 C 
HETATM    6  C   UNL     1      44.001 -19.741   4.402  1.00  0.00     0.007 A 
HETATM    7  C   UNL     1      43.800 -20.137   3.082  1.00  0.00     0.001 A 
HETATM    8  C   UNL     1      43.306 -19.228   2.155  1.00  0.00     0.001 A 
HETATM    9  C   UNL     1      43.023 -17.921   2.549  1.00  0.00     0.010 A 
ENDBRANCH   2   3
BRANCH   2  10
HETATM   10  N   UNL     1      41.519 -15.991   4.699  1.00  0.00    -0.334 N 
HETATM   11  C   UNL     1      41.129 -15.642   5.952  1.00  0.00     0.314 C 
HETATM   12  N   UNL     1      39.787 -15.717   6.121  1.00  0.00    -0.352 N 
HETATM   13  O   UNL     1      41.867 -15.242   6.843  1.00  0.00    -0.248 OA
HETATM   14  H   UNL     1      39.260 -16.397   5.589  1.00  0.00     0.160 HD
HETATM   15  H   UNL     1      39.451 -15.563   7.062  1.00  0.00     0.160 HD
HETATM   16  H   UNL     1      40.821 -16.372   4.075  1.00  0.00     0.165 HD
ENDBRANCH   2  10
ENDBRANCH   1   2
BRANCH   1  17
HETATM   17  C   UNL     1      42.618 -13.717   3.360  1.00  0.00     0.219 C 
HETATM   18  N   UNL     1      41.722 -13.262   2.423  1.00  0.00    -0.359 N 
HETATM   19  H   UNL     1      41.535 -13.844   1.611  1.00  0.00     0.162 HD
HETATM   20  O   UNL     1      42.912 -13.040   4.345  1.00  0.00    -0.274 OA
BRANCH  18  21
HETATM   21  C   UNL     1      41.109 -11.943   2.475  1.00  0.00     0.150 C 
BRANCH  21  22
HETATM   22  C   UNL     1      41.246 -11.109   1.182  1.00  0.00     0.254 C 
BRANCH  22  23
HETATM   23  N   UNL     1      40.263 -11.501   0.110  1.00  0.00    -0.065 N 
HETATM   24  H   UNL     1      40.283 -10.732  -0.594  1.00  0.00     0.280 HD
HETATM   25  C   UNL     1      40.652 -12.737  -0.675  1.00  0.00     0.274 C 
HETATM   26  C   UNL     1      39.573 -13.175  -1.609  1.00  0.00    -0.019 A 
HETATM   27  C   UNL     1      38.285 -12.681  -1.532  1.00  0.00    -0.008 A 
HETATM   28  C   UNL     1      39.691 -14.131  -2.666  1.00  0.00     0.017 A 
HETATM   29  S   UNL     1      37.244 -13.345  -2.696  1.00  0.00    -0.106 SA
HETATM   30  C   UNL     1      37.837 -11.644  -0.553  1.00  0.00     0.074 C 
HETATM   31  C   UNL     1      38.500 -14.317  -3.336  1.00  0.00     0.051 A 
HETATM   32  C   UNL     1      38.832 -11.568   0.617  1.00  0.00     0.240 C 
ENDBRANCH  22  23
ENDBRANCH  21  22
ENDBRANCH  18  21
ENDBRANCH   1  17
TORSDOF 7
ENDMDL
MODEL 10
REMARK VINA RESULT:      -7.6      4.000      9.262
REMARK  7 active torsions:
REMARK  status: ('A' for Active; 'I' for Inactive)
REMARK    1  A    between atoms: C_3  and  C_4 
REMARK    2  A    between atoms: C_4  and  N_5 
REMARK    3  A    between atoms: C_4  and  C_9 
REMARK       I    between atoms: N_5  and  C_6 
REMARK       I    between atoms: C_6  and  N_7 
REMARK    4  A    between atoms: C_9  and  C_10 
REMARK       I    between atoms: C_10  and  N_11 
REMARK    5  A    between atoms: N_11  and  C_12 
REMARK    6  A    between atoms: C_12  and  C_13 
REMARK    7  A    between atoms: C_13  and  N_14 
ROOT
HETATM    1  C   UNL     1      42.130  -9.210   8.042  1.00  0.00     0.132 C 
ENDROOT
BRANCH   1   2
HETATM    2  C   UNL     1      43.301  -9.486   9.004  1.00  0.00     0.128 C 
BRANCH   2   3
HETATM    3  C   UNL     1      43.098  -8.766  10.336  1.00  0.00    -0.029 A 
HETATM    4  C   UNL     1      43.293  -9.416  11.576  1.00  0.00    -0.054 A 
HETATM    5  C   UNL     1      43.707 -10.860  11.672  1.00  0.00     0.049 C 
HETATM    6  C   UNL     1      43.090  -8.700  12.769  1.00  0.00     0.007 A 
HETATM    7  C   UNL     1      42.715  -7.359  12.748  1.00  0.00     0.001 A 
HETATM    8  C   UNL     1      42.543  -6.706  11.535  1.00  0.00     0.001 A 
HETATM    9  C   UNL     1      42.738  -7.401  10.341  1.00  0.00     0.010 A 
ENDBRANCH   2   3
BRANCH   2  10
HETATM   10  N   UNL     1      44.582  -9.064   8.442  1.00  0.00    -0.334 N 
HETATM   11  C   UNL     1      45.630  -9.901   8.228  1.00  0.00     0.314 C 
HETATM   12  N   UNL     1      46.723  -9.259   7.750  1.00  0.00    -0.352 N 
HETATM   13  O   UNL     1      45.615 -11.116   8.382  1.00  0.00    -0.248 OA
HETATM   14  H   UNL     1      46.880  -8.294   8.008  1.00  0.00     0.160 HD
HETATM   15  H   UNL     1      47.562  -9.817   7.666  1.00  0.00     0.160 HD
HETATM   16  H   UNL     1      44.743  -8.071   8.345  1.00  0.00     0.165 HD
ENDBRANCH   2  10
ENDBRANCH   1   2
BRANCH   1  17
HETATM   17  C   UNL     1      42.197 -10.100   6.825  1.00  0.00     0.219 C 
HETATM   18  N   UNL     1      42.679 -11.367   7.049  1.00  0.00    -0.359 N 
HETATM   19  H   UNL     1      42.987 -11.608   7.986  1.00  0.00     0.162 HD
HETATM   20  O   UNL     1      41.846  -9.739   5.703  1.00  0.00    -0.274 OA
BRANCH  18  21
HETATM   21  C   UNL     1      42.875 -12.348   5.991  1.00  0.00     0.150 C 
BRANCH  21  22
HETATM   22  C   UNL     1      43.007 -13.810   6.473  1.00  0.00     0.254 C 
BRANCH  22  23
HETATM   23  N   UNL     1      43.153 -14.801   5.347  1.00  0.00    -0.065 N 
HETATM   24  H   UNL     1      43.869 -14.402   4.704  1.00  0.00     0.280 HD
HETATM   25  C   UNL     1      43.726 -16.140   5.763  1.00  0.00     0.274 C 
HETATM   26  C   UNL     1      43.699 -17.135   4.650  1.00  0.00    -0.019 A 
HETATM   27  C   UNL     1      42.967 -16.931   3.496  1.00  0.00    -0.008 A 
HETATM   28  C   UNL     1      44.377 -18.393   4.609  1.00  0.00     0.017 A 
HETATM   29  S   UNL     1      43.090 -18.213   2.391  1.00  0.00    -0.106 SA
HETATM   30  C   UNL     1      42.165 -15.701   3.212  1.00  0.00     0.074 C 
HETATM   31  C   UNL     1      44.132 -19.079   3.437  1.00  0.00     0.051 A 
HETATM   32  C   UNL     1      41.885 -14.949   4.523  1.00  0.00     0.240 C 
ENDBRANCH  22  23
ENDBRANCH  21  22
ENDBRANCH  18  21
ENDBRANCH   1  17
TORSDOF 7
ENDMDL
