MODEL 1
REMARK VINA RESULT:      -8.5      0.000      0.000
REMARK  3 active torsions:
REMARK  status: ('A' for Active; 'I' for Inactive)
REMARK    1  A    between atoms: C_2  and  N_3 
REMARK    2  A    between atoms: C_2  and  C_10 
REMARK    3  A    between atoms: C_13  and  C_14 
ROOT
HETATM    1  C   UNL     1      42.722 -16.205   3.118  1.00  0.00    -0.028 A 
HETATM    2  C   UNL     1      41.331 -16.388   3.161  1.00  0.00     0.010 A 
HETATM    3  C   UNL     1      40.484 -15.705   2.279  1.00  0.00     0.013 A 
HETATM    4  C   UNL     1      40.994 -14.818   1.321  1.00  0.00    -0.024 A 
HETATM    5  C   UNL     1      42.385 -14.648   1.271  1.00  0.00     0.013 A 
HETATM    6  C   UNL     1      43.236 -15.325   2.153  1.00  0.00     0.010 A 
ENDROOT
BRANCH   4   7
HETATM    7  C   UNL     1      40.100 -14.090   0.403  1.00  0.00    -0.006 A 
HETATM    8  C   UNL     1      39.779 -12.740   0.619  1.00  0.00     0.131 A 
HETATM    9  N   UNL     1      38.971 -11.962  -0.139  1.00  0.00    -0.239 NA
HETATM   10  C   UNL     1      38.436 -12.594  -1.204  1.00  0.00     0.177 A 
HETATM   11  C   UNL     1      38.691 -13.926  -1.505  1.00  0.00     0.082 A 
HETATM   12  N   UNL     1      37.589 -12.033  -2.117  1.00  0.00    -0.222 NA
HETATM   13  N   UNL     1      37.966 -14.157  -2.645  1.00  0.00    -0.348 N 
HETATM   14  C   UNL     1      39.528 -14.717  -0.716  1.00  0.00     0.047 A 
HETATM   15  H   UNL     1      37.910 -15.025  -3.157  1.00  0.00     0.167 HD
HETATM   16  C   UNL     1      37.322 -12.995  -2.971  1.00  0.00     0.210 A 
ENDBRANCH   4   7
BRANCH   1  17
HETATM   17  C   UNL     1      43.606 -16.939   4.110  1.00  0.00     0.217 C 
HETATM   18  C   UNL     1      43.438 -16.494   5.569  1.00  0.00     0.045 C 
BRANCH  17  19
HETATM   19  N   UNL     1      43.507 -18.470   4.042  1.00  0.00    -0.063 N 
HETATM   20  H   UNL     1      42.510 -18.679   4.178  1.00  0.00     0.280 HD
HETATM   21  C   UNL     1      43.900 -19.077   2.712  1.00  0.00     0.235 C 
HETATM   22  C   UNL     1      43.530 -20.556   2.709  1.00  0.00     0.028 C 
HETATM   23  C   UNL     1      44.179 -21.301   3.869  1.00  0.00     0.003 C 
HETATM   24  C   UNL     1      43.868 -20.628   5.201  1.00  0.00     0.028 C 
HETATM   25  C   UNL     1      44.233 -19.150   5.183  1.00  0.00     0.235 C 
ENDBRANCH  17  19
ENDBRANCH   1  17
TORSDOF 3
ENDMDL
MODEL 2
REMARK VINA RESULT:      -8.3     12.847     15.645
REMARK  3 active torsions:
REMARK  status: ('A' for Active; 'I' for Inactive)
REMARK    1  A    between atoms: C_2  and  N_3 
REMARK    2  A    between atoms: C_2  and  C_10 
REMARK    3  A    between atoms: C_13  and  C_14 
ROOT
HETATM    1  C   UNL     1      41.591  -7.533  15.560  1.00  0.00    -0.028 A 
HETATM    2  C   UNL     1      42.728  -6.962  14.965  1.00  0.00     0.010 A 
HETATM    3  C   UNL     1      43.286  -7.508  13.803  1.00  0.00     0.013 A 
HETATM    4  C   UNL     1      42.729  -8.639  13.189  1.00  0.00    -0.024 A 
HETATM    5  C   UNL     1      41.585  -9.198  13.778  1.00  0.00     0.013 A 
HETATM    6  C   UNL     1      41.025  -8.658  14.943  1.00  0.00     0.010 A 
ENDROOT
BRANCH   4   7
HETATM    7  C   UNL     1      43.327  -9.220  11.975  1.00  0.00    -0.006 A 
HETATM    8  C   UNL     1      43.466 -10.609  11.824  1.00  0.00     0.131 A 
HETATM    9  N   UNL     1      44.000 -11.266  10.769  1.00  0.00    -0.239 NA
HETATM   10  C   UNL     1      44.435 -10.461   9.778  1.00  0.00     0.177 A 
HETATM   11  C   UNL     1      44.343  -9.075   9.830  1.00  0.00     0.082 A 
HETATM   12  N   UNL     1      45.015 -10.876   8.613  1.00  0.00    -0.222 NA
HETATM   13  N   UNL     1      44.888  -8.659   8.643  1.00  0.00    -0.348 N 
HETATM   14  C   UNL     1      43.788  -8.409  10.924  1.00  0.00     0.047 A 
HETATM   15  H   UNL     1      44.989  -7.705   8.329  1.00  0.00     0.167 HD
HETATM   16  C   UNL     1      45.277  -9.773   7.950  1.00  0.00     0.210 A 
ENDBRANCH   4   7
BRANCH   1  17
HETATM   17  C   UNL     1      41.031  -6.932  16.837  1.00  0.00     0.217 C 
HETATM   18  C   UNL     1      39.610  -6.368  16.711  1.00  0.00     0.045 C 
BRANCH  17  19
HETATM   19  N   UNL     1      41.092  -7.859  18.059  1.00  0.00    -0.063 N 
HETATM   20  H   UNL     1      41.260  -8.797  17.675  1.00  0.00     0.280 HD
HETATM   21  C   UNL     1      42.226  -7.575  19.022  1.00  0.00     0.235 C 
HETATM   22  C   UNL     1      42.308  -8.702  20.045  1.00  0.00     0.028 C 
HETATM   23  C   UNL     1      40.989  -8.888  20.785  1.00  0.00     0.003 C 
HETATM   24  C   UNL     1      39.829  -9.071  19.812  1.00  0.00     0.028 C 
HETATM   25  C   UNL     1      39.770  -7.942  18.791  1.00  0.00     0.235 C 
ENDBRANCH  17  19
ENDBRANCH   1  17
TORSDOF 3
ENDMDL
MODEL 3
REMARK VINA RESULT:      -7.6     10.796     13.618
REMARK  3 active torsions:
REMARK  status: ('A' for Active; 'I' for Inactive)
REMARK    1  A    between atoms: C_2  and  N_3 
REMARK    2  A    between atoms: C_2  and  C_10 
REMARK    3  A    between atoms: C_13  and  C_14 
ROOT
HETATM    1  C   UNL     1      44.413  -8.929   9.319  1.00  0.00    -0.028 A 
HETATM    2  C   UNL     1      43.645  -7.782   9.578  1.00  0.00     0.010 A 
HETATM    3  C   UNL     1      43.073  -7.564  10.837  1.00  0.00     0.013 A 
HETATM    4  C   UNL     1      43.249  -8.479  11.885  1.00  0.00    -0.024 A 
HETATM    5  C   UNL     1      44.028  -9.617  11.628  1.00  0.00     0.013 A 
HETATM    6  C   UNL     1      44.599  -9.842  10.369  1.00  0.00     0.010 A 
ENDROOT
BRANCH   4   7
HETATM    7  C   UNL     1      42.635  -8.255  13.205  1.00  0.00    -0.006 A 
HETATM    8  C   UNL     1      41.553  -9.033  13.647  1.00  0.00     0.131 A 
HETATM    9  N   UNL     1      40.898  -8.926  14.826  1.00  0.00    -0.239 NA
HETATM   10  C   UNL     1      41.366  -7.952  15.633  1.00  0.00     0.177 A 
HETATM   11  C   UNL     1      42.430  -7.127  15.289  1.00  0.00     0.082 A 
HETATM   12  N   UNL     1      40.877  -7.640  16.869  1.00  0.00    -0.222 NA
HETATM   13  N   UNL     1      42.575  -6.298  16.371  1.00  0.00    -0.348 N 
HETATM   14  C   UNL     1      43.099  -7.249  14.070  1.00  0.00     0.047 A 
HETATM   15  H   UNL     1      43.258  -5.563  16.478  1.00  0.00     0.167 HD
HETATM   16  C   UNL     1      41.621  -6.643  17.289  1.00  0.00     0.210 A 
ENDBRANCH   4   7
BRANCH   1  17
HETATM   17  C   UNL     1      44.992  -9.147   7.933  1.00  0.00     0.217 C 
HETATM   18  C   UNL     1      46.511  -9.361   7.899  1.00  0.00     0.045 C 
BRANCH  17  19
HETATM   19  N   UNL     1      44.314 -10.264   7.127  1.00  0.00    -0.063 N 
HETATM   20  H   UNL     1      44.509 -10.040   6.143  1.00  0.00     0.280 HD
HETATM   21  C   UNL     1      44.863 -11.653   7.373  1.00  0.00     0.235 C 
HETATM   22  C   UNL     1      44.272 -12.614   6.347  1.00  0.00     0.028 C 
HETATM   23  C   UNL     1      42.748 -12.608   6.384  1.00  0.00     0.003 C 
HETATM   24  C   UNL     1      42.196 -11.194   6.240  1.00  0.00     0.028 C 
HETATM   25  C   UNL     1      42.806 -10.246   7.264  1.00  0.00     0.235 C 
ENDBRANCH  17  19
ENDBRANCH   1  17
TORSDOF 3
ENDMDL
MODEL 4
REMARK VINA RESULT:      -7.6      1.637      2.521
REMARK  3 active torsions:
REMARK  status: ('A' for Active; 'I' for Inactive)
REMARK    1  A    between atoms: C_2  and  N_3 
REMARK    2  A    between atoms: C_2  and  C_10 
REMARK    3  A    between atoms: C_13  and  C_14 
ROOT
HETATM    1  C   UNL     1      42.272 -14.314   3.992  1.00  0.00    -0.028 A 
HETATM    2  C   UNL     1      42.864 -13.859   2.802  1.00  0.00     0.010 A 
HETATM    3  C   UNL     1      42.114 -13.720   1.629  1.00  0.00     0.013 A 
HETATM    4  C   UNL     1      40.746 -14.024   1.599  1.00  0.00    -0.024 A 
HETATM    5  C   UNL     1      40.154 -14.464   2.792  1.00  0.00     0.013 A 
HETATM    6  C   UNL     1      40.901 -14.610   3.968  1.00  0.00     0.010 A 
ENDROOT
BRANCH   4   7
HETATM    7  C   UNL     1      39.961 -13.890   0.359  1.00  0.00    -0.006 A 
HETATM    8  C   UNL     1      39.325 -12.684   0.026  1.00  0.00     0.131 A 
HETATM    9  N   UNL     1      38.574 -12.432  -1.071  1.00  0.00    -0.239 NA
HETATM   10  C   UNL     1      38.447 -13.483  -1.907  1.00  0.00     0.177 A 
HETATM   11  C   UNL     1      39.035 -14.719  -1.668  1.00  0.00     0.082 A 
HETATM   12  N   UNL     1      37.739 -13.488  -3.075  1.00  0.00    -0.222 NA
HETATM   13  N   UNL     1      38.661 -15.481  -2.744  1.00  0.00    -0.348 N 
HETATM   14  C   UNL     1      39.810 -14.965  -0.533  1.00  0.00     0.047 A 
HETATM   15  H   UNL     1      38.909 -16.446  -2.914  1.00  0.00     0.167 HD
HETATM   16  C   UNL     1      37.885 -14.701  -3.557  1.00  0.00     0.210 A 
ENDBRANCH   4   7
BRANCH   1  17
HETATM   17  C   UNL     1      43.124 -14.482   5.237  1.00  0.00     0.217 C 
HETATM   18  C   UNL     1      42.520 -13.879   6.512  1.00  0.00     0.045 C 
BRANCH  17  19
HETATM   19  N   UNL     1      43.555 -15.927   5.525  1.00  0.00    -0.063 N 
HETATM   20  H   UNL     1      44.513 -15.853   5.889  1.00  0.00     0.280 HD
HETATM   21  C   UNL     1      42.742 -16.637   6.587  1.00  0.00     0.235 C 
HETATM   22  C   UNL     1      43.419 -17.957   6.936  1.00  0.00     0.028 C 
HETATM   23  C   UNL     1      43.607 -18.836   5.706  1.00  0.00     0.003 C 
HETATM   24  C   UNL     1      44.335 -18.086   4.596  1.00  0.00     0.028 C 
HETATM   25  C   UNL     1      43.652 -16.765   4.268  1.00  0.00     0.235 C 
ENDBRANCH  17  19
ENDBRANCH   1  17
TORSDOF 3
ENDMDL
MODEL 5
REMARK VINA RESULT:      -7.4      1.590      3.001
REMARK  3 active torsions:
REMARK  status: ('A' for Active; 'I' for Inactive)
REMARK    1  A    between atoms: C_2  and  N_3 
REMARK    2  A    between atoms: C_2  and  C_10 
REMARK    3  A    between atoms: C_13  and  C_14 
ROOT
HETATM    1  C   UNL     1      41.976 -16.454   2.506  1.00  0.00    -0.028 A 
HETATM    2  C   UNL     1      40.581 -16.431   2.342  1.00  0.00     0.010 A 
HETATM    3  C   UNL     1      39.976 -15.563   1.425  1.00  0.00     0.013 A 
HETATM    4  C   UNL     1      40.738 -14.690   0.637  1.00  0.00    -0.024 A 
HETATM    5  C   UNL     1      42.132 -14.726   0.793  1.00  0.00     0.013 A 
HETATM    6  C   UNL     1      42.742 -15.589   1.711  1.00  0.00     0.010 A 
ENDROOT
BRANCH   4   7
HETATM    7  C   UNL     1      40.098 -13.767  -0.317  1.00  0.00    -0.006 A 
HETATM    8  C   UNL     1      39.232 -14.238  -1.317  1.00  0.00     0.131 A 
HETATM    9  N   UNL     1      38.589 -13.502  -2.253  1.00  0.00    -0.239 NA
HETATM   10  C   UNL     1      38.839 -12.178  -2.183  1.00  0.00     0.177 A 
HETATM   11  C   UNL     1      39.680 -11.613  -1.232  1.00  0.00     0.082 A 
HETATM   12  N   UNL     1      38.318 -11.227  -3.013  1.00  0.00    -0.222 NA
HETATM   13  N   UNL     1      39.648 -10.272  -1.513  1.00  0.00    -0.348 N 
HETATM   14  C   UNL     1      40.335 -12.383  -0.270  1.00  0.00     0.047 A 
HETATM   15  H   UNL     1      40.144  -9.542  -1.021  1.00  0.00     0.167 HD
HETATM   16  C   UNL     1      38.821 -10.090  -2.588  1.00  0.00     0.210 A 
ENDBRANCH   4   7
BRANCH   1  17
HETATM   17  C   UNL     1      42.594 -17.388   3.531  1.00  0.00     0.217 C 
HETATM   18  C   UNL     1      43.805 -18.183   3.026  1.00  0.00     0.045 C 
BRANCH  17  19
HETATM   19  N   UNL     1      42.960 -16.719   4.864  1.00  0.00    -0.063 N 
HETATM   20  H   UNL     1      43.177 -15.744   4.624  1.00  0.00     0.280 HD
HETATM   21  C   UNL     1      41.843 -16.676   5.886  1.00  0.00     0.235 C 
HETATM   22  C   UNL     1      42.265 -15.787   7.050  1.00  0.00     0.028 C 
HETATM   23  C   UNL     1      43.569 -16.262   7.678  1.00  0.00     0.003 C 
HETATM   24  C   UNL     1      44.668 -16.405   6.631  1.00  0.00     0.028 C 
HETATM   25  C   UNL     1      44.226 -17.287   5.470  1.00  0.00     0.235 C 
ENDBRANCH  17  19
ENDBRANCH   1  17
TORSDOF 3
ENDMDL
MODEL 6
REMARK VINA RESULT:      -7.3      1.702      8.498
REMARK  3 active torsions:
REMARK  status: ('A' for Active; 'I' for Inactive)
REMARK    1  A    between atoms: C_2  and  N_3 
REMARK    2  A    between atoms: C_2  and  C_10 
REMARK    3  A    between atoms: C_13  and  C_14 
ROOT
HETATM    1  C   UNL     1      41.303 -13.070   1.702  1.00  0.00    -0.028 A 
HETATM    2  C   UNL     1      41.292 -14.255   0.948  1.00  0.00     0.010 A 
HETATM    3  C   UNL     1      41.819 -15.444   1.464  1.00  0.00     0.013 A 
HETATM    4  C   UNL     1      42.373 -15.498   2.751  1.00  0.00    -0.024 A 
HETATM    5  C   UNL     1      42.370 -14.316   3.507  1.00  0.00     0.013 A 
HETATM    6  C   UNL     1      41.848 -13.122   2.994  1.00  0.00     0.010 A 
ENDROOT
BRANCH   4   7
HETATM    7  C   UNL     1      42.940 -16.748   3.287  1.00  0.00    -0.006 A 
HETATM    8  C   UNL     1      43.549 -16.787   4.551  1.00  0.00     0.131 A 
HETATM    9  N   UNL     1      44.111 -17.862   5.153  1.00  0.00    -0.239 NA
HETATM   10  C   UNL     1      44.060 -18.994   4.422  1.00  0.00     0.177 A 
HETATM   11  C   UNL     1      43.480 -19.060   3.162  1.00  0.00     0.082 A 
HETATM   12  N   UNL     1      44.558 -20.208   4.802  1.00  0.00    -0.222 NA
HETATM   13  N   UNL     1      43.640 -20.369   2.787  1.00  0.00    -0.348 N 
HETATM   14  C   UNL     1      42.901 -17.945   2.553  1.00  0.00     0.047 A 
HETATM   15  H   UNL     1      43.336 -20.788   1.920  1.00  0.00     0.167 HD
HETATM   16  C   UNL     1      44.292 -21.015   3.801  1.00  0.00     0.210 A 
ENDBRANCH   4   7
BRANCH   1  17
HETATM   17  C   UNL     1      40.750 -11.792   1.097  1.00  0.00     0.217 C 
HETATM   18  C   UNL     1      41.710 -10.595   1.142  1.00  0.00     0.045 C 
BRANCH  17  19
HETATM   19  N   UNL     1      40.210 -11.943  -0.332  1.00  0.00    -0.063 N 
HETATM   20  H   UNL     1      40.284 -12.946  -0.541  1.00  0.00     0.280 HD
HETATM   21  C   UNL     1      38.754 -11.569  -0.508  1.00  0.00     0.235 C 
HETATM   22  C   UNL     1      38.294 -11.988  -1.899  1.00  0.00     0.028 C 
HETATM   23  C   UNL     1      39.159 -11.367  -2.990  1.00  0.00     0.003 C 
HETATM   24  C   UNL     1      40.638 -11.657  -2.755  1.00  0.00     0.028 C 
HETATM   25  C   UNL     1      41.077 -11.242  -1.357  1.00  0.00     0.235 C 
ENDBRANCH  17  19
ENDBRANCH   1  17
TORSDOF 3
ENDMDL
MODEL 7
REMARK VINA RESULT:      -7.2      5.452      7.586
REMARK  3 active torsions:
REMARK  status: ('A' for Active; 'I' for Inactive)
REMARK    1  A    between atoms: C_2  and  N_3 
REMARK    2  A    between atoms: C_2  and  C_10 
REMARK    3  A    between atoms: C_13  and  C_14 
ROOT
HETATM    1  C   UNL     1      42.316 -14.794   4.274  1.00  0.00    -0.028 A 
HETATM    2  C   UNL     1      42.110 -14.680   5.659  1.00  0.00     0.010 A 
HETATM    3  C   UNL     1      42.582 -13.571   6.371  1.00  0.00     0.013 A 
HETATM    4  C   UNL     1      43.271 -12.533   5.730  1.00  0.00    -0.024 A 
HETATM    5  C   UNL     1      43.463 -12.642   4.344  1.00  0.00     0.013 A 
HETATM    6  C   UNL     1      42.997 -13.752   3.627  1.00  0.00     0.010 A 
ENDROOT
BRANCH   4   7
HETATM    7  C   UNL     1      43.779 -11.374   6.483  1.00  0.00    -0.006 A 
HETATM    8  C   UNL     1      45.155 -11.187   6.693  1.00  0.00     0.131 A 
HETATM    9  N   UNL     1      45.748 -10.176   7.369  1.00  0.00    -0.239 NA
HETATM   10  C   UNL     1      44.886  -9.273   7.881  1.00  0.00     0.177 A 
HETATM   11  C   UNL     1      43.508  -9.367   7.730  1.00  0.00     0.082 A 
HETATM   12  N   UNL     1      45.232  -8.168   8.605  1.00  0.00    -0.222 NA
HETATM   13  N   UNL     1      43.024  -8.268   8.389  1.00  0.00    -0.348 N 
HETATM   14  C   UNL     1      42.909 -10.415   7.028  1.00  0.00     0.047 A 
HETATM   15  H   UNL     1      42.054  -8.004   8.488  1.00  0.00     0.167 HD
HETATM   16  C   UNL     1      44.093  -7.582   8.897  1.00  0.00     0.210 A 
ENDBRANCH   4   7
BRANCH   1  17
HETATM   17  C   UNL     1      41.817 -16.025   3.541  1.00  0.00     0.217 C 
HETATM   18  C   UNL     1      41.232 -15.749   2.149  1.00  0.00     0.045 C 
BRANCH  17  19
HETATM   19  N   UNL     1      42.842 -17.163   3.433  1.00  0.00    -0.063 N 
HETATM   20  H   UNL     1      43.684 -16.728   3.036  1.00  0.00     0.280 HD
HETATM   21  C   UNL     1      43.253 -17.780   4.753  1.00  0.00     0.235 C 
HETATM   22  C   UNL     1      44.434 -18.717   4.521  1.00  0.00     0.028 C 
HETATM   23  C   UNL     1      44.107 -19.789   3.488  1.00  0.00     0.003 C 
HETATM   24  C   UNL     1      43.594 -19.171   2.192  1.00  0.00     0.028 C 
HETATM   25  C   UNL     1      42.423 -18.230   2.444  1.00  0.00     0.235 C 
ENDBRANCH  17  19
ENDBRANCH   1  17
TORSDOF 3
ENDMDL
MODEL 8
REMARK VINA RESULT:      -7.1     14.051     16.289
REMARK  3 active torsions:
REMARK  status: ('A' for Active; 'I' for Inactive)
REMARK    1  A    between atoms: C_2  and  N_3 
REMARK    2  A    between atoms: C_2  and  C_10 
REMARK    3  A    between atoms: C_13  and  C_14 
ROOT
HETATM    1  C   UNL     1      44.196 -29.641   1.131  1.00  0.00    -0.028 A 
HETATM    2  C   UNL     1      42.864 -29.235   0.957  1.00  0.00     0.010 A 
HETATM    3  C   UNL     1      41.837 -29.771   1.743  1.00  0.00     0.013 A 
HETATM    4  C   UNL     1      42.100 -30.728   2.733  1.00  0.00    -0.024 A 
HETATM    5  C   UNL     1      43.435 -31.121   2.913  1.00  0.00     0.013 A 
HETATM    6  C   UNL     1      44.466 -30.591   2.127  1.00  0.00     0.010 A 
ENDROOT
BRANCH   4   7
HETATM    7  C   UNL     1      41.016 -31.301   3.549  1.00  0.00    -0.006 A 
HETATM    8  C   UNL     1      40.962 -31.094   4.936  1.00  0.00     0.131 A 
HETATM    9  N   UNL     1      40.030 -31.567   5.796  1.00  0.00    -0.239 NA
HETATM   10  C   UNL     1      39.070 -32.316   5.215  1.00  0.00     0.177 A 
HETATM   11  C   UNL     1      39.035 -32.580   3.851  1.00  0.00     0.082 A 
HETATM   12  N   UNL     1      38.024 -32.909   5.862  1.00  0.00    -0.222 NA
HETATM   13  N   UNL     1      37.918 -33.358   3.690  1.00  0.00    -0.348 N 
HETATM   14  C   UNL     1      40.001 -32.084   2.974  1.00  0.00     0.047 A 
HETATM   15  H   UNL     1      37.572 -33.742   2.823  1.00  0.00     0.167 HD
HETATM   16  C   UNL     1      37.348 -33.529   4.922  1.00  0.00     0.210 A 
ENDBRANCH   4   7
BRANCH   1  17
HETATM   17  C   UNL     1      45.279 -29.060   0.239  1.00  0.00     0.217 C 
HETATM   18  C   UNL     1      46.633 -29.778   0.324  1.00  0.00     0.045 C 
BRANCH  17  19
HETATM   19  N   UNL     1      44.883 -28.920  -1.238  1.00  0.00    -0.063 N 
HETATM   20  H   UNL     1      43.974 -28.442  -1.227  1.00  0.00     0.280 HD
HETATM   21  C   UNL     1      45.814 -28.063  -2.071  1.00  0.00     0.235 C 
HETATM   22  C   UNL     1      45.180 -27.818  -3.435  1.00  0.00     0.028 C 
HETATM   23  C   UNL     1      44.849 -29.125  -4.146  1.00  0.00     0.003 C 
HETATM   24  C   UNL     1      43.998 -30.033  -3.265  1.00  0.00     0.028 C 
HETATM   25  C   UNL     1      44.640 -30.258  -1.903  1.00  0.00     0.235 C 
ENDBRANCH  17  19
ENDBRANCH   1  17
TORSDOF 3
ENDMDL
MODEL 9
REMARK VINA RESULT:      -7.0     12.459     15.242
REMARK  3 active torsions:
REMARK  status: ('A' for Active; 'I' for Inactive)
REMARK    1  A    between atoms: C_2  and  N_3 
REMARK    2  A    between atoms: C_2  and  C_10 
REMARK    3  A    between atoms: C_13  and  C_14 
ROOT
HETATM    1  C   UNL     1      41.898  -6.230  13.624  1.00  0.00    -0.028 A 
HETATM    2  C   UNL     1      42.725  -7.291  14.029  1.00  0.00     0.010 A 
HETATM    3  C   UNL     1      43.348  -8.121  13.089  1.00  0.00     0.013 A 
HETATM    4  C   UNL     1      43.173  -7.922  11.713  1.00  0.00    -0.024 A 
HETATM    5  C   UNL     1      42.358  -6.853  11.311  1.00  0.00     0.013 A 
HETATM    6  C   UNL     1      41.729  -6.022  12.247  1.00  0.00     0.010 A 
ENDROOT
BRANCH   4   7
HETATM    7  C   UNL     1      43.818  -8.805  10.726  1.00  0.00    -0.006 A 
HETATM    8  C   UNL     1      43.520 -10.176  10.670  1.00  0.00     0.131 A 
HETATM    9  N   UNL     1      44.043 -11.092   9.822  1.00  0.00    -0.239 NA
HETATM   10  C   UNL     1      44.947 -10.590   8.956  1.00  0.00     0.177 A 
HETATM   11  C   UNL     1      45.312  -9.249   8.930  1.00  0.00     0.082 A 
HETATM   12  N   UNL     1      45.619 -11.305   8.006  1.00  0.00    -0.222 NA
HETATM   13  N   UNL     1      46.234  -9.173   7.918  1.00  0.00    -0.348 N 
HETATM   14  C   UNL     1      44.763  -8.314   9.808  1.00  0.00     0.047 A 
HETATM   15  H   UNL     1      46.720  -8.344   7.608  1.00  0.00     0.167 HD
HETATM   16  C   UNL     1      46.386 -10.429   7.397  1.00  0.00     0.210 A 
ENDBRANCH   4   7
BRANCH   1  17
HETATM   17  C   UNL     1      41.215  -5.370  14.672  1.00  0.00     0.217 C 
HETATM   18  C   UNL     1      39.791  -4.929  14.309  1.00  0.00     0.045 C 
BRANCH  17  19
HETATM   19  N   UNL     1      41.204  -5.972  16.084  1.00  0.00    -0.063 N 
HETATM   20  H   UNL     1      41.870  -6.754  16.046  1.00  0.00     0.280 HD
HETATM   21  C   UNL     1      41.687  -5.044  17.178  1.00  0.00     0.235 C 
HETATM   22  C   UNL     1      41.849  -5.836  18.471  1.00  0.00     0.028 C 
HETATM   23  C   UNL     1      40.554  -6.533  18.870  1.00  0.00     0.003 C 
HETATM   24  C   UNL     1      40.011  -7.388  17.730  1.00  0.00     0.028 C 
HETATM   25  C   UNL     1      39.867  -6.584  16.444  1.00  0.00     0.235 C 
ENDBRANCH  17  19
ENDBRANCH   1  17
TORSDOF 3
ENDMDL
MODEL 10
REMARK VINA RESULT:      -6.9      5.692      7.385
REMARK  3 active torsions:
REMARK  status: ('A' for Active; 'I' for Inactive)
REMARK    1  A    between atoms: C_2  and  N_3 
REMARK    2  A    between atoms: C_2  and  C_10 
REMARK    3  A    between atoms: C_13  and  C_14 
ROOT
HETATM    1  C   UNL     1      41.564 -14.337   4.363  1.00  0.00    -0.028 A 
HETATM    2  C   UNL     1      40.564 -13.744   5.150  1.00  0.00     0.010 A 
HETATM    3  C   UNL     1      40.775 -12.509   5.775  1.00  0.00     0.013 A 
HETATM    4  C   UNL     1      41.986 -11.818   5.635  1.00  0.00    -0.024 A 
HETATM    5  C   UNL     1      42.979 -12.407   4.836  1.00  0.00     0.013 A 
HETATM    6  C   UNL     1      42.775 -13.645   4.213  1.00  0.00     0.010 A 
ENDROOT
BRANCH   4   7
HETATM    7  C   UNL     1      42.211 -10.525   6.304  1.00  0.00    -0.006 A 
HETATM    8  C   UNL     1      41.492  -9.378   5.932  1.00  0.00     0.131 A 
HETATM    9  N   UNL     1      41.607  -8.137   6.459  1.00  0.00    -0.239 NA
HETATM   10  C   UNL     1      42.524  -8.036   7.442  1.00  0.00     0.177 A 
HETATM   11  C   UNL     1      43.287  -9.110   7.883  1.00  0.00     0.082 A 
HETATM   12  N   UNL     1      42.831  -6.895   8.129  1.00  0.00    -0.222 NA
HETATM   13  N   UNL     1      44.072  -8.579   8.873  1.00  0.00    -0.348 N 
HETATM   14  C   UNL     1      43.157 -10.387   7.333  1.00  0.00     0.047 A 
HETATM   15  H   UNL     1      44.757  -9.073   9.427  1.00  0.00     0.167 HD
HETATM   16  C   UNL     1      43.764  -7.251   8.982  1.00  0.00     0.210 A 
ENDBRANCH   4   7
BRANCH   1  17
HETATM   17  C   UNL     1      41.312 -15.692   3.727  1.00  0.00     0.217 C 
HETATM   18  C   UNL     1      40.723 -15.635   2.311  1.00  0.00     0.045 C 
BRANCH  17  19
HETATM   19  N   UNL     1      42.526 -16.632   3.722  1.00  0.00    -0.063 N 
HETATM   20  H   UNL     1      43.325 -16.035   3.479  1.00  0.00     0.280 HD
HETATM   21  C   UNL     1      42.849 -17.265   5.060  1.00  0.00     0.235 C 
HETATM   22  C   UNL     1      44.196 -17.972   4.966  1.00  0.00     0.028 C 
HETATM   23  C   UNL     1      44.212 -19.007   3.847  1.00  0.00     0.003 C 
HETATM   24  C   UNL     1      43.786 -18.392   2.518  1.00  0.00     0.028 C 
HETATM   25  C   UNL     1      42.444 -17.680   2.633  1.00  0.00     0.235 C 
ENDBRANCH  17  19
ENDBRANCH   1  17
TORSDOF 3
ENDMDL
