MODEL 1
REMARK VINA RESULT:      -9.4      0.000      0.000
REMARK  5 active torsions:
REMARK  status: ('A' for Active; 'I' for Inactive)
REMARK    1  A    between atoms: C_10  and  C_11 
REMARK    2  A    between atoms: C_13  and  O_14 
REMARK    3  A    between atoms: C_16  and  O_17 
REMARK    4  A    between atoms: O_17  and  C_18 
REMARK    5  A    between atoms: C_18  and  C_19 
ROOT
HETATM    1  C   UNL     1      44.415 -10.673   7.202  1.00  0.00    -0.013 A 
HETATM    2  C   UNL     1      43.109 -10.352   6.778  1.00  0.00     0.050 A 
HETATM    3  C   UNL     1      42.360 -11.240   6.002  1.00  0.00     0.102 A 
HETATM    4  C   UNL     1      42.911 -12.488   5.683  1.00  0.00     0.112 A 
HETATM    5  C   UNL     1      44.213 -12.816   6.056  1.00  0.00     0.041 A 
HETATM    6  C   UNL     1      44.955 -11.915   6.821  1.00  0.00     0.014 A 
ENDROOT
BRANCH   1   7
HETATM    7  C   UNL     1      45.222  -9.767   8.117  1.00  0.00     0.219 C 
HETATM    8  N   UNL     1      44.607  -8.468   8.314  1.00  0.00    -0.358 N 
HETATM    9  C   UNL     1      43.879  -8.231   9.424  1.00  0.00     0.088 A 
HETATM   10  H   UNL     1      44.447  -7.934   7.464  1.00  0.00     0.162 HD
HETATM   11  C   UNL     1      43.889  -9.057  10.522  1.00  0.00     0.073 A 
HETATM   12  S   UNL     1      42.836  -6.901   9.615  1.00  0.00    -0.074 SA
HETATM   13  C   UNL     1      43.015  -8.584  11.553  1.00  0.00    -0.023 A 
HETATM   14  C   UNL     1      44.737 -10.234  10.511  1.00  0.00     0.256 C 
HETATM   15  C   UNL     1      42.378  -7.418  11.171  1.00  0.00     0.018 A 
HETATM   16  C   UNL     1      42.755  -9.225  12.885  1.00  0.00     0.068 C 
HETATM   17  C   UNL     1      41.414  -6.655  12.013  1.00  0.00     0.281 C 
HETATM   18  N   UNL     1      40.911  -7.526  13.158  1.00  0.00    -0.070 N 
HETATM   19  C   UNL     1      40.056  -6.756  14.113  1.00  0.00     0.270 C 
HETATM   20  H   UNL     1      40.318  -8.248  12.725  1.00  0.00     0.279 HD
HETATM   21  C   UNL     1      42.056  -8.256  13.856  1.00  0.00     0.239 C 
HETATM   22  N   UNL     1      45.482 -10.411   9.381  1.00  0.00    -0.332 N 
HETATM   23  O   UNL     1      44.809 -11.004  11.462  1.00  0.00    -0.267 OA
HETATM   24  H   UNL     1      46.006 -11.274   9.364  1.00  0.00     0.165 HD
ENDBRANCH   1   7
BRANCH   3  25
HETATM   25  O   UNL     1      41.091 -11.003   5.546  1.00  0.00    -0.353 OA
HETATM   26  C   UNL     1      40.050 -10.988   6.513  1.00  0.00     0.210 C 
ENDBRANCH   3  25
BRANCH   4  27
HETATM   27  O   UNL     1      42.119 -13.369   4.927  1.00  0.00    -0.272 OA
BRANCH  27  28
HETATM   28  C   UNL     1      41.724 -14.524   5.570  1.00  0.00     0.300 C 
HETATM   29  O   UNL     1      41.178 -14.662   6.650  1.00  0.00    -0.259 OA
BRANCH  28  30
HETATM   30  C   UNL     1      42.124 -15.649   4.717  1.00  0.00     0.061 A 
HETATM   31  C   UNL     1      43.209 -16.462   5.063  1.00  0.00     0.051 A 
HETATM   32 CL   UNL     1      44.138 -16.204   6.496  1.00  0.00    -0.083 Cl
HETATM   33  C   UNL     1      43.580 -17.514   4.222  1.00  0.00     0.048 A 
HETATM   34  C   UNL     1      42.871 -17.739   3.042  1.00  0.00     0.035 A 
HETATM   35 CL   UNL     1      43.332 -19.034   2.009  1.00  0.00    -0.084 Cl
HETATM   36  C   UNL     1      41.797 -16.920   2.690  1.00  0.00     0.025 A 
HETATM   37  C   UNL     1      41.422 -15.867   3.526  1.00  0.00     0.021 A 
ENDBRANCH  28  30
ENDBRANCH  27  28
ENDBRANCH   4  27
TORSDOF 5
ENDMDL
MODEL 2
REMARK VINA RESULT:      -9.0      7.696     10.749
REMARK  5 active torsions:
REMARK  status: ('A' for Active; 'I' for Inactive)
REMARK    1  A    between atoms: C_10  and  C_11 
REMARK    2  A    between atoms: C_13  and  O_14 
REMARK    3  A    between atoms: C_16  and  O_17 
REMARK    4  A    between atoms: O_17  and  C_18 
REMARK    5  A    between atoms: C_18  and  C_19 
ROOT
HETATM    1  C   UNL     1      39.618 -14.452  -0.063  1.00  0.00    -0.013 A 
HETATM    2  C   UNL     1      39.844 -13.255   0.646  1.00  0.00     0.050 A 
HETATM    3  C   UNL     1      40.308 -13.269   1.964  1.00  0.00     0.102 A 
HETATM    4  C   UNL     1      40.593 -14.501   2.566  1.00  0.00     0.112 A 
HETATM    5  C   UNL     1      40.343 -15.701   1.902  1.00  0.00     0.041 A 
HETATM    6  C   UNL     1      39.868 -15.673   0.591  1.00  0.00     0.014 A 
ENDROOT
BRANCH   1   7
HETATM    7  C   UNL     1      39.197 -14.469  -1.523  1.00  0.00     0.219 C 
HETATM    8  N   UNL     1      38.043 -13.633  -1.789  1.00  0.00    -0.358 N 
HETATM    9  C   UNL     1      38.213 -12.394  -2.294  1.00  0.00     0.088 A 
HETATM   10  H   UNL     1      37.210 -13.866  -1.257  1.00  0.00     0.162 HD
HETATM   11  C   UNL     1      39.403 -11.953  -2.824  1.00  0.00     0.073 A 
HETATM   12  S   UNL     1      37.002 -11.201  -2.328  1.00  0.00    -0.074 SA
HETATM   13  C   UNL     1      39.317 -10.596  -3.272  1.00  0.00    -0.023 A 
HETATM   14  C   UNL     1      40.533 -12.862  -2.870  1.00  0.00     0.256 C 
HETATM   15  C   UNL     1      38.056 -10.075  -3.046  1.00  0.00     0.018 A 
HETATM   16  C   UNL     1      40.410  -9.776  -3.890  1.00  0.00     0.068 C 
HETATM   17  C   UNL     1      37.625  -8.695  -3.406  1.00  0.00     0.281 C 
HETATM   18  N   UNL     1      38.840  -7.814  -3.667  1.00  0.00    -0.070 N 
HETATM   19  C   UNL     1      38.453  -6.462  -4.176  1.00  0.00     0.270 C 
HETATM   20  H   UNL     1      39.295  -7.682  -2.753  1.00  0.00     0.279 HD
HETATM   21  C   UNL     1      39.857  -8.510  -4.569  1.00  0.00     0.239 C 
HETATM   22  N   UNL     1      40.300 -14.115  -2.381  1.00  0.00    -0.332 N 
HETATM   23  O   UNL     1      41.617 -12.542  -3.345  1.00  0.00    -0.267 OA
HETATM   24  H   UNL     1      41.119 -14.705  -2.355  1.00  0.00     0.165 HD
ENDBRANCH   1   7
BRANCH   3  25
HETATM   25  O   UNL     1      40.546 -12.154   2.722  1.00  0.00    -0.353 OA
HETATM   26  C   UNL     1      41.386 -11.157   2.157  1.00  0.00     0.210 C 
ENDBRANCH   3  25
BRANCH   4  27
HETATM   27  O   UNL     1      41.087 -14.479   3.881  1.00  0.00    -0.272 OA
BRANCH  27  28
HETATM   28  C   UNL     1      42.460 -14.463   4.007  1.00  0.00     0.300 C 
HETATM   29  O   UNL     1      43.242 -13.540   3.855  1.00  0.00    -0.259 OA
BRANCH  28  30
HETATM   30  C   UNL     1      42.878 -15.830   4.337  1.00  0.00     0.061 A 
HETATM   31  C   UNL     1      43.424 -16.669   3.360  1.00  0.00     0.051 A 
HETATM   32 CL   UNL     1      43.641 -16.163   1.723  1.00  0.00    -0.083 Cl
HETATM   33  C   UNL     1      43.795 -17.973   3.697  1.00  0.00     0.048 A 
HETATM   34  C   UNL     1      43.610 -18.428   5.002  1.00  0.00     0.035 A 
HETATM   35 CL   UNL     1      44.067 -20.034   5.413  1.00  0.00    -0.084 Cl
HETATM   36  C   UNL     1      43.054 -17.596   5.975  1.00  0.00     0.025 A 
HETATM   37  C   UNL     1      42.681 -16.292   5.644  1.00  0.00     0.021 A 
ENDBRANCH  28  30
ENDBRANCH  27  28
ENDBRANCH   4  27
TORSDOF 5
ENDMDL
MODEL 3
REMARK VINA RESULT:      -8.9      1.453      1.865
REMARK  5 active torsions:
REMARK  status: ('A' for Active; 'I' for Inactive)
REMARK    1  A    between atoms: C_10  and  C_11 
REMARK    2  A    between atoms: C_13  and  O_14 
REMARK    3  A    between atoms: C_16  and  O_17 
REMARK    4  A    between atoms: O_17  and  C_18 
REMARK    5  A    between atoms: C_18  and  C_19 
ROOT
HETATM    1  C   UNL     1      43.977 -10.936   7.231  1.00  0.00    -0.013 A 
HETATM    2  C   UNL     1      42.693 -10.844   6.658  1.00  0.00     0.050 A 
HETATM    3  C   UNL     1      42.162 -11.888   5.896  1.00  0.00     0.102 A 
HETATM    4  C   UNL     1      42.912 -13.061   5.745  1.00  0.00     0.112 A 
HETATM    5  C   UNL     1      44.200 -13.165   6.268  1.00  0.00     0.041 A 
HETATM    6  C   UNL     1      44.723 -12.110   7.016  1.00  0.00     0.014 A 
ENDROOT
BRANCH   1   7
HETATM    7  C   UNL     1      44.547  -9.855   8.135  1.00  0.00     0.219 C 
HETATM    8  N   UNL     1      43.729  -8.658   8.172  1.00  0.00    -0.358 N 
HETATM    9  C   UNL     1      42.869  -8.463   9.193  1.00  0.00     0.088 A 
HETATM   10  H   UNL     1      43.573  -8.215   7.271  1.00  0.00     0.162 HD
HETATM   11  C   UNL     1      42.897  -9.201  10.352  1.00  0.00     0.073 A 
HETATM   12  S   UNL     1      41.625  -7.303   9.186  1.00  0.00    -0.074 SA
HETATM   13  C   UNL     1      41.866  -8.802  11.263  1.00  0.00    -0.023 A 
HETATM   14  C   UNL     1      43.909 -10.229  10.509  1.00  0.00     0.256 C 
HETATM   15  C   UNL     1      41.101  -7.779  10.733  1.00  0.00     0.018 A 
HETATM   16  C   UNL     1      41.578  -9.384  12.615  1.00  0.00     0.068 C 
HETATM   17  C   UNL     1      39.957  -7.122  11.425  1.00  0.00     0.281 C 
HETATM   18  N   UNL     1      39.482  -7.981  12.591  1.00  0.00    -0.070 N 
HETATM   19  C   UNL     1      38.433  -7.291  13.404  1.00  0.00     0.270 C 
HETATM   20  H   UNL     1      39.049  -8.814  12.170  1.00  0.00     0.279 HD
HETATM   21  C   UNL     1      40.651  -8.474  13.441  1.00  0.00     0.239 C 
HETATM   22  N   UNL     1      44.777 -10.363   9.464  1.00  0.00    -0.332 N 
HETATM   23  O   UNL     1      44.003 -10.912  11.523  1.00  0.00    -0.267 OA
HETATM   24  H   UNL     1      45.424 -11.132   9.563  1.00  0.00     0.165 HD
ENDBRANCH   1   7
BRANCH   3  25
HETATM   25  O   UNL     1      40.929 -11.876   5.302  1.00  0.00    -0.353 OA
HETATM   26  C   UNL     1      39.815 -11.583   6.133  1.00  0.00     0.210 C 
ENDBRANCH   3  25
BRANCH   4  27
HETATM   27  O   UNL     1      42.337 -14.104   4.998  1.00  0.00    -0.272 OA
BRANCH  27  28
HETATM   28  C   UNL     1      42.833 -14.275   3.723  1.00  0.00     0.300 C 
HETATM   29  O   UNL     1      43.032 -13.448   2.851  1.00  0.00    -0.259 OA
BRANCH  28  30
HETATM   30  C   UNL     1      43.065 -15.712   3.541  1.00  0.00     0.061 A 
HETATM   31  C   UNL     1      42.600 -16.377   2.401  1.00  0.00     0.051 A 
HETATM   32 CL   UNL     1      41.732 -15.564   1.148  1.00  0.00    -0.083 Cl
HETATM   33  C   UNL     1      42.818 -17.749   2.263  1.00  0.00     0.048 A 
HETATM   34  C   UNL     1      43.491 -18.446   3.266  1.00  0.00     0.035 A 
HETATM   35 CL   UNL     1      43.758 -20.136   3.093  1.00  0.00    -0.084 Cl
HETATM   36  C   UNL     1      43.945 -17.787   4.410  1.00  0.00     0.025 A 
HETATM   37  C   UNL     1      43.729 -16.415   4.554  1.00  0.00     0.021 A 
ENDBRANCH  28  30
ENDBRANCH  27  28
ENDBRANCH   4  27
TORSDOF 5
ENDMDL
MODEL 4
REMARK VINA RESULT:      -8.8      6.252      8.943
REMARK  5 active torsions:
REMARK  status: ('A' for Active; 'I' for Inactive)
REMARK    1  A    between atoms: C_10  and  C_11 
REMARK    2  A    between atoms: C_13  and  O_14 
REMARK    3  A    between atoms: C_16  and  O_17 
REMARK    4  A    between atoms: O_17  and  C_18 
REMARK    5  A    between atoms: C_18  and  C_19 
ROOT
HETATM    1  C   UNL     1      39.446 -13.155   0.988  1.00  0.00    -0.013 A 
HETATM    2  C   UNL     1      39.375 -12.743   2.334  1.00  0.00     0.050 A 
HETATM    3  C   UNL     1      39.913 -13.524   3.360  1.00  0.00     0.102 A 
HETATM    4  C   UNL     1      40.572 -14.714   3.028  1.00  0.00     0.112 A 
HETATM    5  C   UNL     1      40.623 -15.165   1.710  1.00  0.00     0.041 A 
HETATM    6  C   UNL     1      40.071 -14.381   0.696  1.00  0.00     0.014 A 
ENDROOT
BRANCH   1   7
HETATM    7  C   UNL     1      38.948 -12.289  -0.159  1.00  0.00     0.219 C 
HETATM    8  N   UNL     1      38.660 -10.927   0.245  1.00  0.00    -0.358 N 
HETATM    9  C   UNL     1      39.568  -9.954   0.024  1.00  0.00     0.088 A 
HETATM   10  H   UNL     1      37.970 -10.833   0.985  1.00  0.00     0.162 HD
HETATM   11  C   UNL     1      40.656 -10.113  -0.801  1.00  0.00     0.073 A 
HETATM   12  S   UNL     1      39.512  -8.414   0.742  1.00  0.00    -0.074 SA
HETATM   13  C   UNL     1      41.468  -8.935  -0.845  1.00  0.00    -0.023 A 
HETATM   14  C   UNL     1      40.838 -11.376  -1.492  1.00  0.00     0.256 C 
HETATM   15  C   UNL     1      40.949  -7.941  -0.036  1.00  0.00     0.018 A 
HETATM   16  C   UNL     1      42.737  -8.738  -1.622  1.00  0.00     0.068 C 
HETATM   17  C   UNL     1      41.540  -6.584   0.136  1.00  0.00     0.281 C 
HETATM   18  N   UNL     1      42.983  -6.571  -0.354  1.00  0.00    -0.070 N 
HETATM   19  C   UNL     1      43.568  -5.195  -0.338  1.00  0.00     0.270 C 
HETATM   20  H   UNL     1      43.515  -7.141   0.318  1.00  0.00     0.279 HD
HETATM   21  C   UNL     1      43.122  -7.251  -1.715  1.00  0.00     0.239 C 
HETATM   22  N   UNL     1      39.874 -12.315  -1.263  1.00  0.00    -0.332 N 
HETATM   23  O   UNL     1      41.775 -11.581  -2.255  1.00  0.00    -0.267 OA
HETATM   24  H   UNL     1      40.060 -13.209  -1.694  1.00  0.00     0.165 HD
ENDBRANCH   1   7
BRANCH   3  25
HETATM   25  O   UNL     1      39.881 -13.199   4.690  1.00  0.00    -0.353 OA
HETATM   26  C   UNL     1      40.622 -12.055   5.092  1.00  0.00     0.210 C 
ENDBRANCH   3  25
BRANCH   4  27
HETATM   27  O   UNL     1      41.128 -15.460   4.081  1.00  0.00    -0.272 OA
BRANCH  27  28
HETATM   28  C   UNL     1      42.493 -15.344   4.244  1.00  0.00     0.300 C 
HETATM   29  O   UNL     1      43.199 -14.353   4.184  1.00  0.00    -0.259 OA
BRANCH  28  30
HETATM   30  C   UNL     1      43.014 -16.695   4.479  1.00  0.00     0.061 A 
HETATM   31  C   UNL     1      43.490 -17.475   3.419  1.00  0.00     0.051 A 
HETATM   32 CL   UNL     1      43.497 -16.910   1.787  1.00  0.00    -0.083 Cl
HETATM   33  C   UNL     1      43.963 -18.765   3.667  1.00  0.00     0.048 A 
HETATM   34  C   UNL     1      43.949 -19.267   4.968  1.00  0.00     0.035 A 
HETATM   35 CL   UNL     1      44.531 -20.857   5.271  1.00  0.00    -0.084 Cl
HETATM   36  C   UNL     1      43.463 -18.496   6.025  1.00  0.00     0.025 A 
HETATM   37  C   UNL     1      42.988 -17.205   5.782  1.00  0.00     0.021 A 
ENDBRANCH  28  30
ENDBRANCH  27  28
ENDBRANCH   4  27
TORSDOF 5
ENDMDL
MODEL 5
REMARK VINA RESULT:      -8.7      2.320      3.210
REMARK  5 active torsions:
REMARK  status: ('A' for Active; 'I' for Inactive)
REMARK    1  A    between atoms: C_10  and  C_11 
REMARK    2  A    between atoms: C_13  and  O_14 
REMARK    3  A    between atoms: C_16  and  O_17 
REMARK    4  A    between atoms: O_17  and  C_18 
REMARK    5  A    between atoms: C_18  and  C_19 
ROOT
HETATM    1  C   UNL     1      41.282 -10.866   6.147  1.00  0.00    -0.013 A 
HETATM    2  C   UNL     1      42.617 -11.176   6.480  1.00  0.00     0.050 A 
HETATM    3  C   UNL     1      43.206 -12.375   6.071  1.00  0.00     0.102 A 
HETATM    4  C   UNL     1      42.461 -13.258   5.279  1.00  0.00     0.112 A 
HETATM    5  C   UNL     1      41.128 -12.995   4.968  1.00  0.00     0.041 A 
HETATM    6  C   UNL     1      40.548 -11.799   5.392  1.00  0.00     0.014 A 
ENDROOT
BRANCH   1   7
HETATM    7  C   UNL     1      40.640  -9.535   6.502  1.00  0.00     0.219 C 
HETATM    8  N   UNL     1      39.768  -9.617   7.657  1.00  0.00    -0.358 N 
HETATM    9  C   UNL     1      40.220  -9.238   8.870  1.00  0.00     0.088 A 
HETATM   10  H   UNL     1      39.004 -10.281   7.573  1.00  0.00     0.162 HD
HETATM   11  C   UNL     1      41.382  -8.526   9.051  1.00  0.00     0.073 A 
HETATM   12  S   UNL     1      39.441  -9.600  10.337  1.00  0.00    -0.074 SA
HETATM   13  C   UNL     1      41.640  -8.270  10.436  1.00  0.00    -0.023 A 
HETATM   14  C   UNL     1      42.159  -8.137   7.889  1.00  0.00     0.256 C 
HETATM   15  C   UNL     1      40.653  -8.815  11.236  1.00  0.00     0.018 A 
HETATM   16  C   UNL     1      42.813  -7.537  11.018  1.00  0.00     0.068 C 
HETATM   17  C   UNL     1      40.608  -8.718  12.722  1.00  0.00     0.281 C 
HETATM   18  N   UNL     1      41.973  -8.315  13.266  1.00  0.00    -0.070 N 
HETATM   19  C   UNL     1      41.937  -8.062  14.739  1.00  0.00     0.270 C 
HETATM   20  H   UNL     1      42.591  -9.122  13.106  1.00  0.00     0.279 HD
HETATM   21  C   UNL     1      42.566  -7.144  12.486  1.00  0.00     0.239 C 
HETATM   22  N   UNL     1      41.641  -8.512   6.683  1.00  0.00    -0.332 N 
HETATM   23  O   UNL     1      43.195  -7.487   7.975  1.00  0.00    -0.267 OA
HETATM   24  H   UNL     1      42.234  -8.297   5.895  1.00  0.00     0.165 HD
ENDBRANCH   1   7
BRANCH   3  25
HETATM   25  O   UNL     1      44.491 -12.753   6.357  1.00  0.00    -0.353 OA
HETATM   26  C   UNL     1      45.409 -11.720   6.688  1.00  0.00     0.210 C 
ENDBRANCH   3  25
BRANCH   4  27
HETATM   27  O   UNL     1      43.094 -14.440   4.860  1.00  0.00    -0.272 OA
BRANCH  27  28
HETATM   28  C   UNL     1      42.632 -15.606   5.435  1.00  0.00     0.300 C 
HETATM   29  O   UNL     1      42.087 -15.775   6.511  1.00  0.00    -0.259 OA
BRANCH  28  30
HETATM   30  C   UNL     1      42.954 -16.699   4.511  1.00  0.00     0.061 A 
HETATM   31  C   UNL     1      42.178 -16.923   3.368  1.00  0.00     0.051 A 
HETATM   32 CL   UNL     1      40.810 -15.945   2.973  1.00  0.00    -0.083 Cl
HETATM   33  C   UNL     1      42.494 -17.983   2.514  1.00  0.00     0.048 A 
HETATM   34  C   UNL     1      43.575 -18.811   2.814  1.00  0.00     0.035 A 
HETATM   35 CL   UNL     1      43.962 -20.115   1.761  1.00  0.00    -0.084 Cl
HETATM   36  C   UNL     1      44.342 -18.596   3.960  1.00  0.00     0.025 A 
HETATM   37  C   UNL     1      44.030 -17.539   4.817  1.00  0.00     0.021 A 
ENDBRANCH  28  30
ENDBRANCH  27  28
ENDBRANCH   4  27
TORSDOF 5
ENDMDL
MODEL 6
REMARK VINA RESULT:      -8.7      4.050      9.729
REMARK  5 active torsions:
REMARK  status: ('A' for Active; 'I' for Inactive)
REMARK    1  A    between atoms: C_10  and  C_11 
REMARK    2  A    between atoms: C_13  and  O_14 
REMARK    3  A    between atoms: C_16  and  O_17 
REMARK    4  A    between atoms: O_17  and  C_18 
REMARK    5  A    between atoms: C_18  and  C_19 
ROOT
HETATM    1  C   UNL     1      41.885  -9.719   6.952  1.00  0.00    -0.013 A 
HETATM    2  C   UNL     1      43.097 -10.381   7.235  1.00  0.00     0.050 A 
HETATM    3  C   UNL     1      43.777 -10.167   8.437  1.00  0.00     0.102 A 
HETATM    4  C   UNL     1      43.210  -9.310   9.389  1.00  0.00     0.112 A 
HETATM    5  C   UNL     1      42.033  -8.613   9.120  1.00  0.00     0.041 A 
HETATM    6  C   UNL     1      41.370  -8.827   7.911  1.00  0.00     0.014 A 
ENDROOT
BRANCH   1   7
HETATM    7  C   UNL     1      41.078  -9.996   5.694  1.00  0.00     0.219 C 
HETATM    8  N   UNL     1      41.901 -10.405   4.572  1.00  0.00    -0.358 N 
HETATM    9  C   UNL     1      42.022 -11.714   4.270  1.00  0.00     0.088 A 
HETATM   10  H   UNL     1      42.621  -9.742   4.301  1.00  0.00     0.162 HD
HETATM   11  C   UNL     1      41.206 -12.687   4.796  1.00  0.00     0.073 A 
HETATM   12  S   UNL     1      43.204 -12.348   3.224  1.00  0.00    -0.074 SA
HETATM   13  C   UNL     1      41.560 -13.992   4.326  1.00  0.00    -0.023 A 
HETATM   14  C   UNL     1      40.143 -12.300   5.705  1.00  0.00     0.256 C 
HETATM   15  C   UNL     1      42.643 -13.936   3.467  1.00  0.00     0.018 A 
HETATM   16  C   UNL     1      40.908 -15.294   4.689  1.00  0.00     0.068 C 
HETATM   17  C   UNL     1      43.257 -15.111   2.788  1.00  0.00     0.281 C 
HETATM   18  N   UNL     1      42.818 -16.402   3.469  1.00  0.00    -0.070 N 
HETATM   19  C   UNL     1      43.291 -17.614   2.731  1.00  0.00     0.270 C 
HETATM   20  H   UNL     1      43.274 -16.404   4.391  1.00  0.00     0.279 HD
HETATM   21  C   UNL     1      41.312 -16.421   3.722  1.00  0.00     0.239 C 
HETATM   22  N   UNL     1      40.038 -10.961   5.950  1.00  0.00    -0.332 N 
HETATM   23  O   UNL     1      39.367 -13.112   6.196  1.00  0.00    -0.267 OA
HETATM   24  H   UNL     1      39.342 -10.723   6.641  1.00  0.00     0.165 HD
ENDBRANCH   1   7
BRANCH   3  25
HETATM   25  O   UNL     1      44.959 -10.764   8.785  1.00  0.00    -0.353 OA
HETATM   26  C   UNL     1      45.961 -10.844   7.781  1.00  0.00     0.210 C 
ENDBRANCH   3  25
BRANCH   4  27
HETATM   27  O   UNL     1      43.904  -9.140  10.599  1.00  0.00    -0.272 OA
BRANCH  27  28
HETATM   28  C   UNL     1      43.416  -9.851  11.676  1.00  0.00     0.300 C 
HETATM   29  O   UNL     1      43.478 -11.045  11.908  1.00  0.00    -0.259 OA
BRANCH  28  30
HETATM   30  C   UNL     1      42.727  -8.892  12.547  1.00  0.00     0.061 A 
HETATM   31  C   UNL     1      41.337  -8.935  12.703  1.00  0.00     0.051 A 
HETATM   32 CL   UNL     1      40.352 -10.100  11.895  1.00  0.00    -0.083 Cl
HETATM   33  C   UNL     1      40.704  -7.998  13.523  1.00  0.00     0.048 A 
HETATM   34  C   UNL     1      41.463  -7.024  14.172  1.00  0.00     0.035 A 
HETATM   35 CL   UNL     1      40.681  -5.871  15.181  1.00  0.00    -0.084 Cl
HETATM   36  C   UNL     1      42.848  -6.972  14.007  1.00  0.00     0.025 A 
HETATM   37  C   UNL     1      43.486  -7.906  13.188  1.00  0.00     0.021 A 
ENDBRANCH  28  30
ENDBRANCH  27  28
ENDBRANCH   4  27
TORSDOF 5
ENDMDL
MODEL 7
REMARK VINA RESULT:      -8.7      6.650      9.387
REMARK  5 active torsions:
REMARK  status: ('A' for Active; 'I' for Inactive)
REMARK    1  A    between atoms: C_10  and  C_11 
REMARK    2  A    between atoms: C_13  and  O_14 
REMARK    3  A    between atoms: C_16  and  O_17 
REMARK    4  A    between atoms: O_17  and  C_18 
REMARK    5  A    between atoms: C_18  and  C_19 
ROOT
HETATM    1  C   UNL     1      39.253 -12.540   0.255  1.00  0.00    -0.013 A 
HETATM    2  C   UNL     1      39.447 -12.430   1.647  1.00  0.00     0.050 A 
HETATM    3  C   UNL     1      40.085 -13.441   2.371  1.00  0.00     0.102 A 
HETATM    4  C   UNL     1      40.575 -14.558   1.683  1.00  0.00     0.112 A 
HETATM    5  C   UNL     1      40.363 -14.710   0.314  1.00  0.00     0.041 A 
HETATM    6  C   UNL     1      39.715 -13.699  -0.396  1.00  0.00     0.014 A 
ENDROOT
BRANCH   1   7
HETATM    7  C   UNL     1      38.642 -11.422  -0.575  1.00  0.00     0.219 C 
HETATM    8  N   UNL     1      38.696 -10.132   0.086  1.00  0.00    -0.358 N 
HETATM    9  C   UNL     1      39.672  -9.256  -0.229  1.00  0.00     0.088 A 
HETATM   10  H   UNL     1      38.236 -10.092   0.991  1.00  0.00     0.162 HD
HETATM   11  C   UNL     1      40.481  -9.395  -1.331  1.00  0.00     0.073 A 
HETATM   12  S   UNL     1      40.055  -7.881   0.694  1.00  0.00    -0.074 SA
HETATM   13  C   UNL     1      41.444  -8.339  -1.422  1.00  0.00    -0.023 A 
HETATM   14  C   UNL     1      40.272 -10.521  -2.222  1.00  0.00     0.256 C 
HETATM   15  C   UNL     1      41.316  -7.455  -0.367  1.00  0.00     0.018 A 
HETATM   16  C   UNL     1      42.497  -8.162  -2.476  1.00  0.00     0.068 C 
HETATM   17  C   UNL     1      42.151  -6.237  -0.166  1.00  0.00     0.281 C 
HETATM   18  N   UNL     1      43.410  -6.314  -1.021  1.00  0.00    -0.070 N 
HETATM   19  C   UNL     1      44.204  -5.049  -0.964  1.00  0.00     0.270 C 
HETATM   20  H   UNL     1      43.987  -7.060  -0.609  1.00  0.00     0.279 HD
HETATM   21  C   UNL     1      43.093  -6.743  -2.453  1.00  0.00     0.239 C 
HETATM   22  N   UNL     1      39.249 -11.358  -1.881  1.00  0.00    -0.332 N 
HETATM   23  O   UNL     1      40.944 -10.696  -3.232  1.00  0.00    -0.267 OA
HETATM   24  H   UNL     1      39.170 -12.174  -2.471  1.00  0.00     0.165 HD
ENDBRANCH   1   7
BRANCH   3  25
HETATM   25  O   UNL     1      40.307 -13.414   3.722  1.00  0.00    -0.353 OA
HETATM   26  C   UNL     1      41.164 -12.394   4.215  1.00  0.00     0.210 C 
ENDBRANCH   3  25
BRANCH   4  27
HETATM   27  O   UNL     1      41.238 -15.541   2.438  1.00  0.00    -0.272 OA
BRANCH  27  28
HETATM   28  C   UNL     1      42.614 -15.543   2.345  1.00  0.00     0.300 C 
HETATM   29  O   UNL     1      43.355 -14.750   1.792  1.00  0.00    -0.259 OA
BRANCH  28  30
HETATM   30  C   UNL     1      43.089 -16.751   3.029  1.00  0.00     0.061 A 
HETATM   31  C   UNL     1      43.448 -16.716   4.381  1.00  0.00     0.051 A 
HETATM   32 CL   UNL     1      43.359 -15.272   5.324  1.00  0.00    -0.083 Cl
HETATM   33  C   UNL     1      43.916 -17.876   5.003  1.00  0.00     0.048 A 
HETATM   34  C   UNL     1      44.028 -19.056   4.268  1.00  0.00     0.035 A 
HETATM   35 CL   UNL     1      44.605 -20.483   5.036  1.00  0.00    -0.084 Cl
HETATM   36  C   UNL     1      43.682 -19.089   2.916  1.00  0.00     0.025 A 
HETATM   37  C   UNL     1      43.214 -17.932   2.289  1.00  0.00     0.021 A 
ENDBRANCH  28  30
ENDBRANCH  27  28
ENDBRANCH   4  27
TORSDOF 5
ENDMDL
MODEL 8
REMARK VINA RESULT:      -8.5      2.288      3.008
REMARK  5 active torsions:
REMARK  status: ('A' for Active; 'I' for Inactive)
REMARK    1  A    between atoms: C_10  and  C_11 
REMARK    2  A    between atoms: C_13  and  O_14 
REMARK    3  A    between atoms: C_16  and  O_17 
REMARK    4  A    between atoms: O_17  and  C_18 
REMARK    5  A    between atoms: C_18  and  C_19 
ROOT
HETATM    1  C   UNL     1      43.887 -11.228   7.000  1.00  0.00    -0.013 A 
HETATM    2  C   UNL     1      44.066 -12.602   7.260  1.00  0.00     0.050 A 
HETATM    3  C   UNL     1      43.591 -13.574   6.375  1.00  0.00     0.102 A 
HETATM    4  C   UNL     1      42.967 -13.162   5.190  1.00  0.00     0.112 A 
HETATM    5  C   UNL     1      42.743 -11.812   4.927  1.00  0.00     0.041 A 
HETATM    6  C   UNL     1      43.212 -10.851   5.824  1.00  0.00     0.014 A 
ENDROOT
BRANCH   1   7
HETATM    7  C   UNL     1      44.466 -10.145   7.897  1.00  0.00     0.219 C 
HETATM    8  N   UNL     1      43.668  -8.935   7.911  1.00  0.00    -0.358 N 
HETATM    9  C   UNL     1      42.802  -8.712   8.920  1.00  0.00     0.088 A 
HETATM   10  H   UNL     1      43.529  -8.500   7.003  1.00  0.00     0.162 HD
HETATM   11  C   UNL     1      42.805  -9.437  10.088  1.00  0.00     0.073 A 
HETATM   12  S   UNL     1      41.578  -7.532   8.886  1.00  0.00    -0.074 SA
HETATM   13  C   UNL     1      41.772  -9.009  10.984  1.00  0.00    -0.023 A 
HETATM   14  C   UNL     1      43.798 -10.480  10.269  1.00  0.00     0.256 C 
HETATM   15  C   UNL     1      41.031  -7.980  10.434  1.00  0.00     0.018 A 
HETATM   16  C   UNL     1      41.461  -9.570  12.340  1.00  0.00     0.068 C 
HETATM   17  C   UNL     1      39.891  -7.295  11.106  1.00  0.00     0.281 C 
HETATM   18  N   UNL     1      39.389  -8.132  12.277  1.00  0.00    -0.070 N 
HETATM   19  C   UNL     1      38.344  -7.414  13.071  1.00  0.00     0.270 C 
HETATM   20  H   UNL     1      38.947  -8.962  11.862  1.00  0.00     0.279 HD
HETATM   21  C   UNL     1      40.542  -8.634  13.145  1.00  0.00     0.239 C 
HETATM   22  N   UNL     1      44.674 -10.641   9.234  1.00  0.00    -0.332 N 
HETATM   23  O   UNL     1      43.870 -11.151  11.291  1.00  0.00    -0.267 OA
HETATM   24  H   UNL     1      45.307 -11.420   9.349  1.00  0.00     0.165 HD
ENDBRANCH   1   7
BRANCH   3  25
HETATM   25  O   UNL     1      43.718 -14.925   6.556  1.00  0.00    -0.353 OA
HETATM   26  C   UNL     1      42.991 -15.504   7.631  1.00  0.00     0.210 C 
ENDBRANCH   3  25
BRANCH   4  27
HETATM   27  O   UNL     1      42.529 -14.165   4.309  1.00  0.00    -0.272 OA
BRANCH  27  28
HETATM   28  C   UNL     1      41.173 -14.416   4.310  1.00  0.00     0.300 C 
HETATM   29  O   UNL     1      40.443 -14.724   5.235  1.00  0.00    -0.259 OA
BRANCH  28  30
HETATM   30  C   UNL     1      40.711 -14.287   2.923  1.00  0.00     0.061 A 
HETATM   31  C   UNL     1      40.870 -15.338   2.013  1.00  0.00     0.051 A 
HETATM   32 CL   UNL     1      41.609 -16.836   2.451  1.00  0.00    -0.083 Cl
HETATM   33  C   UNL     1      40.438 -15.181   0.694  1.00  0.00     0.048 A 
HETATM   34  C   UNL     1      39.860 -13.976   0.295  1.00  0.00     0.035 A 
HETATM   35 CL   UNL     1      39.331 -13.786  -1.330  1.00  0.00    -0.084 Cl
HETATM   36  C   UNL     1      39.713 -12.923   1.199  1.00  0.00     0.025 A 
HETATM   37  C   UNL     1      40.143 -13.073   2.519  1.00  0.00     0.021 A 
ENDBRANCH  28  30
ENDBRANCH  27  28
ENDBRANCH   4  27
TORSDOF 5
ENDMDL
MODEL 9
REMARK VINA RESULT:      -8.3      6.880     10.746
REMARK  5 active torsions:
REMARK  status: ('A' for Active; 'I' for Inactive)
REMARK    1  A    between atoms: C_10  and  C_11 
REMARK    2  A    between atoms: C_13  and  O_14 
REMARK    3  A    between atoms: C_16  and  O_17 
REMARK    4  A    between atoms: O_17  and  C_18 
REMARK    5  A    between atoms: C_18  and  C_19 
ROOT
HETATM    1  C   UNL     1      40.158 -14.535   0.227  1.00  0.00    -0.013 A 
HETATM    2  C   UNL     1      41.071 -13.541   0.635  1.00  0.00     0.050 A 
HETATM    3  C   UNL     1      41.812 -13.677   1.812  1.00  0.00     0.102 A 
HETATM    4  C   UNL     1      41.668 -14.847   2.569  1.00  0.00     0.112 A 
HETATM    5  C   UNL     1      40.745 -15.828   2.210  1.00  0.00     0.041 A 
HETATM    6  C   UNL     1      40.004 -15.675   1.038  1.00  0.00     0.014 A 
ENDROOT
BRANCH   1   7
HETATM    7  C   UNL     1      39.402 -14.459  -1.090  1.00  0.00     0.219 C 
HETATM    8  N   UNL     1      38.324 -13.490  -1.068  1.00  0.00    -0.358 N 
HETATM    9  C   UNL     1      38.512 -12.262  -1.594  1.00  0.00     0.088 A 
HETATM   10  H   UNL     1      37.620 -13.644  -0.351  1.00  0.00     0.162 HD
HETATM   11  C   UNL     1      39.584 -11.942  -2.392  1.00  0.00     0.073 A 
HETATM   12  S   UNL     1      37.475 -10.941  -1.331  1.00  0.00    -0.074 SA
HETATM   13  C   UNL     1      39.553 -10.570  -2.801  1.00  0.00    -0.023 A 
HETATM   14  C   UNL     1      40.557 -12.970  -2.712  1.00  0.00     0.256 C 
HETATM   15  C   UNL     1      38.452  -9.918  -2.277  1.00  0.00     0.018 A 
HETATM   16  C   UNL     1      40.556  -9.858  -3.661  1.00  0.00     0.068 C 
HETATM   17  C   UNL     1      38.111  -8.488  -2.518  1.00  0.00     0.281 C 
HETATM   18  N   UNL     1      39.324  -7.741  -3.060  1.00  0.00    -0.070 N 
HETATM   19  C   UNL     1      38.987  -6.338  -3.455  1.00  0.00     0.270 C 
HETATM   20  H   UNL     1      39.996  -7.690  -2.282  1.00  0.00     0.279 HD
HETATM   21  C   UNL     1      40.008  -8.518  -4.183  1.00  0.00     0.239 C 
HETATM   22  N   UNL     1      40.303 -14.204  -2.186  1.00  0.00    -0.332 N 
HETATM   23  O   UNL     1      41.526 -12.759  -3.432  1.00  0.00    -0.267 OA
HETATM   24  H   UNL     1      41.030 -14.883  -2.359  1.00  0.00     0.165 HD
ENDBRANCH   1   7
BRANCH   3  25
HETATM   25  O   UNL     1      42.712 -12.758   2.280  1.00  0.00    -0.353 OA
HETATM   26  C   UNL     1      42.295 -11.400   2.305  1.00  0.00     0.210 C 
ENDBRANCH   3  25
BRANCH   4  27
HETATM   27  O   UNL     1      42.451 -14.964   3.730  1.00  0.00    -0.272 OA
BRANCH  27  28
HETATM   28  C   UNL     1      41.765 -14.906   4.926  1.00  0.00     0.300 C 
HETATM   29  O   UNL     1      40.960 -15.691   5.396  1.00  0.00    -0.259 OA
BRANCH  28  30
HETATM   30  C   UNL     1      42.144 -13.649   5.579  1.00  0.00     0.061 A 
HETATM   31  C   UNL     1      41.293 -12.539   5.548  1.00  0.00     0.051 A 
HETATM   32 CL   UNL     1      39.760 -12.572   4.753  1.00  0.00    -0.083 Cl
HETATM   33  C   UNL     1      41.687 -11.347   6.161  1.00  0.00     0.048 A 
HETATM   34  C   UNL     1      42.929 -11.273   6.791  1.00  0.00     0.035 A 
HETATM   35 CL   UNL     1      43.412  -9.805   7.544  1.00  0.00    -0.084 Cl
HETATM   36  C   UNL     1      43.785 -12.375   6.811  1.00  0.00     0.025 A 
HETATM   37  C   UNL     1      43.396 -13.569   6.199  1.00  0.00     0.021 A 
ENDBRANCH  28  30
ENDBRANCH  27  28
ENDBRANCH   4  27
TORSDOF 5
ENDMDL
MODEL 10
REMARK VINA RESULT:      -8.2      2.127      2.551
REMARK  5 active torsions:
REMARK  status: ('A' for Active; 'I' for Inactive)
REMARK    1  A    between atoms: C_10  and  C_11 
REMARK    2  A    between atoms: C_13  and  O_14 
REMARK    3  A    between atoms: C_16  and  O_17 
REMARK    4  A    between atoms: O_17  and  C_18 
REMARK    5  A    between atoms: C_18  and  C_19 
ROOT
HETATM    1  C   UNL     1      44.448 -10.317   7.822  1.00  0.00    -0.013 A 
HETATM    2  C   UNL     1      43.260  -9.877   7.205  1.00  0.00     0.050 A 
HETATM    3  C   UNL     1      42.679 -10.595   6.156  1.00  0.00     0.102 A 
HETATM    4  C   UNL     1      43.273 -11.797   5.751  1.00  0.00     0.112 A 
HETATM    5  C   UNL     1      44.468 -12.236   6.318  1.00  0.00     0.041 A 
HETATM    6  C   UNL     1      45.044 -11.503   7.356  1.00  0.00     0.014 A 
ENDROOT
BRANCH   1   7
HETATM    7  C   UNL     1      45.057  -9.606   9.020  1.00  0.00     0.219 C 
HETATM    8  N   UNL     1      44.511  -8.280   9.229  1.00  0.00    -0.358 N 
HETATM    9  C   UNL     1      43.541  -8.089  10.147  1.00  0.00     0.088 A 
HETATM   10  H   UNL     1      44.614  -7.642   8.444  1.00  0.00     0.162 HD
HETATM   11  C   UNL     1      43.207  -9.027  11.095  1.00  0.00     0.073 A 
HETATM   12  S   UNL     1      42.586  -6.686  10.250  1.00  0.00    -0.074 SA
HETATM   13  C   UNL     1      42.135  -8.580  11.932  1.00  0.00    -0.023 A 
HETATM   14  C   UNL     1      43.940 -10.279  11.137  1.00  0.00     0.256 C 
HETATM   15  C   UNL     1      41.706  -7.319  11.562  1.00  0.00     0.018 A 
HETATM   16  C   UNL     1      41.495  -9.331  13.062  1.00  0.00     0.068 C 
HETATM   17  C   UNL     1      40.617  -6.556  12.235  1.00  0.00     0.281 C 
HETATM   18  N   UNL     1      39.773  -7.488  13.095  1.00  0.00    -0.070 N 
HETATM   19  C   UNL     1      38.761  -6.741  13.904  1.00  0.00     0.270 C 
HETATM   20  H   UNL     1      39.260  -8.092  12.439  1.00  0.00     0.279 HD
HETATM   21  C   UNL     1      40.643  -8.406  13.950  1.00  0.00     0.239 C 
HETATM   22  N   UNL     1      44.935 -10.408  10.212  1.00  0.00    -0.332 N 
HETATM   23  O   UNL     1      43.708 -11.151  11.967  1.00  0.00    -0.267 OA
HETATM   24  H   UNL     1      45.381 -11.314  10.211  1.00  0.00     0.165 HD
ENDBRANCH   1   7
BRANCH   3  25
HETATM   25  O   UNL     1      41.532 -10.233   5.501  1.00  0.00    -0.353 OA
HETATM   26  C   UNL     1      41.622  -9.138   4.600  1.00  0.00     0.210 C 
ENDBRANCH   3  25
BRANCH   4  27
HETATM   27  O   UNL     1      42.646 -12.510   4.715  1.00  0.00    -0.272 OA
BRANCH  27  28
HETATM   28  C   UNL     1      43.218 -12.383   3.466  1.00  0.00     0.300 C 
HETATM   29  O   UNL     1      44.244 -11.814   3.138  1.00  0.00    -0.259 OA
BRANCH  28  30
HETATM   30  C   UNL     1      42.322 -13.050   2.514  1.00  0.00     0.061 A 
HETATM   31  C   UNL     1      42.311 -14.444   2.395  1.00  0.00     0.051 A 
HETATM   32 CL   UNL     1      43.333 -15.461   3.346  1.00  0.00    -0.083 Cl
HETATM   33  C   UNL     1      41.463 -15.052   1.467  1.00  0.00     0.048 A 
HETATM   34  C   UNL     1      40.642 -14.264   0.662  1.00  0.00     0.035 A 
HETATM   35 CL   UNL     1      39.599 -15.015  -0.481  1.00  0.00    -0.084 Cl
HETATM   36  C   UNL     1      40.661 -12.872   0.770  1.00  0.00     0.025 A 
HETATM   37  C   UNL     1      41.507 -12.259   1.696  1.00  0.00     0.021 A 
ENDBRANCH  28  30
ENDBRANCH  27  28
ENDBRANCH   4  27
TORSDOF 5
ENDMDL
