MODEL 1
REMARK VINA RESULT:      -8.7      0.000      0.000
REMARK  7 active torsions:
REMARK  status: ('A' for Active; 'I' for Inactive)
REMARK    1  A    between atoms: C_5  and  N_6 
REMARK    2  A    between atoms: N_6  and  C_7 
REMARK    3  A    between atoms: C_7  and  N_8 
REMARK    4  A    between atoms: N_8  and  C_9 
REMARK    5  A    between atoms: C_9  and  C_10 
REMARK    6  A    between atoms: C_10  and  C_11 
REMARK    7  A    between atoms: C_14  and  C_15 
ROOT
HETATM    1  C   UNL     1      40.653 -11.901   2.486  1.00  0.00     0.102 C 
HETATM    2  C   UNL     1      39.886 -11.558   1.412  1.00  0.00     0.139 C 
HETATM    3  C   UNL     1      40.373 -11.766   0.027  1.00  0.00     0.270 C 
HETATM    4  O   UNL     1      41.542 -11.596  -0.308  1.00  0.00    -0.267 OA
HETATM    5  N   UNL     1      39.376 -12.090  -0.874  1.00  0.00    -0.270 N 
HETATM    6  C   UNL     1      39.794 -12.572  -2.178  1.00  0.00     0.164 C 
HETATM    7  C   UNL     1      38.063 -11.672  -0.744  1.00  0.00     0.333 C 
HETATM    8  O   UNL     1      37.237 -11.846  -1.643  1.00  0.00    -0.246 OA
HETATM    9  N   UNL     1      37.732 -11.027   0.439  1.00  0.00    -0.270 N 
HETATM   10  C   UNL     1      36.373 -10.529   0.577  1.00  0.00     0.164 C 
HETATM   11  C   UNL     1      38.515 -11.024   1.583  1.00  0.00     0.270 C 
HETATM   12  O   UNL     1      38.086 -10.659   2.680  1.00  0.00    -0.267 OA
ENDROOT
BRANCH   1  13
HETATM   13  N   UNL     1      41.871 -12.547   2.318  1.00  0.00    -0.245 NA
HETATM   14  H   UNL     1      42.570 -12.113   2.916  1.00  0.00     0.135 HD
BRANCH  13  15
HETATM   15  C   UNL     1      42.032 -13.958   2.364  1.00  0.00     0.014 A 
HETATM   16  C   UNL     1      40.991 -14.844   2.666  1.00  0.00     0.024 A 
HETATM   17  C   UNL     1      41.201 -16.227   2.667  1.00  0.00     0.008 A 
HETATM   18  C   UNL     1      42.451 -16.757   2.333  1.00  0.00    -0.062 A 
HETATM   19  C   UNL     1      42.687 -18.237   2.380  1.00  0.00     0.048 C 
HETATM   20  C   UNL     1      43.490 -15.880   2.008  1.00  0.00     0.008 A 
HETATM   21  C   UNL     1      43.275 -14.498   2.007  1.00  0.00     0.024 A 
ENDBRANCH  13  15
ENDBRANCH   1  13
BRANCH   1  22
HETATM   22  N   UNL     1      40.290 -11.591   3.799  1.00  0.00    -0.379 N 
HETATM   23  H   UNL     1      39.994 -12.428   4.320  1.00  0.00     0.160 HD
BRANCH  22  24
HETATM   24  C   UNL     1      41.023 -10.652   4.650  1.00  0.00     0.125 C 
BRANCH  24  25
HETATM   25  C   UNL     1      41.254 -11.255   6.039  1.00  0.00     0.061 C 
BRANCH  25  26
HETATM   26  C   UNL     1      42.116 -12.482   5.980  1.00  0.00    -0.022 A 
HETATM   27  C   UNL     1      41.666 -13.836   6.109  1.00  0.00    -0.000 A 
HETATM   28  C   UNL     1      42.784 -14.663   6.022  1.00  0.00     0.058 A 
HETATM   29  C   UNL     1      40.402 -14.428   6.303  1.00  0.00     0.014 A 
HETATM   30  C   UNL     1      42.717 -16.069   6.122  1.00  0.00     0.075 A 
HETATM   31  N   UNL     1      43.873 -13.839   5.831  1.00  0.00    -0.358 N 
HETATM   32  C   UNL     1      41.433 -16.619   6.319  1.00  0.00     0.018 A 
HETATM   33  C   UNL     1      40.297 -15.818   6.408  1.00  0.00     0.002 A 
HETATM   34  H   UNL     1      44.825 -14.169   5.729  1.00  0.00     0.166 HD
HETATM   35  C   UNL     1      43.490 -12.522   5.813  1.00  0.00     0.013 A 
HETATM   36  C   UNL     1      44.479 -11.428   5.632  1.00  0.00     0.068 C 
BRANCH  30  37
HETATM   37  C   UNL     1      43.913 -16.982   6.033  1.00  0.00     0.419 C 
HETATM   38  F   UNL     1      44.581 -16.881   4.846  1.00  0.00    -0.166 F 
HETATM   39  F   UNL     1      44.839 -16.731   7.000  1.00  0.00    -0.166 F 
HETATM   40  F   UNL     1      43.583 -18.297   6.162  1.00  0.00    -0.166 F 
ENDBRANCH  30  37
ENDBRANCH  25  26
ENDBRANCH  24  25
ENDBRANCH  22  24
ENDBRANCH   1  22
TORSDOF 7
ENDMDL
MODEL 2
REMARK VINA RESULT:      -7.9      3.997      7.183
REMARK  7 active torsions:
REMARK  status: ('A' for Active; 'I' for Inactive)
REMARK    1  A    between atoms: C_5  and  N_6 
REMARK    2  A    between atoms: N_6  and  C_7 
REMARK    3  A    between atoms: C_7  and  N_8 
REMARK    4  A    between atoms: N_8  and  C_9 
REMARK    5  A    between atoms: C_9  and  C_10 
REMARK    6  A    between atoms: C_10  and  C_11 
REMARK    7  A    between atoms: C_14  and  C_15 
ROOT
HETATM    1  C   UNL     1      42.419 -11.503   4.985  1.00  0.00     0.102 C 
HETATM    2  C   UNL     1      42.726 -11.085   6.247  1.00  0.00     0.139 C 
HETATM    3  C   UNL     1      44.042 -11.394   6.856  1.00  0.00     0.270 C 
HETATM    4  O   UNL     1      44.627 -12.461   6.687  1.00  0.00    -0.267 OA
HETATM    5  N   UNL     1      44.515 -10.407   7.699  1.00  0.00    -0.270 N 
HETATM    6  C   UNL     1      45.901 -10.503   8.119  1.00  0.00     0.164 C 
HETATM    7  C   UNL     1      43.692  -9.559   8.420  1.00  0.00     0.333 C 
HETATM    8  O   UNL     1      44.142  -8.796   9.278  1.00  0.00    -0.246 OA
HETATM    9  N   UNL     1      42.334  -9.628   8.143  1.00  0.00    -0.270 N 
HETATM   10  C   UNL     1      41.443  -8.788   8.925  1.00  0.00     0.164 C 
HETATM   11  C   UNL     1      41.786 -10.254   7.033  1.00  0.00     0.270 C 
HETATM   12  O   UNL     1      40.614 -10.086   6.689  1.00  0.00    -0.267 OA
ENDROOT
BRANCH   1  13
HETATM   13  N   UNL     1      43.364 -12.145   4.195  1.00  0.00    -0.245 NA
HETATM   14  H   UNL     1      44.280 -12.066   4.630  1.00  0.00     0.135 HD
BRANCH  13  15
HETATM   15  C   UNL     1      43.206 -13.463   3.686  1.00  0.00     0.014 A 
HETATM   16  C   UNL     1      43.479 -13.815   2.358  1.00  0.00     0.024 A 
HETATM   17  C   UNL     1      43.334 -15.135   1.919  1.00  0.00     0.008 A 
HETATM   18  C   UNL     1      42.943 -16.140   2.809  1.00  0.00    -0.062 A 
HETATM   19  C   UNL     1      42.742 -17.546   2.327  1.00  0.00     0.048 C 
HETATM   20  C   UNL     1      42.691 -15.801   4.141  1.00  0.00     0.008 A 
HETATM   21  C   UNL     1      42.838 -14.480   4.576  1.00  0.00     0.024 A 
ENDBRANCH  13  15
ENDBRANCH   1  13
BRANCH   1  22
HETATM   22  N   UNL     1      41.144 -11.354   4.433  1.00  0.00    -0.379 N 
HETATM   23  H   UNL     1      40.420 -11.291   5.162  1.00  0.00     0.160 HD
BRANCH  22  24
HETATM   24  C   UNL     1      40.844 -10.491   3.290  1.00  0.00     0.125 C 
BRANCH  24  25
HETATM   25  C   UNL     1      39.405 -10.712   2.816  1.00  0.00     0.061 C 
BRANCH  25  26
HETATM   26  C   UNL     1      39.355 -11.339   1.454  1.00  0.00    -0.022 A 
HETATM   27  C   UNL     1      39.524 -12.731   1.159  1.00  0.00    -0.000 A 
HETATM   28  C   UNL     1      39.431 -12.885  -0.223  1.00  0.00     0.058 A 
HETATM   29  C   UNL     1      39.758 -13.873   1.951  1.00  0.00     0.014 A 
HETATM   30  C   UNL     1      39.563 -14.130  -0.874  1.00  0.00     0.075 A 
HETATM   31  N   UNL     1      39.198 -11.631  -0.747  1.00  0.00    -0.358 N 
HETATM   32  C   UNL     1      39.800 -15.245  -0.043  1.00  0.00     0.018 A 
HETATM   33  C   UNL     1      39.895 -15.122   1.341  1.00  0.00     0.002 A 
HETATM   34  H   UNL     1      39.082 -11.440  -1.734  1.00  0.00     0.166 HD
HETATM   35  C   UNL     1      39.159 -10.687   0.247  1.00  0.00     0.013 A 
HETATM   36  C   UNL     1      38.932  -9.250  -0.055  1.00  0.00     0.068 C 
BRANCH  30  37
HETATM   37  C   UNL     1      39.469 -14.319  -2.366  1.00  0.00     0.419 C 
HETATM   38  F   UNL     1      39.060 -15.571  -2.727  1.00  0.00    -0.166 F 
HETATM   39  F   UNL     1      38.586 -13.461  -2.950  1.00  0.00    -0.166 F 
HETATM   40  F   UNL     1      40.658 -14.121  -2.998  1.00  0.00    -0.166 F 
ENDBRANCH  30  37
ENDBRANCH  25  26
ENDBRANCH  24  25
ENDBRANCH  22  24
ENDBRANCH   1  22
TORSDOF 7
ENDMDL
MODEL 3
REMARK VINA RESULT:      -7.9      2.982      5.897
REMARK  7 active torsions:
REMARK  status: ('A' for Active; 'I' for Inactive)
REMARK    1  A    between atoms: C_5  and  N_6 
REMARK    2  A    between atoms: N_6  and  C_7 
REMARK    3  A    between atoms: C_7  and  N_8 
REMARK    4  A    between atoms: N_8  and  C_9 
REMARK    5  A    between atoms: C_9  and  C_10 
REMARK    6  A    between atoms: C_10  and  C_11 
REMARK    7  A    between atoms: C_14  and  C_15 
ROOT
HETATM    1  C   UNL     1      41.377 -11.942   5.562  1.00  0.00     0.102 C 
HETATM    2  C   UNL     1      41.496 -10.663   6.022  1.00  0.00     0.139 C 
HETATM    3  C   UNL     1      40.426  -9.664   5.789  1.00  0.00     0.270 C 
HETATM    4  O   UNL     1      39.776  -9.604   4.748  1.00  0.00    -0.267 OA
HETATM    5  N   UNL     1      40.278  -8.751   6.816  1.00  0.00    -0.270 N 
HETATM    6  C   UNL     1      39.090  -7.918   6.796  1.00  0.00     0.164 C 
HETATM    7  C   UNL     1      41.317  -8.353   7.639  1.00  0.00     0.333 C 
HETATM    8  O   UNL     1      41.188  -7.425   8.441  1.00  0.00    -0.246 OA
HETATM    9  N   UNL     1      42.517  -9.036   7.499  1.00  0.00    -0.270 N 
HETATM   10  C   UNL     1      43.640  -8.600   8.312  1.00  0.00     0.164 C 
HETATM   11  C   UNL     1      42.667 -10.237   6.824  1.00  0.00     0.270 C 
HETATM   12  O   UNL     1      43.678 -10.935   6.928  1.00  0.00    -0.267 OA
ENDROOT
BRANCH   1  13
HETATM   13  N   UNL     1      40.209 -12.375   4.949  1.00  0.00    -0.245 NA
HETATM   14  H   UNL     1      39.493 -11.657   5.037  1.00  0.00     0.135 HD
BRANCH  13  15
HETATM   15  C   UNL     1      40.159 -12.921   3.637  1.00  0.00     0.014 A 
HETATM   16  C   UNL     1      40.498 -12.197   2.487  1.00  0.00     0.024 A 
HETATM   17  C   UNL     1      40.459 -12.796   1.224  1.00  0.00     0.008 A 
HETATM   18  C   UNL     1      40.111 -14.143   1.086  1.00  0.00    -0.062 A 
HETATM   19  C   UNL     1      40.025 -14.771  -0.274  1.00  0.00     0.048 C 
HETATM   20  C   UNL     1      39.794 -14.878   2.231  1.00  0.00     0.008 A 
HETATM   21  C   UNL     1      39.835 -14.276   3.493  1.00  0.00     0.024 A 
ENDBRANCH  13  15
ENDBRANCH   1  13
BRANCH   1  22
HETATM   22  N   UNL     1      42.421 -12.867   5.637  1.00  0.00    -0.379 N 
HETATM   23  H   UNL     1      43.323 -12.409   5.831  1.00  0.00     0.160 HD
BRANCH  22  24
HETATM   24  C   UNL     1      42.316 -14.165   6.306  1.00  0.00     0.125 C 
BRANCH  24  25
HETATM   25  C   UNL     1      43.672 -14.877   6.310  1.00  0.00     0.061 C 
BRANCH  25  26
HETATM   26  C   UNL     1      43.616 -16.193   5.593  1.00  0.00    -0.022 A 
HETATM   27  C   UNL     1      43.477 -16.378   4.178  1.00  0.00    -0.000 A 
HETATM   28  C   UNL     1      43.442 -17.749   3.932  1.00  0.00     0.058 A 
HETATM   29  C   UNL     1      43.368 -15.493   3.086  1.00  0.00     0.014 A 
HETATM   30  C   UNL     1      43.299 -18.300   2.641  1.00  0.00     0.075 A 
HETATM   31  N   UNL     1      43.570 -18.375   5.154  1.00  0.00    -0.358 N 
HETATM   32  C   UNL     1      43.190 -17.378   1.579  1.00  0.00     0.018 A 
HETATM   33  C   UNL     1      43.224 -16.003   1.794  1.00  0.00     0.002 A 
HETATM   34  H   UNL     1      43.582 -19.379   5.280  1.00  0.00     0.166 HD
HETATM   35  C   UNL     1      43.667 -17.453   6.165  1.00  0.00     0.013 A 
HETATM   36  C   UNL     1      43.803 -17.870   7.585  1.00  0.00     0.068 C 
BRANCH  30  37
HETATM   37  C   UNL     1      43.255 -19.779   2.353  1.00  0.00     0.419 C 
HETATM   38  F   UNL     1      43.482 -20.550   3.456  1.00  0.00    -0.166 F 
HETATM   39  F   UNL     1      42.052 -20.184   1.860  1.00  0.00    -0.166 F 
HETATM   40  F   UNL     1      44.185 -20.164   1.435  1.00  0.00    -0.166 F 
ENDBRANCH  30  37
ENDBRANCH  25  26
ENDBRANCH  24  25
ENDBRANCH  22  24
ENDBRANCH   1  22
TORSDOF 7
ENDMDL
MODEL 4
REMARK VINA RESULT:      -7.8      4.217      7.211
REMARK  7 active torsions:
REMARK  status: ('A' for Active; 'I' for Inactive)
REMARK    1  A    between atoms: C_5  and  N_6 
REMARK    2  A    between atoms: N_6  and  C_7 
REMARK    3  A    between atoms: C_7  and  N_8 
REMARK    4  A    between atoms: N_8  and  C_9 
REMARK    5  A    between atoms: C_9  and  C_10 
REMARK    6  A    between atoms: C_10  and  C_11 
REMARK    7  A    between atoms: C_14  and  C_15 
ROOT
HETATM    1  C   UNL     1      41.764 -14.865   4.544  1.00  0.00     0.102 C 
HETATM    2  C   UNL     1      41.803 -13.760   5.342  1.00  0.00     0.139 C 
HETATM    3  C   UNL     1      43.089 -13.238   5.863  1.00  0.00     0.270 C 
HETATM    4  O   UNL     1      44.014 -13.962   6.222  1.00  0.00    -0.267 OA
HETATM    5  N   UNL     1      43.126 -11.861   5.987  1.00  0.00    -0.270 N 
HETATM    6  C   UNL     1      44.421 -11.253   6.228  1.00  0.00     0.164 C 
HETATM    7  C   UNL     1      42.005 -11.087   6.236  1.00  0.00     0.333 C 
HETATM    8  O   UNL     1      42.095  -9.884   6.495  1.00  0.00    -0.246 OA
HETATM    9  N   UNL     1      40.780 -11.738   6.200  1.00  0.00    -0.270 N 
HETATM   10  C   UNL     1      39.594 -10.958   6.512  1.00  0.00     0.164 C 
HETATM   11  C   UNL     1      40.573 -13.001   5.669  1.00  0.00     0.270 C 
HETATM   12  O   UNL     1      39.447 -13.443   5.428  1.00  0.00    -0.267 OA
ENDROOT
BRANCH   1  13
HETATM   13  N   UNL     1      42.934 -15.477   4.114  1.00  0.00    -0.245 NA
HETATM   14  H   UNL     1      43.733 -14.904   4.376  1.00  0.00     0.135 HD
BRANCH  13  15
HETATM   15  C   UNL     1      43.246 -16.844   4.351  1.00  0.00     0.014 A 
HETATM   16  C   UNL     1      43.624 -17.736   3.341  1.00  0.00     0.024 A 
HETATM   17  C   UNL     1      43.949 -19.064   3.638  1.00  0.00     0.008 A 
HETATM   18  C   UNL     1      43.935 -19.520   4.959  1.00  0.00    -0.062 A 
HETATM   19  C   UNL     1      44.239 -20.956   5.271  1.00  0.00     0.048 C 
HETATM   20  C   UNL     1      43.581 -18.630   5.977  1.00  0.00     0.008 A 
HETATM   21  C   UNL     1      43.258 -17.303   5.675  1.00  0.00     0.024 A 
ENDBRANCH  13  15
ENDBRANCH   1  13
BRANCH   1  22
HETATM   22  N   UNL     1      40.566 -15.468   4.152  1.00  0.00    -0.379 N 
HETATM   23  H   UNL     1      39.856 -15.422   4.896  1.00  0.00     0.160 HD
BRANCH  22  24
HETATM   24  C   UNL     1      39.972 -15.317   2.823  1.00  0.00     0.125 C 
BRANCH  24  25
HETATM   25  C   UNL     1      41.067 -15.180   1.760  1.00  0.00     0.061 C 
BRANCH  25  26
HETATM   26  C   UNL     1      40.853 -13.979   0.888  1.00  0.00    -0.022 A 
HETATM   27  C   UNL     1      40.136 -13.954  -0.353  1.00  0.00    -0.000 A 
HETATM   28  C   UNL     1      40.197 -12.653  -0.850  1.00  0.00     0.058 A 
HETATM   29  C   UNL     1      39.450 -14.931  -1.101  1.00  0.00     0.014 A 
HETATM   30  C   UNL     1      39.606 -12.262  -2.071  1.00  0.00     0.075 A 
HETATM   31  N   UNL     1      40.912 -11.911   0.066  1.00  0.00    -0.358 N 
HETATM   32  C   UNL     1      38.932 -13.273  -2.787  1.00  0.00     0.018 A 
HETATM   33  C   UNL     1      38.853 -14.581  -2.315  1.00  0.00     0.002 A 
HETATM   34  H   UNL     1      41.112 -10.924  -0.033  1.00  0.00     0.166 HD
HETATM   35  C   UNL     1      41.323 -12.696   1.114  1.00  0.00     0.013 A 
HETATM   36  C   UNL     1      42.124 -12.138   2.234  1.00  0.00     0.068 C 
BRANCH  30  37
HETATM   37  C   UNL     1      39.661 -10.863  -2.627  1.00  0.00     0.419 C 
HETATM   38  F   UNL     1      38.881 -10.692  -3.734  1.00  0.00    -0.166 F 
HETATM   39  F   UNL     1      39.244  -9.924  -1.733  1.00  0.00    -0.166 F 
HETATM   40  F   UNL     1      40.918 -10.494  -3.000  1.00  0.00    -0.166 F 
ENDBRANCH  30  37
ENDBRANCH  25  26
ENDBRANCH  24  25
ENDBRANCH  22  24
ENDBRANCH   1  22
TORSDOF 7
ENDMDL
MODEL 5
REMARK VINA RESULT:      -7.8      2.577      4.228
REMARK  7 active torsions:
REMARK  status: ('A' for Active; 'I' for Inactive)
REMARK    1  A    between atoms: C_5  and  N_6 
REMARK    2  A    between atoms: N_6  and  C_7 
REMARK    3  A    between atoms: C_7  and  N_8 
REMARK    4  A    between atoms: N_8  and  C_9 
REMARK    5  A    between atoms: C_9  and  C_10 
REMARK    6  A    between atoms: C_10  and  C_11 
REMARK    7  A    between atoms: C_14  and  C_15 
ROOT
HETATM    1  C   UNL     1      40.664 -12.801   3.061  1.00  0.00     0.102 C 
HETATM    2  C   UNL     1      40.480 -11.467   3.275  1.00  0.00     0.139 C 
HETATM    3  C   UNL     1      41.110 -10.457   2.391  1.00  0.00     0.270 C 
HETATM    4  O   UNL     1      42.237 -10.585   1.919  1.00  0.00    -0.267 OA
HETATM    5  N   UNL     1      40.349  -9.318   2.209  1.00  0.00    -0.270 N 
HETATM    6  C   UNL     1      40.760  -8.407   1.157  1.00  0.00     0.164 C 
HETATM    7  C   UNL     1      39.461  -8.834   3.155  1.00  0.00     0.333 C 
HETATM    8  O   UNL     1      38.916  -7.735   3.028  1.00  0.00    -0.246 OA
HETATM    9  N   UNL     1      39.236  -9.638   4.263  1.00  0.00    -0.270 N 
HETATM   10  C   UNL     1      38.351  -9.127   5.297  1.00  0.00     0.164 C 
HETATM   11  C   UNL     1      39.596 -10.974   4.356  1.00  0.00     0.270 C 
HETATM   12  O   UNL     1      39.165 -11.717   5.241  1.00  0.00    -0.267 OA
ENDROOT
BRANCH   1  13
HETATM   13  N   UNL     1      41.365 -13.258   1.953  1.00  0.00    -0.245 NA
HETATM   14  H   UNL     1      41.973 -14.026   2.228  1.00  0.00     0.135 HD
BRANCH  13  15
HETATM   15  C   UNL     1      40.758 -13.571   0.706  1.00  0.00     0.014 A 
HETATM   16  C   UNL     1      40.796 -12.721  -0.406  1.00  0.00     0.024 A 
HETATM   17  C   UNL     1      40.206 -13.096  -1.618  1.00  0.00     0.008 A 
HETATM   18  C   UNL     1      39.593 -14.345  -1.753  1.00  0.00    -0.062 A 
HETATM   19  C   UNL     1      38.920 -14.726  -3.039  1.00  0.00     0.048 C 
HETATM   20  C   UNL     1      39.571 -15.208  -0.655  1.00  0.00     0.008 A 
HETATM   21  C   UNL     1      40.162 -14.830   0.555  1.00  0.00     0.024 A 
ENDBRANCH  13  15
ENDBRANCH   1  13
BRANCH   1  22
HETATM   22  N   UNL     1      40.206 -13.775   3.952  1.00  0.00    -0.379 N 
HETATM   23  H   UNL     1      39.793 -14.579   3.459  1.00  0.00     0.160 HD
BRANCH  22  24
HETATM   24  C   UNL     1      40.932 -14.190   5.154  1.00  0.00     0.125 C 
BRANCH  24  25
HETATM   25  C   UNL     1      42.415 -14.405   4.836  1.00  0.00     0.061 C 
BRANCH  25  26
HETATM   26  C   UNL     1      42.836 -15.827   5.064  1.00  0.00    -0.022 A 
HETATM   27  C   UNL     1      43.058 -16.814   4.049  1.00  0.00    -0.000 A 
HETATM   28  C   UNL     1      43.409 -18.003   4.686  1.00  0.00     0.058 A 
HETATM   29  C   UNL     1      42.980 -16.799   2.642  1.00  0.00     0.014 A 
HETATM   30  C   UNL     1      43.688 -19.200   3.993  1.00  0.00     0.075 A 
HETATM   31  N   UNL     1      43.414 -17.741   6.040  1.00  0.00    -0.358 N 
HETATM   32  C   UNL     1      43.595 -19.140   2.586  1.00  0.00     0.018 A 
HETATM   33  C   UNL     1      43.249 -17.966   1.922  1.00  0.00     0.002 A 
HETATM   34  H   UNL     1      43.640 -18.426   6.751  1.00  0.00     0.166 HD
HETATM   35  C   UNL     1      43.063 -16.438   6.286  1.00  0.00     0.013 A 
HETATM   36  C   UNL     1      42.982 -15.904   7.670  1.00  0.00     0.068 C 
BRANCH  30  37
HETATM   37  C   UNL     1      44.067 -20.496   4.661  1.00  0.00     0.419 C 
HETATM   38  F   UNL     1      45.337 -20.494   5.162  1.00  0.00    -0.166 F 
HETATM   39  F   UNL     1      43.256 -20.803   5.712  1.00  0.00    -0.166 F 
HETATM   40  F   UNL     1      44.005 -21.562   3.816  1.00  0.00    -0.166 F 
ENDBRANCH  30  37
ENDBRANCH  25  26
ENDBRANCH  24  25
ENDBRANCH  22  24
ENDBRANCH   1  22
TORSDOF 7
ENDMDL
MODEL 6
REMARK VINA RESULT:      -7.6      3.053      4.361
REMARK  7 active torsions:
REMARK  status: ('A' for Active; 'I' for Inactive)
REMARK    1  A    between atoms: C_5  and  N_6 
REMARK    2  A    between atoms: N_6  and  C_7 
REMARK    3  A    between atoms: C_7  and  N_8 
REMARK    4  A    between atoms: N_8  and  C_9 
REMARK    5  A    between atoms: C_9  and  C_10 
REMARK    6  A    between atoms: C_10  and  C_11 
REMARK    7  A    between atoms: C_14  and  C_15 
ROOT
HETATM    1  C   UNL     1      39.546 -13.689   2.756  1.00  0.00     0.102 C 
HETATM    2  C   UNL     1      39.541 -13.116   1.519  1.00  0.00     0.139 C 
HETATM    3  C   UNL     1      39.992 -13.871   0.325  1.00  0.00     0.270 C 
HETATM    4  O   UNL     1      40.935 -14.658   0.343  1.00  0.00    -0.267 OA
HETATM    5  N   UNL     1      39.310 -13.548  -0.833  1.00  0.00    -0.270 N 
HETATM    6  C   UNL     1      39.498 -14.421  -1.977  1.00  0.00     0.164 C 
HETATM    7  C   UNL     1      38.756 -12.302  -1.071  1.00  0.00     0.333 C 
HETATM    8  O   UNL     1      38.292 -12.000  -2.173  1.00  0.00    -0.246 OA
HETATM    9  N   UNL     1      38.770 -11.404  -0.013  1.00  0.00    -0.270 N 
HETATM   10  C   UNL     1      38.244 -10.071  -0.254  1.00  0.00     0.164 C 
HETATM   11  C   UNL     1      39.027 -11.743   1.307  1.00  0.00     0.270 C 
HETATM   12  O   UNL     1      38.790 -10.980   2.246  1.00  0.00    -0.267 OA
ENDROOT
BRANCH   1  13
HETATM   13  N   UNL     1      39.880 -15.027   2.923  1.00  0.00    -0.245 NA
HETATM   14  H   UNL     1      39.884 -15.491   2.018  1.00  0.00     0.135 HD
BRANCH  13  15
HETATM   15  C   UNL     1      40.998 -15.475   3.679  1.00  0.00     0.014 A 
HETATM   16  C   UNL     1      42.314 -15.069   3.425  1.00  0.00     0.024 A 
HETATM   17  C   UNL     1      43.372 -15.520   4.221  1.00  0.00     0.008 A 
HETATM   18  C   UNL     1      43.132 -16.362   5.312  1.00  0.00    -0.062 A 
HETATM   19  C   UNL     1      44.272 -16.881   6.136  1.00  0.00     0.048 C 
HETATM   20  C   UNL     1      41.819 -16.753   5.586  1.00  0.00     0.008 A 
HETATM   21  C   UNL     1      40.764 -16.299   4.787  1.00  0.00     0.024 A 
ENDBRANCH  13  15
ENDBRANCH   1  13
BRANCH   1  22
HETATM   22  N   UNL     1      39.264 -12.968   3.919  1.00  0.00    -0.379 N 
HETATM   23  H   UNL     1      38.333 -13.198   4.294  1.00  0.00     0.160 HD
BRANCH  22  24
HETATM   24  C   UNL     1      40.236 -12.729   4.988  1.00  0.00     0.125 C 
BRANCH  24  25
HETATM   25  C   UNL     1      41.040 -11.455   4.705  1.00  0.00     0.061 C 
BRANCH  25  26
HETATM   26  C   UNL     1      41.646 -10.887   5.953  1.00  0.00    -0.022 A 
HETATM   27  C   UNL     1      43.011 -11.025   6.368  1.00  0.00    -0.000 A 
HETATM   28  C   UNL     1      43.150 -10.372   7.591  1.00  0.00     0.058 A 
HETATM   29  C   UNL     1      44.139 -11.659   5.809  1.00  0.00     0.014 A 
HETATM   30  C   UNL     1      44.366 -10.315   8.305  1.00  0.00     0.075 A 
HETATM   31  N   UNL     1      41.915  -9.843   7.901  1.00  0.00    -0.358 N 
HETATM   32  C   UNL     1      45.467 -10.966   7.710  1.00  0.00     0.018 A 
HETATM   33  C   UNL     1      45.359 -11.625   6.488  1.00  0.00     0.002 A 
HETATM   34  H   UNL     1      41.718  -9.308   8.737  1.00  0.00     0.166 HD
HETATM   35  C   UNL     1      40.995 -10.151   6.930  1.00  0.00     0.013 A 
HETATM   36  C   UNL     1      39.581  -9.707   7.031  1.00  0.00     0.068 C 
BRANCH  30  37
HETATM   37  C   UNL     1      44.537  -9.617   9.629  1.00  0.00     0.419 C 
HETATM   38  F   UNL     1      45.714  -9.923  10.251  1.00  0.00    -0.166 F 
HETATM   39  F   UNL     1      44.523  -8.260   9.515  1.00  0.00    -0.166 F 
HETATM   40  F   UNL     1      43.556  -9.929  10.520  1.00  0.00    -0.166 F 
ENDBRANCH  30  37
ENDBRANCH  25  26
ENDBRANCH  24  25
ENDBRANCH  22  24
ENDBRANCH   1  22
TORSDOF 7
ENDMDL
MODEL 7
REMARK VINA RESULT:      -7.5      3.040      5.997
REMARK  7 active torsions:
REMARK  status: ('A' for Active; 'I' for Inactive)
REMARK    1  A    between atoms: C_5  and  N_6 
REMARK    2  A    between atoms: N_6  and  C_7 
REMARK    3  A    between atoms: C_7  and  N_8 
REMARK    4  A    between atoms: N_8  and  C_9 
REMARK    5  A    between atoms: C_9  and  C_10 
REMARK    6  A    between atoms: C_10  and  C_11 
REMARK    7  A    between atoms: C_14  and  C_15 
ROOT
HETATM    1  C   UNL     1      40.437 -10.588   5.534  1.00  0.00     0.102 C 
HETATM    2  C   UNL     1      40.144  -9.670   6.499  1.00  0.00     0.139 C 
HETATM    3  C   UNL     1      39.437 -10.066   7.741  1.00  0.00     0.270 C 
HETATM    4  O   UNL     1      38.537 -10.901   7.766  1.00  0.00    -0.267 OA
HETATM    5  N   UNL     1      39.824  -9.350   8.858  1.00  0.00    -0.270 N 
HETATM    6  C   UNL     1      39.387  -9.850  10.149  1.00  0.00     0.164 C 
HETATM    7  C   UNL     1      40.288  -8.046   8.808  1.00  0.00     0.333 C 
HETATM    8  O   UNL     1      40.476  -7.387   9.832  1.00  0.00    -0.246 OA
HETATM    9  N   UNL     1      40.508  -7.515   7.545  1.00  0.00    -0.270 N 
HETATM   10  C   UNL     1      40.943  -6.130   7.463  1.00  0.00     0.164 C 
HETATM   11  C   UNL     1      40.573  -8.258   6.376  1.00  0.00     0.270 C 
HETATM   12  O   UNL     1      41.012  -7.796   5.320  1.00  0.00    -0.267 OA
ENDROOT
BRANCH   1  13
HETATM   13  N   UNL     1      40.172 -11.938   5.727  1.00  0.00    -0.245 NA
HETATM   14  H   UNL     1      39.552 -12.270   4.992  1.00  0.00     0.135 HD
BRANCH  13  15
HETATM   15  C   UNL     1      41.176 -12.915   5.964  1.00  0.00     0.014 A 
HETATM   16  C   UNL     1      42.451 -12.609   6.455  1.00  0.00     0.024 A 
HETATM   17  C   UNL     1      43.390 -13.617   6.698  1.00  0.00     0.008 A 
HETATM   18  C   UNL     1      43.062 -14.960   6.487  1.00  0.00    -0.062 A 
HETATM   19  C   UNL     1      44.084 -16.035   6.704  1.00  0.00     0.048 C 
HETATM   20  C   UNL     1      41.783 -15.276   6.020  1.00  0.00     0.008 A 
HETATM   21  C   UNL     1      40.847 -14.265   5.779  1.00  0.00     0.024 A 
ENDBRANCH  13  15
ENDBRANCH   1  13
BRANCH   1  22
HETATM   22  N   UNL     1      40.972 -10.230   4.294  1.00  0.00    -0.379 N 
HETATM   23  H   UNL     1      42.000 -10.293   4.291  1.00  0.00     0.160 HD
BRANCH  22  24
HETATM   24  C   UNL     1      40.398 -10.634   3.009  1.00  0.00     0.125 C 
BRANCH  24  25
HETATM   25  C   UNL     1      41.508 -11.018   2.025  1.00  0.00     0.061 C 
BRANCH  25  26
HETATM   26  C   UNL     1      42.024 -12.404   2.276  1.00  0.00    -0.022 A 
HETATM   27  C   UNL     1      41.375 -13.627   1.904  1.00  0.00    -0.000 A 
HETATM   28  C   UNL     1      42.174 -14.680   2.344  1.00  0.00     0.058 A 
HETATM   29  C   UNL     1      40.169 -13.926   1.239  1.00  0.00     0.014 A 
HETATM   30  C   UNL     1      41.836 -16.037   2.160  1.00  0.00     0.075 A 
HETATM   31  N   UNL     1      43.278 -14.115   2.949  1.00  0.00    -0.358 N 
HETATM   32  C   UNL     1      40.620 -16.291   1.492  1.00  0.00     0.018 A 
HETATM   33  C   UNL     1      39.801 -15.259   1.040  1.00  0.00     0.002 A 
HETATM   34  H   UNL     1      44.035 -14.646   3.360  1.00  0.00     0.166 HD
HETATM   35  C   UNL     1      43.199 -12.746   2.925  1.00  0.00     0.013 A 
HETATM   36  C   UNL     1      44.261 -11.896   3.524  1.00  0.00     0.068 C 
BRANCH  30  37
HETATM   37  C   UNL     1      42.684 -17.191   2.630  1.00  0.00     0.419 C 
HETATM   38  F   UNL     1      43.996 -17.079   2.270  1.00  0.00    -0.166 F 
HETATM   39  F   UNL     1      42.684 -17.327   3.985  1.00  0.00    -0.166 F 
HETATM   40  F   UNL     1      42.265 -18.389   2.134  1.00  0.00    -0.166 F 
ENDBRANCH  30  37
ENDBRANCH  25  26
ENDBRANCH  24  25
ENDBRANCH  22  24
ENDBRANCH   1  22
TORSDOF 7
ENDMDL
MODEL 8
REMARK VINA RESULT:      -7.4      3.798      7.383
REMARK  7 active torsions:
REMARK  status: ('A' for Active; 'I' for Inactive)
REMARK    1  A    between atoms: C_5  and  N_6 
REMARK    2  A    between atoms: N_6  and  C_7 
REMARK    3  A    between atoms: C_7  and  N_8 
REMARK    4  A    between atoms: N_8  and  C_9 
REMARK    5  A    between atoms: C_9  and  C_10 
REMARK    6  A    between atoms: C_10  and  C_11 
REMARK    7  A    between atoms: C_14  and  C_15 
ROOT
HETATM    1  C   UNL     1      42.696 -12.793   4.819  1.00  0.00     0.102 C 
HETATM    2  C   UNL     1      43.081 -14.056   4.477  1.00  0.00     0.139 C 
HETATM    3  C   UNL     1      43.332 -15.085   5.514  1.00  0.00     0.270 C 
HETATM    4  O   UNL     1      43.861 -14.838   6.595  1.00  0.00    -0.267 OA
HETATM    5  N   UNL     1      42.992 -16.367   5.125  1.00  0.00    -0.270 N 
HETATM    6  C   UNL     1      42.950 -17.384   6.160  1.00  0.00     0.164 C 
HETATM    7  C   UNL     1      43.029 -16.802   3.811  1.00  0.00     0.333 C 
HETATM    8  O   UNL     1      42.871 -17.989   3.518  1.00  0.00    -0.246 OA
HETATM    9  N   UNL     1      43.275 -15.836   2.845  1.00  0.00    -0.270 N 
HETATM   10  C   UNL     1      43.373 -16.276   1.463  1.00  0.00     0.164 C 
HETATM   11  C   UNL     1      43.202 -14.468   3.060  1.00  0.00     0.270 C 
HETATM   12  O   UNL     1      43.181 -13.652   2.136  1.00  0.00    -0.267 OA
ENDROOT
BRANCH   1  13
HETATM   13  N   UNL     1      42.432 -12.459   6.141  1.00  0.00    -0.245 NA
HETATM   14  H   UNL     1      42.306 -13.308   6.686  1.00  0.00     0.135 HD
BRANCH  13  15
HETATM   15  C   UNL     1      43.207 -11.535   6.894  1.00  0.00     0.014 A 
HETATM   16  C   UNL     1      44.571 -11.707   7.158  1.00  0.00     0.024 A 
HETATM   17  C   UNL     1      45.290 -10.749   7.880  1.00  0.00     0.008 A 
HETATM   18  C   UNL     1      44.667  -9.579   8.325  1.00  0.00    -0.062 A 
HETATM   19  C   UNL     1      45.428  -8.575   9.139  1.00  0.00     0.048 C 
HETATM   20  C   UNL     1      43.311  -9.389   8.045  1.00  0.00     0.008 A 
HETATM   21  C   UNL     1      42.596 -10.349   7.322  1.00  0.00     0.024 A 
ENDBRANCH  13  15
ENDBRANCH   1  13
BRANCH   1  22
HETATM   22  N   UNL     1      42.589 -11.761   3.883  1.00  0.00    -0.379 N 
HETATM   23  H   UNL     1      42.857 -12.074   2.939  1.00  0.00     0.160 HD
BRANCH  22  24
HETATM   24  C   UNL     1      41.482 -10.804   3.845  1.00  0.00     0.125 C 
BRANCH  24  25
HETATM   25  C   UNL     1      40.152 -11.532   3.630  1.00  0.00     0.061 C 
BRANCH  25  26
HETATM   26  C   UNL     1      39.967 -11.949   2.202  1.00  0.00    -0.022 A 
HETATM   27  C   UNL     1      39.874 -13.297   1.721  1.00  0.00    -0.000 A 
HETATM   28  C   UNL     1      39.733 -13.243   0.336  1.00  0.00     0.058 A 
HETATM   29  C   UNL     1      39.908 -14.558   2.348  1.00  0.00     0.014 A 
HETATM   30  C   UNL     1      39.625 -14.392  -0.477  1.00  0.00     0.075 A 
HETATM   31  N   UNL     1      39.725 -11.908  -0.011  1.00  0.00    -0.358 N 
HETATM   32  C   UNL     1      39.667 -15.633   0.192  1.00  0.00     0.018 A 
HETATM   33  C   UNL     1      39.805 -15.718   1.576  1.00  0.00     0.002 A 
HETATM   34  H   UNL     1      39.631 -11.567  -0.959  1.00  0.00     0.166 HD
HETATM   35  C   UNL     1      39.874 -11.116   1.099  1.00  0.00     0.013 A 
HETATM   36  C   UNL     1      39.910  -9.634   0.996  1.00  0.00     0.068 C 
BRANCH  30  37
HETATM   37  C   UNL     1      39.475 -14.356  -1.975  1.00  0.00     0.419 C 
HETATM   38  F   UNL     1      38.954 -15.508  -2.492  1.00  0.00    -0.166 F 
HETATM   39  F   UNL     1      38.651 -13.357  -2.398  1.00  0.00    -0.166 F 
HETATM   40  F   UNL     1      40.659 -14.164  -2.619  1.00  0.00    -0.166 F 
ENDBRANCH  30  37
ENDBRANCH  25  26
ENDBRANCH  24  25
ENDBRANCH  22  24
ENDBRANCH   1  22
TORSDOF 7
ENDMDL
MODEL 9
REMARK VINA RESULT:      -7.3      4.253      7.321
REMARK  7 active torsions:
REMARK  status: ('A' for Active; 'I' for Inactive)
REMARK    1  A    between atoms: C_5  and  N_6 
REMARK    2  A    between atoms: N_6  and  C_7 
REMARK    3  A    between atoms: C_7  and  N_8 
REMARK    4  A    between atoms: N_8  and  C_9 
REMARK    5  A    between atoms: C_9  and  C_10 
REMARK    6  A    between atoms: C_10  and  C_11 
REMARK    7  A    between atoms: C_14  and  C_15 
ROOT
HETATM    1  C   UNL     1      42.584 -10.222   6.376  1.00  0.00     0.102 C 
HETATM    2  C   UNL     1      42.637 -10.003   7.721  1.00  0.00     0.139 C 
HETATM    3  C   UNL     1      43.747 -10.546   8.540  1.00  0.00     0.270 C 
HETATM    4  O   UNL     1      44.251 -11.649   8.344  1.00  0.00    -0.267 OA
HETATM    5  N   UNL     1      44.110  -9.735   9.599  1.00  0.00    -0.270 N 
HETATM    6  C   UNL     1      45.351 -10.054  10.282  1.00  0.00     0.164 C 
HETATM    7  C   UNL     1      43.231  -8.885  10.248  1.00  0.00     0.333 C 
HETATM    8  O   UNL     1      43.547  -8.295  11.283  1.00  0.00    -0.246 OA
HETATM    9  N   UNL     1      41.969  -8.751   9.685  1.00  0.00    -0.270 N 
HETATM   10  C   UNL     1      41.009  -7.907  10.377  1.00  0.00     0.164 C 
HETATM   11  C   UNL     1      41.628  -9.163   8.406  1.00  0.00     0.270 C 
HETATM   12  O   UNL     1      40.584  -8.810   7.852  1.00  0.00    -0.267 OA
ENDROOT
BRANCH   1  13
HETATM   13  N   UNL     1      43.616 -10.876   5.716  1.00  0.00    -0.245 NA
HETATM   14  H   UNL     1      44.379 -11.048   6.367  1.00  0.00     0.135 HD
BRANCH  13  15
HETATM   15  C   UNL     1      43.433 -12.028   4.904  1.00  0.00     0.014 A 
HETATM   16  C   UNL     1      43.063 -13.280   5.412  1.00  0.00     0.024 A 
HETATM   17  C   UNL     1      42.867 -14.372   4.560  1.00  0.00     0.008 A 
HETATM   18  C   UNL     1      43.004 -14.228   3.176  1.00  0.00    -0.062 A 
HETATM   19  C   UNL     1      42.839 -15.410   2.268  1.00  0.00     0.048 C 
HETATM   20  C   UNL     1      43.349 -12.976   2.660  1.00  0.00     0.008 A 
HETATM   21  C   UNL     1      43.544 -11.887   3.514  1.00  0.00     0.024 A 
ENDBRANCH  13  15
ENDBRANCH   1  13
BRANCH   1  22
HETATM   22  N   UNL     1      41.485  -9.850   5.597  1.00  0.00    -0.379 N 
HETATM   23  H   UNL     1      40.641  -9.714   6.170  1.00  0.00     0.160 HD
BRANCH  22  24
HETATM   24  C   UNL     1      41.554  -8.891   4.493  1.00  0.00     0.125 C 
BRANCH  24  25
HETATM   25  C   UNL     1      40.225  -8.853   3.732  1.00  0.00     0.061 C 
BRANCH  25  26
HETATM   26  C   UNL     1      40.190  -9.857   2.618  1.00  0.00    -0.022 A 
HETATM   27  C   UNL     1      39.920 -11.258   2.752  1.00  0.00    -0.000 A 
HETATM   28  C   UNL     1      40.010 -11.829   1.484  1.00  0.00     0.058 A 
HETATM   29  C   UNL     1      39.618 -12.091   3.848  1.00  0.00     0.014 A 
HETATM   30  C   UNL     1      39.815 -13.205   1.239  1.00  0.00     0.075 A 
HETATM   31  N   UNL     1      40.308 -10.806   0.608  1.00  0.00    -0.358 N 
HETATM   32  C   UNL     1      39.518 -14.001   2.364  1.00  0.00     0.018 A 
HETATM   33  C   UNL     1      39.420 -13.459   3.643  1.00  0.00     0.002 A 
HETATM   34  H   UNL     1      40.429 -10.928  -0.389  1.00  0.00     0.166 HD
HETATM   35  C   UNL     1      40.429  -9.614   1.276  1.00  0.00     0.013 A 
HETATM   36  C   UNL     1      40.759  -8.354   0.560  1.00  0.00     0.068 C 
BRANCH  30  37
HETATM   37  C   UNL     1      39.910 -13.843  -0.123  1.00  0.00     0.419 C 
HETATM   38  F   UNL     1      41.010 -13.449  -0.828  1.00  0.00    -0.166 F 
HETATM   39  F   UNL     1      39.978 -15.203  -0.063  1.00  0.00    -0.166 F 
HETATM   40  F   UNL     1      38.840 -13.556  -0.915  1.00  0.00    -0.166 F 
ENDBRANCH  30  37
ENDBRANCH  25  26
ENDBRANCH  24  25
ENDBRANCH  22  24
ENDBRANCH   1  22
TORSDOF 7
ENDMDL
MODEL 10
REMARK VINA RESULT:      -7.3      4.033      7.396
REMARK  7 active torsions:
REMARK  status: ('A' for Active; 'I' for Inactive)
REMARK    1  A    between atoms: C_5  and  N_6 
REMARK    2  A    between atoms: N_6  and  C_7 
REMARK    3  A    between atoms: C_7  and  N_8 
REMARK    4  A    between atoms: N_8  and  C_9 
REMARK    5  A    between atoms: C_9  and  C_10 
REMARK    6  A    between atoms: C_10  and  C_11 
REMARK    7  A    between atoms: C_14  and  C_15 
ROOT
HETATM    1  C   UNL     1      42.319 -12.072   6.064  1.00  0.00     0.102 C 
HETATM    2  C   UNL     1      42.610 -11.048   6.916  1.00  0.00     0.139 C 
HETATM    3  C   UNL     1      43.952 -10.928   7.536  1.00  0.00     0.270 C 
HETATM    4  O   UNL     1      44.608 -11.895   7.913  1.00  0.00    -0.267 OA
HETATM    5  N   UNL     1      44.365  -9.623   7.729  1.00  0.00    -0.270 N 
HETATM    6  C   UNL     1      45.759  -9.414   8.075  1.00  0.00     0.164 C 
HETATM    7  C   UNL     1      43.493  -8.570   7.950  1.00  0.00     0.333 C 
HETATM    8  O   UNL     1      43.899  -7.451   8.272  1.00  0.00    -0.246 OA
HETATM    9  N   UNL     1      42.140  -8.846   7.811  1.00  0.00    -0.270 N 
HETATM   10  C   UNL     1      41.202  -7.772   8.090  1.00  0.00     0.164 C 
HETATM   11  C   UNL     1      41.624  -9.982   7.207  1.00  0.00     0.270 C 
HETATM   12  O   UNL     1      40.439 -10.079   6.880  1.00  0.00    -0.267 OA
ENDROOT
BRANCH   1  13
HETATM   13  N   UNL     1      43.296 -12.978   5.674  1.00  0.00    -0.245 NA
HETATM   14  H   UNL     1      44.216 -12.594   5.879  1.00  0.00     0.135 HD
BRANCH  13  15
HETATM   15  C   UNL     1      43.282 -14.357   6.020  1.00  0.00     0.014 A 
HETATM   16  C   UNL     1      43.074 -14.822   7.324  1.00  0.00     0.024 A 
HETATM   17  C   UNL     1      43.040 -16.193   7.601  1.00  0.00     0.008 A 
HETATM   18  C   UNL     1      43.181 -17.130   6.573  1.00  0.00    -0.062 A 
HETATM   19  C   UNL     1      43.191 -18.598   6.878  1.00  0.00     0.048 C 
HETATM   20  C   UNL     1      43.366 -16.673   5.265  1.00  0.00     0.008 A 
HETATM   21  C   UNL     1      43.398 -15.302   4.992  1.00  0.00     0.024 A 
ENDBRANCH  13  15
ENDBRANCH   1  13
BRANCH   1  22
HETATM   22  N   UNL     1      41.030 -12.298   5.574  1.00  0.00    -0.379 N 
HETATM   23  H   UNL     1      40.421 -11.480   5.713  1.00  0.00     0.160 HD
BRANCH  22  24
HETATM   24  C   UNL     1      40.744 -12.982   4.311  1.00  0.00     0.125 C 
BRANCH  24  25
HETATM   25  C   UNL     1      41.281 -12.168   3.129  1.00  0.00     0.061 C 
BRANCH  25  26
HETATM   26  C   UNL     1      40.995 -12.834   1.816  1.00  0.00    -0.022 A 
HETATM   27  C   UNL     1      39.910 -12.525   0.932  1.00  0.00    -0.000 A 
HETATM   28  C   UNL     1      39.994 -13.390  -0.158  1.00  0.00     0.058 A 
HETATM   29  C   UNL     1      38.857 -11.589   0.972  1.00  0.00     0.014 A 
HETATM   30  C   UNL     1      39.073 -13.378  -1.227  1.00  0.00     0.075 A 
HETATM   31  N   UNL     1      41.100 -14.185   0.050  1.00  0.00    -0.358 N 
HETATM   32  C   UNL     1      38.034 -12.428  -1.144  1.00  0.00     0.018 A 
HETATM   33  C   UNL     1      37.926 -11.550  -0.068  1.00  0.00     0.002 A 
HETATM   34  H   UNL     1      41.410 -14.907  -0.588  1.00  0.00     0.166 HD
HETATM   35  C   UNL     1      41.710 -13.870   1.238  1.00  0.00     0.013 A 
HETATM   36  C   UNL     1      42.922 -14.592   1.704  1.00  0.00     0.068 C 
BRANCH  30  37
HETATM   37  C   UNL     1      39.143 -14.305  -2.414  1.00  0.00     0.419 C 
HETATM   38  F   UNL     1      38.279 -13.965  -3.415  1.00  0.00    -0.166 F 
HETATM   39  F   UNL     1      40.378 -14.334  -2.987  1.00  0.00    -0.166 F 
HETATM   40  F   UNL     1      38.849 -15.595  -2.093  1.00  0.00    -0.166 F 
ENDBRANCH  30  37
ENDBRANCH  25  26
ENDBRANCH  24  25
ENDBRANCH  22  24
ENDBRANCH   1  22
TORSDOF 7
ENDMDL
