MODEL 1
REMARK VINA RESULT:      -9.1      0.000      0.000
REMARK  6 active torsions:
REMARK  status: ('A' for Active; 'I' for Inactive)
REMARK    1  A    between atoms: C_2  and  C_3 
REMARK    2  A    between atoms: C_3  and  C_4 
REMARK    3  A    between atoms: C_3  and  C_10 
REMARK    4  A    between atoms: C_10  and  C_11 
REMARK       I    between atoms: C_11  and  N_12 
REMARK    5  A    between atoms: N_12  and  C_13 
REMARK    6  A    between atoms: C_20  and  C_21 
REMARK       I    between atoms: C_21  and  N_22 
ROOT
HETATM    1  C   UNL     1      40.822 -13.850   0.463  1.00  0.00     0.035 A 
HETATM    2  C   UNL     1      40.132 -14.380  -0.636  1.00  0.00     0.046 A 
HETATM    3  C   UNL     1      39.132 -13.611  -1.269  1.00  0.00     0.030 A 
HETATM    4  C   UNL     1      38.841 -12.347  -0.771  1.00  0.00     0.063 A 
HETATM    5  N   UNL     1      37.842 -11.864  -1.568  1.00  0.00    -0.277 N 
HETATM    6  H   UNL     1      37.376 -10.968  -1.491  1.00  0.00     0.189 HD
HETATM    7  N   UNL     1      37.471 -12.690  -2.559  1.00  0.00    -0.168 NA
HETATM    8  C   UNL     1      38.264 -13.774  -2.391  1.00  0.00     0.156 A 
HETATM    9  C   UNL     1      39.505 -11.790   0.324  1.00  0.00     0.034 A 
HETATM   10  C   UNL     1      40.508 -12.565   0.921  1.00  0.00     0.032 A 
ENDROOT
BRANCH   1  11
HETATM   11  N   UNL     1      41.862 -14.530   1.134  1.00  0.00    -0.327 N 
HETATM   12  C   UNL     1      41.774 -15.722   1.828  1.00  0.00     0.223 C 
HETATM   13  O   UNL     1      40.746 -16.345   2.072  1.00  0.00    -0.273 OA
HETATM   14  H   UNL     1      42.780 -14.105   1.073  1.00  0.00     0.169 HD
BRANCH  12  15
HETATM   15  C   UNL     1      43.119 -16.247   2.299  1.00  0.00     0.116 C 
BRANCH  15  16
HETATM   16  C   UNL     1      43.027 -17.435   3.274  1.00  0.00     0.049 C 
BRANCH  16  17
HETATM   17  C   UNL     1      43.936 -18.589   2.898  1.00  0.00    -0.027 C 
HETATM   18  C   UNL     1      43.516 -19.741   2.355  1.00  0.00     0.007 C 
ENDBRANCH  16  17
BRANCH  16  19
HETATM   19  C   UNL     1      43.167 -17.006   4.730  1.00  0.00    -0.050 A 
HETATM   20  C   UNL     1      44.411 -16.924   5.375  1.00  0.00     0.008 A 
HETATM   21  C   UNL     1      44.502 -16.502   6.704  1.00  0.00     0.001 A 
HETATM   22  C   UNL     1      43.351 -16.163   7.410  1.00  0.00     0.000 A 
HETATM   23  C   UNL     1      42.109 -16.241   6.789  1.00  0.00     0.001 A 
HETATM   24  C   UNL     1      42.016 -16.655   5.459  1.00  0.00     0.008 A 
ENDBRANCH  16  19
ENDBRANCH  15  16
ENDBRANCH  12  15
ENDBRANCH   1  11
BRANCH   8  25
HETATM   25  C   UNL     1      38.185 -14.923  -3.304  1.00  0.00     0.270 C 
HETATM   26  N   UNL     1      38.215 -16.139  -2.675  1.00  0.00    -0.365 N 
HETATM   27  H   UNL     1      38.271 -16.162  -1.665  1.00  0.00     0.159 HD
HETATM   28  H   UNL     1      38.140 -16.983  -3.221  1.00  0.00     0.159 HD
HETATM   29  O   UNL     1      38.088 -14.844  -4.523  1.00  0.00    -0.266 OA
ENDBRANCH   8  25
TORSDOF 6
ENDMDL
MODEL 2
REMARK VINA RESULT:      -9.0      0.909      2.570
REMARK  6 active torsions:
REMARK  status: ('A' for Active; 'I' for Inactive)
REMARK    1  A    between atoms: C_2  and  C_3 
REMARK    2  A    between atoms: C_3  and  C_4 
REMARK    3  A    between atoms: C_3  and  C_10 
REMARK    4  A    between atoms: C_10  and  C_11 
REMARK       I    between atoms: C_11  and  N_12 
REMARK    5  A    between atoms: N_12  and  C_13 
REMARK    6  A    between atoms: C_20  and  C_21 
REMARK       I    between atoms: C_21  and  N_22 
ROOT
HETATM    1  C   UNL     1      40.802 -13.695   0.390  1.00  0.00     0.035 A 
HETATM    2  C   UNL     1      40.121 -14.269  -0.693  1.00  0.00     0.046 A 
HETATM    3  C   UNL     1      39.054 -13.569  -1.296  1.00  0.00     0.030 A 
HETATM    4  C   UNL     1      38.689 -12.330  -0.783  1.00  0.00     0.063 A 
HETATM    5  N   UNL     1      37.638 -11.916  -1.551  1.00  0.00    -0.277 N 
HETATM    6  H   UNL     1      37.112 -11.055  -1.458  1.00  0.00     0.189 HD
HETATM    7  N   UNL     1      37.299 -12.763  -2.537  1.00  0.00    -0.168 NA
HETATM    8  C   UNL     1      38.169 -13.789  -2.395  1.00  0.00     0.156 A 
HETATM    9  C   UNL     1      39.341 -11.732   0.297  1.00  0.00     0.034 A 
HETATM   10  C   UNL     1      40.411 -12.436   0.864  1.00  0.00     0.032 A 
ENDROOT
BRANCH   1  11
HETATM   11  N   UNL     1      41.904 -14.303   1.030  1.00  0.00    -0.327 N 
HETATM   12  C   UNL     1      41.955 -15.562   1.598  1.00  0.00     0.223 C 
HETATM   13  O   UNL     1      41.012 -16.333   1.739  1.00  0.00    -0.273 OA
HETATM   14  H   UNL     1      42.759 -13.760   1.048  1.00  0.00     0.169 HD
BRANCH  12  15
HETATM   15  C   UNL     1      43.345 -15.957   2.067  1.00  0.00     0.116 C 
BRANCH  15  16
HETATM   16  C   UNL     1      43.383 -16.582   3.474  1.00  0.00     0.049 C 
BRANCH  16  17
HETATM   17  C   UNL     1      42.255 -16.107   4.369  1.00  0.00    -0.027 C 
HETATM   18  C   UNL     1      42.375 -15.872   5.683  1.00  0.00     0.007 C 
ENDBRANCH  16  17
BRANCH  16  19
HETATM   19  C   UNL     1      43.526 -18.099   3.434  1.00  0.00    -0.050 A 
HETATM   20  C   UNL     1      43.197 -18.857   2.299  1.00  0.00     0.008 A 
HETATM   21  C   UNL     1      43.366 -20.244   2.291  1.00  0.00     0.001 A 
HETATM   22  C   UNL     1      43.858 -20.894   3.419  1.00  0.00     0.000 A 
HETATM   23  C   UNL     1      44.186 -20.161   4.555  1.00  0.00     0.001 A 
HETATM   24  C   UNL     1      44.026 -18.774   4.562  1.00  0.00     0.008 A 
ENDBRANCH  16  19
ENDBRANCH  15  16
ENDBRANCH  12  15
ENDBRANCH   1  11
BRANCH   8  25
HETATM   25  C   UNL     1      38.147 -14.938  -3.311  1.00  0.00     0.270 C 
HETATM   26  N   UNL     1      38.191 -16.154  -2.683  1.00  0.00    -0.365 N 
HETATM   27  H   UNL     1      38.218 -16.177  -1.672  1.00  0.00     0.159 HD
HETATM   28  H   UNL     1      38.154 -16.998  -3.233  1.00  0.00     0.159 HD
HETATM   29  O   UNL     1      38.083 -14.859  -4.532  1.00  0.00    -0.266 OA
ENDBRANCH   8  25
TORSDOF 6
ENDMDL
MODEL 3
REMARK VINA RESULT:      -8.7      1.791      3.209
REMARK  6 active torsions:
REMARK  status: ('A' for Active; 'I' for Inactive)
REMARK    1  A    between atoms: C_2  and  C_3 
REMARK    2  A    between atoms: C_3  and  C_4 
REMARK    3  A    between atoms: C_3  and  C_10 
REMARK    4  A    between atoms: C_10  and  C_11 
REMARK       I    between atoms: C_11  and  N_12 
REMARK    5  A    between atoms: N_12  and  C_13 
REMARK    6  A    between atoms: C_20  and  C_21 
REMARK       I    between atoms: C_21  and  N_22 
ROOT
HETATM    1  C   UNL     1      40.124 -14.160   1.943  1.00  0.00     0.035 A 
HETATM    2  C   UNL     1      40.246 -14.145   0.546  1.00  0.00     0.046 A 
HETATM    3  C   UNL     1      39.684 -13.081  -0.191  1.00  0.00     0.030 A 
HETATM    4  C   UNL     1      39.002 -12.079   0.489  1.00  0.00     0.063 A 
HETATM    5  N   UNL     1      38.570 -11.215  -0.478  1.00  0.00    -0.277 N 
HETATM    6  H   UNL     1      38.030 -10.368  -0.346  1.00  0.00     0.189 HD
HETATM    7  N   UNL     1      38.931 -11.550  -1.727  1.00  0.00    -0.168 NA
HETATM    8  C   UNL     1      39.625 -12.700  -1.566  1.00  0.00     0.156 A 
HETATM    9  C   UNL     1      38.857 -12.065   1.877  1.00  0.00     0.034 A 
HETATM   10  C   UNL     1      39.443 -13.121   2.588  1.00  0.00     0.032 A 
ENDROOT
BRANCH   1  11
HETATM   11  N   UNL     1      40.685 -15.162   2.765  1.00  0.00    -0.327 N 
HETATM   12  C   UNL     1      41.889 -15.114   3.443  1.00  0.00     0.223 C 
HETATM   13  O   UNL     1      42.733 -14.228   3.362  1.00  0.00    -0.273 OA
HETATM   14  H   UNL     1      40.125 -15.997   2.889  1.00  0.00     0.169 HD
BRANCH  12  15
HETATM   15  C   UNL     1      42.114 -16.307   4.357  1.00  0.00     0.116 C 
BRANCH  15  16
HETATM   16  C   UNL     1      43.561 -16.834   4.362  1.00  0.00     0.049 C 
BRANCH  16  17
HETATM   17  C   UNL     1      44.293 -16.556   5.660  1.00  0.00    -0.027 C 
HETATM   18  C   UNL     1      43.992 -15.560   6.505  1.00  0.00     0.007 C 
ENDBRANCH  16  17
BRANCH  16  19
HETATM   19  C   UNL     1      43.653 -18.288   3.914  1.00  0.00    -0.050 A 
HETATM   20  C   UNL     1      43.407 -18.686   2.590  1.00  0.00     0.008 A 
HETATM   21  C   UNL     1      43.526 -20.025   2.212  1.00  0.00     0.001 A 
HETATM   22  C   UNL     1      43.884 -20.988   3.151  1.00  0.00     0.000 A 
HETATM   23  C   UNL     1      44.128 -20.614   4.469  1.00  0.00     0.001 A 
HETATM   24  C   UNL     1      44.018 -19.275   4.848  1.00  0.00     0.008 A 
ENDBRANCH  16  19
ENDBRANCH  15  16
ENDBRANCH  12  15
ENDBRANCH   1  11
BRANCH   8  25
HETATM   25  C   UNL     1      40.223 -13.395  -2.715  1.00  0.00     0.270 C 
HETATM   26  N   UNL     1      41.500 -12.998  -3.006  1.00  0.00    -0.365 N 
HETATM   27  H   UNL     1      41.933 -12.293  -2.423  1.00  0.00     0.159 HD
HETATM   28  H   UNL     1      41.998 -13.440  -3.763  1.00  0.00     0.159 HD
HETATM   29  O   UNL     1      39.667 -14.268  -3.373  1.00  0.00    -0.266 OA
ENDBRANCH   8  25
TORSDOF 6
ENDMDL
MODEL 4
REMARK VINA RESULT:      -8.3      2.447      4.260
REMARK  6 active torsions:
REMARK  status: ('A' for Active; 'I' for Inactive)
REMARK    1  A    between atoms: C_2  and  C_3 
REMARK    2  A    between atoms: C_3  and  C_4 
REMARK    3  A    between atoms: C_3  and  C_10 
REMARK    4  A    between atoms: C_10  and  C_11 
REMARK       I    between atoms: C_11  and  N_12 
REMARK    5  A    between atoms: N_12  and  C_13 
REMARK    6  A    between atoms: C_20  and  C_21 
REMARK       I    between atoms: C_21  and  N_22 
ROOT
HETATM    1  C   UNL     1      41.196 -14.661   1.613  1.00  0.00     0.035 A 
HETATM    2  C   UNL     1      41.508 -13.309   1.416  1.00  0.00     0.046 A 
HETATM    3  C   UNL     1      40.923 -12.607   0.340  1.00  0.00     0.030 A 
HETATM    4  C   UNL     1      40.062 -13.285  -0.514  1.00  0.00     0.063 A 
HETATM    5  N   UNL     1      39.675 -12.362  -1.445  1.00  0.00    -0.277 N 
HETATM    6  H   UNL     1      39.052 -12.508  -2.231  1.00  0.00     0.189 HD
HETATM    7  N   UNL     1      40.187 -11.135  -1.260  1.00  0.00    -0.168 NA
HETATM    8  C   UNL     1      40.958 -11.268  -0.156  1.00  0.00     0.156 A 
HETATM    9  C   UNL     1      39.733 -14.632  -0.351  1.00  0.00     0.034 A 
HETATM   10  C   UNL     1      40.310 -15.300   0.737  1.00  0.00     0.032 A 
ENDROOT
BRANCH   1  11
HETATM   11  N   UNL     1      41.702 -15.432   2.683  1.00  0.00    -0.327 N 
HETATM   12  C   UNL     1      41.328 -15.372   4.011  1.00  0.00     0.223 C 
HETATM   13  O   UNL     1      40.560 -14.557   4.513  1.00  0.00    -0.273 OA
HETATM   14  H   UNL     1      42.400 -16.124   2.436  1.00  0.00     0.169 HD
BRANCH  12  15
HETATM   15  C   UNL     1      41.969 -16.450   4.869  1.00  0.00     0.116 C 
BRANCH  15  16
HETATM   16  C   UNL     1      43.416 -16.796   4.471  1.00  0.00     0.049 C 
BRANCH  16  17
HETATM   17  C   UNL     1      44.432 -16.425   5.533  1.00  0.00    -0.027 C 
HETATM   18  C   UNL     1      44.166 -15.675   6.611  1.00  0.00     0.007 C 
ENDBRANCH  16  17
BRANCH  16  19
HETATM   19  C   UNL     1      43.556 -18.230   3.973  1.00  0.00    -0.050 A 
HETATM   20  C   UNL     1      43.340 -18.587   2.633  1.00  0.00     0.008 A 
HETATM   21  C   UNL     1      43.503 -19.908   2.208  1.00  0.00     0.001 A 
HETATM   22  C   UNL     1      43.875 -20.893   3.118  1.00  0.00     0.000 A 
HETATM   23  C   UNL     1      44.091 -20.560   4.452  1.00  0.00     0.001 A 
HETATM   24  C   UNL     1      43.937 -19.239   4.877  1.00  0.00     0.008 A 
ENDBRANCH  16  19
ENDBRANCH  15  16
ENDBRANCH  12  15
ENDBRANCH   1  11
BRANCH   8  25
HETATM   25  C   UNL     1      41.692 -10.124   0.403  1.00  0.00     0.270 C 
HETATM   26  N   UNL     1      41.557  -9.983   1.758  1.00  0.00    -0.365 N 
HETATM   27  H   UNL     1      40.998 -10.658   2.263  1.00  0.00     0.159 HD
HETATM   28  H   UNL     1      42.047  -9.240   2.231  1.00  0.00     0.159 HD
HETATM   29  O   UNL     1      42.383  -9.350  -0.248  1.00  0.00    -0.266 OA
ENDBRANCH   8  25
TORSDOF 6
ENDMDL
MODEL 5
REMARK VINA RESULT:      -8.2      5.772      9.204
REMARK  6 active torsions:
REMARK  status: ('A' for Active; 'I' for Inactive)
REMARK    1  A    between atoms: C_2  and  C_3 
REMARK    2  A    between atoms: C_3  and  C_4 
REMARK    3  A    between atoms: C_3  and  C_10 
REMARK    4  A    between atoms: C_10  and  C_11 
REMARK       I    between atoms: C_11  and  N_12 
REMARK    5  A    between atoms: N_12  and  C_13 
REMARK    6  A    between atoms: C_20  and  C_21 
REMARK       I    between atoms: C_21  and  N_22 
ROOT
HETATM    1  C   UNL     1      44.143 -12.098   6.672  1.00  0.00     0.035 A 
HETATM    2  C   UNL     1      43.455 -11.524   7.751  1.00  0.00     0.046 A 
HETATM    3  C   UNL     1      44.105 -10.572   8.565  1.00  0.00     0.030 A 
HETATM    4  C   UNL     1      45.426 -10.240   8.287  1.00  0.00     0.063 A 
HETATM    5  N   UNL     1      45.776  -9.322   9.237  1.00  0.00    -0.277 N 
HETATM    6  H   UNL     1      46.674  -8.866   9.346  1.00  0.00     0.189 HD
HETATM    7  N   UNL     1      44.794  -9.006  10.095  1.00  0.00    -0.168 NA
HETATM    8  C   UNL     1      43.752  -9.767   9.690  1.00  0.00     0.156 A 
HETATM    9  C   UNL     1      46.142 -10.796   7.225  1.00  0.00     0.034 A 
HETATM   10  C   UNL     1      45.468 -11.722   6.419  1.00  0.00     0.032 A 
ENDROOT
BRANCH   1  11
HETATM   11  N   UNL     1      43.563 -13.029   5.782  1.00  0.00    -0.327 N 
HETATM   12  C   UNL     1      43.126 -12.796   4.492  1.00  0.00     0.223 C 
HETATM   13  O   UNL     1      43.071 -11.708   3.930  1.00  0.00    -0.273 OA
HETATM   14  H   UNL     1      43.485 -13.979   6.126  1.00  0.00     0.169 HD
BRANCH  12  15
HETATM   15  C   UNL     1      42.693 -14.058   3.765  1.00  0.00     0.116 C 
BRANCH  15  16
HETATM   16  C   UNL     1      42.437 -15.263   4.689  1.00  0.00     0.049 C 
BRANCH  16  17
HETATM   17  C   UNL     1      40.990 -15.386   5.123  1.00  0.00    -0.027 C 
HETATM   18  C   UNL     1      40.591 -15.862   6.311  1.00  0.00     0.007 C 
ENDBRANCH  16  17
BRANCH  16  19
HETATM   19  C   UNL     1      43.013 -16.559   4.129  1.00  0.00    -0.050 A 
HETATM   20  C   UNL     1      43.947 -17.334   4.834  1.00  0.00     0.008 A 
HETATM   21  C   UNL     1      44.434 -18.530   4.300  1.00  0.00     0.001 A 
HETATM   22  C   UNL     1      44.001 -18.964   3.051  1.00  0.00     0.000 A 
HETATM   23  C   UNL     1      43.078 -18.208   2.335  1.00  0.00     0.001 A 
HETATM   24  C   UNL     1      42.584 -17.017   2.870  1.00  0.00     0.008 A 
ENDBRANCH  16  19
ENDBRANCH  15  16
ENDBRANCH  12  15
ENDBRANCH   1  11
BRANCH   8  25
HETATM   25  C   UNL     1      42.450  -9.700  10.370  1.00  0.00     0.270 C 
HETATM   26  N   UNL     1      42.363 -10.485  11.488  1.00  0.00    -0.365 N 
HETATM   27  H   UNL     1      43.173 -11.023  11.768  1.00  0.00     0.159 HD
HETATM   28  H   UNL     1      41.514 -10.482  12.032  1.00  0.00     0.159 HD
HETATM   29  O   UNL     1      41.506  -9.007  10.009  1.00  0.00    -0.266 OA
ENDBRANCH   8  25
TORSDOF 6
ENDMDL
MODEL 6
REMARK VINA RESULT:      -8.2      3.988      6.155
REMARK  6 active torsions:
REMARK  status: ('A' for Active; 'I' for Inactive)
REMARK    1  A    between atoms: C_2  and  C_3 
REMARK    2  A    between atoms: C_3  and  C_4 
REMARK    3  A    between atoms: C_3  and  C_10 
REMARK    4  A    between atoms: C_10  and  C_11 
REMARK       I    between atoms: C_11  and  N_12 
REMARK    5  A    between atoms: N_12  and  C_13 
REMARK    6  A    between atoms: C_20  and  C_21 
REMARK       I    between atoms: C_21  and  N_22 
ROOT
HETATM    1  C   UNL     1      39.904 -13.049   3.305  1.00  0.00     0.035 A 
HETATM    2  C   UNL     1      39.879 -12.481   4.587  1.00  0.00     0.046 A 
HETATM    3  C   UNL     1      39.193 -11.265   4.798  1.00  0.00     0.030 A 
HETATM    4  C   UNL     1      38.573 -10.648   3.718  1.00  0.00     0.063 A 
HETATM    5  N   UNL     1      38.016  -9.507   4.223  1.00  0.00    -0.277 N 
HETATM    6  H   UNL     1      37.490  -8.806   3.716  1.00  0.00     0.189 HD
HETATM    7  N   UNL     1      38.196  -9.337   5.543  1.00  0.00    -0.168 NA
HETATM    8  C   UNL     1      38.918 -10.419   5.914  1.00  0.00     0.156 A 
HETATM    9  C   UNL     1      38.582 -11.183   2.428  1.00  0.00     0.034 A 
HETATM   10  C   UNL     1      39.251 -12.401   2.249  1.00  0.00     0.032 A 
ENDROOT
BRANCH   1  11
HETATM   11  N   UNL     1      40.531 -14.279   3.009  1.00  0.00    -0.327 N 
HETATM   12  C   UNL     1      41.882 -14.510   2.830  1.00  0.00     0.223 C 
HETATM   13  O   UNL     1      42.765 -13.660   2.793  1.00  0.00    -0.273 OA
HETATM   14  H   UNL     1      39.919 -15.084   2.948  1.00  0.00     0.169 HD
BRANCH  12  15
HETATM   15  C   UNL     1      42.227 -15.981   2.673  1.00  0.00     0.116 C 
BRANCH  15  16
HETATM   16  C   UNL     1      43.214 -16.514   3.727  1.00  0.00     0.049 C 
BRANCH  16  17
HETATM   17  C   UNL     1      42.862 -16.095   5.141  1.00  0.00    -0.027 C 
HETATM   18  C   UNL     1      43.654 -15.360   5.936  1.00  0.00     0.007 C 
ENDBRANCH  16  17
BRANCH  16  19
HETATM   19  C   UNL     1      43.466 -18.011   3.586  1.00  0.00    -0.050 A 
HETATM   20  C   UNL     1      43.983 -18.790   4.634  1.00  0.00     0.008 A 
HETATM   21  C   UNL     1      44.177 -20.164   4.475  1.00  0.00     0.001 A 
HETATM   22  C   UNL     1      43.865 -20.779   3.266  1.00  0.00     0.000 A 
HETATM   23  C   UNL     1      43.354 -20.024   2.215  1.00  0.00     0.001 A 
HETATM   24  C   UNL     1      43.152 -18.651   2.374  1.00  0.00     0.008 A 
ENDBRANCH  16  19
ENDBRANCH  15  16
ENDBRANCH  12  15
ENDBRANCH   1  11
BRANCH   8  25
HETATM   25  C   UNL     1      39.315 -10.626   7.314  1.00  0.00     0.270 C 
HETATM   26  N   UNL     1      40.649 -10.434   7.552  1.00  0.00    -0.365 N 
HETATM   27  H   UNL     1      41.244 -10.158   6.781  1.00  0.00     0.159 HD
HETATM   28  H   UNL     1      41.006 -10.530   8.489  1.00  0.00     0.159 HD
HETATM   29  O   UNL     1      38.549 -10.931   8.221  1.00  0.00    -0.266 OA
ENDBRANCH   8  25
TORSDOF 6
ENDMDL
MODEL 7
REMARK VINA RESULT:      -8.1      2.395      3.979
REMARK  6 active torsions:
REMARK  status: ('A' for Active; 'I' for Inactive)
REMARK    1  A    between atoms: C_2  and  C_3 
REMARK    2  A    between atoms: C_3  and  C_4 
REMARK    3  A    between atoms: C_3  and  C_10 
REMARK    4  A    between atoms: C_10  and  C_11 
REMARK       I    between atoms: C_11  and  N_12 
REMARK    5  A    between atoms: N_12  and  C_13 
REMARK    6  A    between atoms: C_20  and  C_21 
REMARK       I    between atoms: C_21  and  N_22 
ROOT
HETATM    1  C   UNL     1      40.357 -14.172  -0.238  1.00  0.00     0.035 A 
HETATM    2  C   UNL     1      40.747 -12.837  -0.413  1.00  0.00     0.046 A 
HETATM    3  C   UNL     1      40.211 -12.087  -1.483  1.00  0.00     0.030 A 
HETATM    4  C   UNL     1      39.320 -12.703  -2.353  1.00  0.00     0.063 A 
HETATM    5  N   UNL     1      38.993 -11.747  -3.273  1.00  0.00    -0.277 N 
HETATM    6  H   UNL     1      38.369 -11.847  -4.065  1.00  0.00     0.189 HD
HETATM    7  N   UNL     1      39.572 -10.554  -3.066  1.00  0.00    -0.168 NA
HETATM    8  C   UNL     1      40.325 -10.746  -1.959  1.00  0.00     0.156 A 
HETATM    9  C   UNL     1      38.914 -14.032  -2.213  1.00  0.00     0.034 A 
HETATM   10  C   UNL     1      39.443 -14.747  -1.130  1.00  0.00     0.032 A 
ENDROOT
BRANCH   1  11
HETATM   11  N   UNL     1      40.811 -14.985   0.823  1.00  0.00    -0.327 N 
HETATM   12  C   UNL     1      40.337 -15.013   2.121  1.00  0.00     0.223 C 
HETATM   13  O   UNL     1      39.504 -14.254   2.606  1.00  0.00    -0.273 OA
HETATM   14  H   UNL     1      41.549 -15.639   0.594  1.00  0.00     0.169 HD
BRANCH  12  15
HETATM   15  C   UNL     1      40.951 -16.116   2.965  1.00  0.00     0.116 C 
BRANCH  15  16
HETATM   16  C   UNL     1      42.483 -16.219   2.851  1.00  0.00     0.049 C 
BRANCH  16  17
HETATM   17  C   UNL     1      43.216 -15.217   3.722  1.00  0.00    -0.027 C 
HETATM   18  C   UNL     1      42.656 -14.533   4.730  1.00  0.00     0.007 C 
ENDBRANCH  16  17
BRANCH  16  19
HETATM   19  C   UNL     1      42.985 -17.649   3.022  1.00  0.00    -0.050 A 
HETATM   20  C   UNL     1      42.823 -18.627   2.028  1.00  0.00     0.008 A 
HETATM   21  C   UNL     1      43.319 -19.921   2.209  1.00  0.00     0.001 A 
HETATM   22  C   UNL     1      43.977 -20.258   3.388  1.00  0.00     0.000 A 
HETATM   23  C   UNL     1      44.144 -19.303   4.387  1.00  0.00     0.001 A 
HETATM   24  C   UNL     1      43.657 -18.007   4.204  1.00  0.00     0.008 A 
ENDBRANCH  16  19
ENDBRANCH  15  16
ENDBRANCH  12  15
ENDBRANCH   1  11
BRANCH   8  25
HETATM   25  C   UNL     1      41.118  -9.653  -1.378  1.00  0.00     0.270 C 
HETATM   26  N   UNL     1      40.415  -8.495  -1.185  1.00  0.00    -0.365 N 
HETATM   27  H   UNL     1      39.434  -8.476  -1.431  1.00  0.00     0.159 HD
HETATM   28  H   UNL     1      40.873  -7.700  -0.767  1.00  0.00     0.159 HD
HETATM   29  O   UNL     1      42.301  -9.735  -1.067  1.00  0.00    -0.266 OA
ENDBRANCH   8  25
TORSDOF 6
ENDMDL
MODEL 8
REMARK VINA RESULT:      -8.0      2.872      7.770
REMARK  6 active torsions:
REMARK  status: ('A' for Active; 'I' for Inactive)
REMARK    1  A    between atoms: C_2  and  C_3 
REMARK    2  A    between atoms: C_3  and  C_4 
REMARK    3  A    between atoms: C_3  and  C_10 
REMARK    4  A    between atoms: C_10  and  C_11 
REMARK       I    between atoms: C_11  and  N_12 
REMARK    5  A    between atoms: N_12  and  C_13 
REMARK    6  A    between atoms: C_20  and  C_21 
REMARK       I    between atoms: C_21  and  N_22 
ROOT
HETATM    1  C   UNL     1      42.529 -15.804   2.083  1.00  0.00     0.035 A 
HETATM    2  C   UNL     1      42.876 -17.163   2.107  1.00  0.00     0.046 A 
HETATM    3  C   UNL     1      43.436 -17.719   3.277  1.00  0.00     0.030 A 
HETATM    4  C   UNL     1      43.650 -16.895   4.376  1.00  0.00     0.063 A 
HETATM    5  N   UNL     1      44.205 -17.701   5.330  1.00  0.00    -0.277 N 
HETATM    6  H   UNL     1      44.499 -17.434   6.262  1.00  0.00     0.189 HD
HETATM    7  N   UNL     1      44.348 -18.984   4.961  1.00  0.00    -0.168 NA
HETATM    8  C   UNL     1      43.873 -19.012   3.695  1.00  0.00     0.156 A 
HETATM    9  C   UNL     1      43.322 -15.538   4.385  1.00  0.00     0.034 A 
HETATM   10  C   UNL     1      42.747 -15.015   3.219  1.00  0.00     0.032 A 
ENDROOT
BRANCH   1  11
HETATM   11  N   UNL     1      41.929 -15.171   0.972  1.00  0.00    -0.327 N 
HETATM   12  C   UNL     1      40.581 -15.085   0.682  1.00  0.00     0.223 C 
HETATM   13  O   UNL     1      39.671 -15.639   1.290  1.00  0.00    -0.273 OA
HETATM   14  H   UNL     1      42.564 -14.707   0.333  1.00  0.00     0.169 HD
BRANCH  12  15
HETATM   15  C   UNL     1      40.276 -14.201  -0.515  1.00  0.00     0.116 C 
BRANCH  15  16
HETATM   16  C   UNL     1      40.721 -12.736  -0.347  1.00  0.00     0.049 C 
BRANCH  16  17
HETATM   17  C   UNL     1      40.812 -11.986  -1.661  1.00  0.00    -0.027 C 
HETATM   18  C   UNL     1      40.959 -12.567  -2.860  1.00  0.00     0.007 C 
ENDBRANCH  16  17
BRANCH  16  19
HETATM   19  C   UNL     1      39.914 -12.000   0.716  1.00  0.00    -0.050 A 
HETATM   20  C   UNL     1      38.538 -11.752   0.579  1.00  0.00     0.008 A 
HETATM   21  C   UNL     1      37.826 -11.096   1.586  1.00  0.00     0.001 A 
HETATM   22  C   UNL     1      38.479 -10.671   2.740  1.00  0.00     0.000 A 
HETATM   23  C   UNL     1      39.842 -10.904   2.892  1.00  0.00     0.001 A 
HETATM   24  C   UNL     1      40.554 -11.567   1.891  1.00  0.00     0.008 A 
ENDBRANCH  16  19
ENDBRANCH  15  16
ENDBRANCH  12  15
ENDBRANCH   1  11
BRANCH   8  25
HETATM   25  C   UNL     1      43.833 -20.264   2.924  1.00  0.00     0.270 C 
HETATM   26  N   UNL     1      43.998 -21.392   3.682  1.00  0.00    -0.365 N 
HETATM   27  H   UNL     1      44.114 -21.292   4.683  1.00  0.00     0.159 HD
HETATM   28  H   UNL     1      43.959 -22.297   3.240  1.00  0.00     0.159 HD
HETATM   29  O   UNL     1      43.658 -20.335   1.713  1.00  0.00    -0.266 OA
ENDBRANCH   8  25
TORSDOF 6
ENDMDL
MODEL 9
REMARK VINA RESULT:      -7.9      5.151      8.129
REMARK  6 active torsions:
REMARK  status: ('A' for Active; 'I' for Inactive)
REMARK    1  A    between atoms: C_2  and  C_3 
REMARK    2  A    between atoms: C_3  and  C_4 
REMARK    3  A    between atoms: C_3  and  C_10 
REMARK    4  A    between atoms: C_10  and  C_11 
REMARK       I    between atoms: C_11  and  N_12 
REMARK    5  A    between atoms: N_12  and  C_13 
REMARK    6  A    between atoms: C_20  and  C_21 
REMARK       I    between atoms: C_21  and  N_22 
ROOT
HETATM    1  C   UNL     1      42.508 -12.158   5.289  1.00  0.00     0.035 A 
HETATM    2  C   UNL     1      43.543 -11.731   6.133  1.00  0.00     0.046 A 
HETATM    3  C   UNL     1      43.292 -10.724   7.090  1.00  0.00     0.030 A 
HETATM    4  C   UNL     1      42.022 -10.163   7.156  1.00  0.00     0.063 A 
HETATM    5  N   UNL     1      42.091  -9.227   8.149  1.00  0.00    -0.277 N 
HETATM    6  H   UNL     1      41.349  -8.616   8.468  1.00  0.00     0.189 HD
HETATM    7  N   UNL     1      43.287  -9.144   8.754  1.00  0.00    -0.168 NA
HETATM    8  C   UNL     1      44.040 -10.067   8.113  1.00  0.00     0.156 A 
HETATM    9  C   UNL     1      40.971 -10.560   6.327  1.00  0.00     0.034 A 
HETATM   10  C   UNL     1      41.240 -11.577   5.402  1.00  0.00     0.032 A 
ENDROOT
BRANCH   1  11
HETATM   11  N   UNL     1      42.657 -13.185   4.330  1.00  0.00    -0.327 N 
HETATM   12  C   UNL     1      42.996 -13.046   2.997  1.00  0.00     0.223 C 
HETATM   13  O   UNL     1      43.124 -11.989   2.388  1.00  0.00    -0.273 OA
HETATM   14  H   UNL     1      42.524 -14.130   4.671  1.00  0.00     0.169 HD
BRANCH  12  15
HETATM   15  C   UNL     1      43.216 -14.371   2.289  1.00  0.00     0.116 C 
BRANCH  15  16
HETATM   16  C   UNL     1      42.235 -15.482   2.707  1.00  0.00     0.049 C 
BRANCH  16  17
HETATM   17  C   UNL     1      41.136 -15.722   1.691  1.00  0.00    -0.027 C 
HETATM   18  C   UNL     1      39.825 -15.699   1.970  1.00  0.00     0.007 C 
ENDBRANCH  16  17
BRANCH  16  19
HETATM   19  C   UNL     1      42.950 -16.758   3.140  1.00  0.00    -0.050 A 
HETATM   20  C   UNL     1      43.589 -16.878   4.384  1.00  0.00     0.008 A 
HETATM   21  C   UNL     1      44.212 -18.072   4.756  1.00  0.00     0.001 A 
HETATM   22  C   UNL     1      44.211 -19.160   3.888  1.00  0.00     0.000 A 
HETATM   23  C   UNL     1      43.585 -19.059   2.649  1.00  0.00     0.001 A 
HETATM   24  C   UNL     1      42.955 -17.870   2.278  1.00  0.00     0.008 A 
ENDBRANCH  16  19
ENDBRANCH  15  16
ENDBRANCH  12  15
ENDBRANCH   1  11
BRANCH   8  25
HETATM   25  C   UNL     1      45.437 -10.310   8.498  1.00  0.00     0.270 C 
HETATM   26  N   UNL     1      46.353  -9.892   7.569  1.00  0.00    -0.365 N 
HETATM   27  H   UNL     1      46.018  -9.448   6.724  1.00  0.00     0.159 HD
HETATM   28  H   UNL     1      47.337  -9.995   7.761  1.00  0.00     0.159 HD
HETATM   29  O   UNL     1      45.795 -10.826   9.550  1.00  0.00    -0.266 OA
ENDBRANCH   8  25
TORSDOF 6
ENDMDL
MODEL 10
REMARK VINA RESULT:      -7.7      5.360      8.075
REMARK  6 active torsions:
REMARK  status: ('A' for Active; 'I' for Inactive)
REMARK    1  A    between atoms: C_2  and  C_3 
REMARK    2  A    between atoms: C_3  and  C_4 
REMARK    3  A    between atoms: C_3  and  C_10 
REMARK    4  A    between atoms: C_10  and  C_11 
REMARK       I    between atoms: C_11  and  N_12 
REMARK    5  A    between atoms: N_12  and  C_13 
REMARK    6  A    between atoms: C_20  and  C_21 
REMARK       I    between atoms: C_21  and  N_22 
ROOT
HETATM    1  C   UNL     1      43.242 -14.206   5.913  1.00  0.00     0.035 A 
HETATM    2  C   UNL     1      42.570 -14.373   4.694  1.00  0.00     0.046 A 
HETATM    3  C   UNL     1      42.641 -15.613   4.023  1.00  0.00     0.030 A 
HETATM    4  C   UNL     1      43.396 -16.636   4.582  1.00  0.00     0.063 A 
HETATM    5  N   UNL     1      43.285 -17.685   3.713  1.00  0.00    -0.277 N 
HETATM    6  H   UNL     1      43.714 -18.599   3.796  1.00  0.00     0.189 HD
HETATM    7  N   UNL     1      42.502 -17.446   2.648  1.00  0.00    -0.168 NA
HETATM    8  C   UNL     1      42.092 -16.169   2.828  1.00  0.00     0.156 A 
HETATM    9  C   UNL     1      44.083 -16.503   5.791  1.00  0.00     0.034 A 
HETATM   10  C   UNL     1      43.979 -15.270   6.448  1.00  0.00     0.032 A 
ENDROOT
BRANCH   1  11
HETATM   11  N   UNL     1      43.197 -13.016   6.673  1.00  0.00    -0.327 N 
HETATM   12  C   UNL     1      43.692 -11.775   6.319  1.00  0.00     0.223 C 
HETATM   13  O   UNL     1      44.356 -11.517   5.320  1.00  0.00    -0.273 OA
HETATM   14  H   UNL     1      42.722 -13.080   7.566  1.00  0.00     0.169 HD
BRANCH  12  15
HETATM   15  C   UNL     1      43.338 -10.679   7.309  1.00  0.00     0.116 C 
BRANCH  15  16
HETATM   16  C   UNL     1      44.239 -10.641   8.557  1.00  0.00     0.049 C 
BRANCH  16  17
HETATM   17  C   UNL     1      45.714 -10.532   8.227  1.00  0.00    -0.027 C 
HETATM   18  C   UNL     1      46.354  -9.380   7.975  1.00  0.00     0.007 C 
ENDBRANCH  16  17
BRANCH  16  19
HETATM   19  C   UNL     1      43.771  -9.613   9.582  1.00  0.00    -0.050 A 
HETATM   20  C   UNL     1      44.081  -9.715  10.947  1.00  0.00     0.008 A 
HETATM   21  C   UNL     1      43.657  -8.740  11.853  1.00  0.00     0.001 A 
HETATM   22  C   UNL     1      42.909  -7.653  11.410  1.00  0.00     0.000 A 
HETATM   23  C   UNL     1      42.588  -7.535  10.061  1.00  0.00     0.001 A 
HETATM   24  C   UNL     1      43.019  -8.505   9.152  1.00  0.00     0.008 A 
ENDBRANCH  16  19
ENDBRANCH  15  16
ENDBRANCH  12  15
ENDBRANCH   1  11
BRANCH   8  25
HETATM   25  C   UNL     1      41.183 -15.520   1.872  1.00  0.00     0.270 C 
HETATM   26  N   UNL     1      41.819 -14.785   0.908  1.00  0.00    -0.365 N 
HETATM   27  H   UNL     1      42.830 -14.755   0.909  1.00  0.00     0.159 HD
HETATM   28  H   UNL     1      41.275 -14.326   0.194  1.00  0.00     0.159 HD
HETATM   29  O   UNL     1      39.961 -15.612   1.895  1.00  0.00    -0.266 OA
ENDBRANCH   8  25
TORSDOF 6
ENDMDL
