MODEL 1
REMARK VINA RESULT:     -10.3      0.000      0.000
REMARK  6 active torsions:
REMARK  status: ('A' for Active; 'I' for Inactive)
REMARK    1  A    between atoms: N_1  and  C_2 
REMARK    2  A    between atoms: C_6  and  C_8 
REMARK    3  A    between atoms: C_13  and  C_18 
REMARK    4  A    between atoms: C_24  and  C_28 
REMARK       I    between atoms: C_28  and  N_30 
REMARK    5  A    between atoms: N_30  and  C_31 
REMARK    6  A    between atoms: C_31  and  C_32 
ROOT
HETATM    1  C   UNL     1      42.604 -11.078   3.128  1.00  0.00     0.084 C 
HETATM    2  C   UNL     1      41.383 -10.902   2.227  1.00  0.00     0.188 C 
HETATM    3  O   UNL     1      40.137 -11.203   2.873  1.00  0.00    -0.350 OA
HETATM    4  C   UNL     1      39.992 -10.694   4.136  1.00  0.00     0.075 A 
HETATM    5  C   UNL     1      38.709 -10.765   4.678  1.00  0.00     0.038 A 
HETATM    6  C   UNL     1      38.468 -10.325   5.984  1.00  0.00     0.020 A 
HETATM    7  C   UNL     1      39.514  -9.797   6.750  1.00  0.00     0.032 A 
HETATM    8  C   UNL     1      40.805  -9.748   6.201  1.00  0.00     0.027 A 
HETATM    9  C   UNL     1      41.056 -10.211   4.901  1.00  0.00    -0.023 A 
HETATM   10  C   UNL     1      42.455 -10.171   4.350  1.00  0.00     0.056 C 
ENDROOT
BRANCH   1  11
HETATM   11  C   UNL     1      42.852 -12.507   3.528  1.00  0.00     0.111 A 
HETATM   12  N   UNL     1      42.958 -12.955   4.766  1.00  0.00    -0.233 NA
HETATM   13  C   UNL     1      43.110 -14.315   4.658  1.00  0.00     0.085 A 
HETATM   14  C   UNL     1      43.248 -15.290   5.653  1.00  0.00     0.035 A 
HETATM   15  C   UNL     1      43.115 -14.709   3.328  1.00  0.00     0.063 A 
HETATM   16  C   UNL     1      43.380 -16.635   5.267  1.00  0.00     0.016 A 
HETATM   17  C   UNL     1      43.379 -17.032   3.913  1.00  0.00    -0.005 A 
HETATM   18  C   UNL     1      43.251 -16.038   2.920  1.00  0.00     0.045 A 
HETATM   19  N   UNL     1      42.957 -13.543   2.630  1.00  0.00    -0.342 N 
HETATM   20  H   UNL     1      42.903 -13.457   1.623  1.00  0.00     0.167 HD
BRANCH  17  21
HETATM   21  C   UNL     1      43.510 -18.451   3.517  1.00  0.00     0.071 A 
HETATM   22  C   UNL     1      43.242 -18.901   2.240  1.00  0.00     0.052 A 
HETATM   23  C   UNL     1      43.417 -20.247   2.023  1.00  0.00     0.122 A 
HETATM   24  N   UNL     1      43.825 -21.104   2.974  1.00  0.00    -0.231 NA
HETATM   25  C   UNL     1      44.082 -20.579   4.172  1.00  0.00     0.199 A 
HETATM   26  N   UNL     1      43.931 -19.292   4.491  1.00  0.00    -0.218 NA
BRANCH  25  27
HETATM   27  N   UNL     1      44.486 -21.439   5.173  1.00  0.00    -0.271 NA
HETATM   28  H   UNL     1      43.822 -22.197   5.246  1.00  0.00     0.127 HD
HETATM   29  H   UNL     1      44.676 -20.907   6.010  1.00  0.00     0.127 HD
ENDBRANCH  25  27
ENDBRANCH  17  21
ENDBRANCH   1  11
BRANCH   7  30
HETATM   30  C   UNL     1      39.329  -9.315   8.151  1.00  0.00     0.251 C 
HETATM   31  O   UNL     1      38.718  -8.272   8.360  1.00  0.00    -0.268 OA
HETATM   32  N   UNL     1      39.846 -10.100   9.156  1.00  0.00    -0.353 N 
HETATM   33  H   UNL     1      40.296 -10.978   8.952  1.00  0.00     0.163 HD
BRANCH  32  34
HETATM   34  C   UNL     1      39.763  -9.715  10.547  1.00  0.00     0.161 C 
BRANCH  34  35
HETATM   35  C   UNL     1      41.120  -9.319  11.066  1.00  0.00    -0.041 A 
HETATM   36  C   UNL     1      42.173  -9.081  10.170  1.00  0.00     0.009 A 
HETATM   37  C   UNL     1      43.438  -8.725  10.640  1.00  0.00     0.001 A 
HETATM   38  C   UNL     1      43.665  -8.614  12.011  1.00  0.00     0.000 A 
HETATM   39  C   UNL     1      42.631  -8.862  12.911  1.00  0.00     0.001 A 
HETATM   40  C   UNL     1      41.364  -9.216  12.443  1.00  0.00     0.009 A 
ENDBRANCH  34  35
ENDBRANCH  32  34
ENDBRANCH   7  30
TORSDOF 6
ENDMDL
MODEL 2
REMARK VINA RESULT:      -9.9      1.826      2.651
REMARK  6 active torsions:
REMARK  status: ('A' for Active; 'I' for Inactive)
REMARK    1  A    between atoms: N_1  and  C_2 
REMARK    2  A    between atoms: C_6  and  C_8 
REMARK    3  A    between atoms: C_13  and  C_18 
REMARK    4  A    between atoms: C_24  and  C_28 
REMARK       I    between atoms: C_28  and  N_30 
REMARK    5  A    between atoms: N_30  and  C_31 
REMARK    6  A    between atoms: C_31  and  C_32 
ROOT
HETATM    1  C   UNL     1      40.682 -10.458   2.781  1.00  0.00     0.084 C 
HETATM    2  C   UNL     1      39.279  -9.968   3.137  1.00  0.00     0.188 C 
HETATM    3  O   UNL     1      38.895 -10.243   4.493  1.00  0.00    -0.350 OA
HETATM    4  C   UNL     1      39.849  -9.978   5.439  1.00  0.00     0.075 A 
HETATM    5  C   UNL     1      39.417 -10.004   6.765  1.00  0.00     0.038 A 
HETATM    6  C   UNL     1      40.325  -9.803   7.809  1.00  0.00     0.020 A 
HETATM    7  C   UNL     1      41.675  -9.561   7.527  1.00  0.00     0.032 A 
HETATM    8  C   UNL     1      42.103  -9.557   6.190  1.00  0.00     0.027 A 
HETATM    9  C   UNL     1      41.199  -9.781   5.141  1.00  0.00    -0.023 A 
HETATM   10  C   UNL     1      41.692  -9.797   3.720  1.00  0.00     0.056 C 
ENDROOT
BRANCH   1  11
HETATM   11  C   UNL     1      40.814 -11.957   2.795  1.00  0.00     0.111 A 
HETATM   12  N   UNL     1      39.929 -12.815   2.323  1.00  0.00    -0.233 NA
HETATM   13  C   UNL     1      40.492 -14.057   2.483  1.00  0.00     0.085 A 
HETATM   14  C   UNL     1      40.000 -15.322   2.140  1.00  0.00     0.035 A 
HETATM   15  C   UNL     1      41.739 -13.962   3.082  1.00  0.00     0.063 A 
HETATM   16  C   UNL     1      40.794 -16.451   2.408  1.00  0.00     0.016 A 
HETATM   17  C   UNL     1      42.066 -16.349   3.011  1.00  0.00    -0.005 A 
HETATM   18  C   UNL     1      42.543 -15.069   3.364  1.00  0.00     0.045 A 
HETATM   19  N   UNL     1      41.919 -12.619   3.277  1.00  0.00    -0.342 N 
HETATM   20  H   UNL     1      42.736 -12.184   3.685  1.00  0.00     0.167 HD
BRANCH  17  21
HETATM   21  C   UNL     1      42.897 -17.542   3.282  1.00  0.00     0.071 A 
HETATM   22  C   UNL     1      43.665 -17.678   4.421  1.00  0.00     0.052 A 
HETATM   23  C   UNL     1      44.378 -18.847   4.535  1.00  0.00     0.122 A 
HETATM   24  N   UNL     1      44.354 -19.823   3.611  1.00  0.00    -0.231 NA
HETATM   25  C   UNL     1      43.568 -19.616   2.553  1.00  0.00     0.199 A 
HETATM   26  N   UNL     1      42.848 -18.514   2.341  1.00  0.00    -0.218 NA
BRANCH  25  27
HETATM   27  N   UNL     1      43.537 -20.594   1.580  1.00  0.00    -0.271 NA
HETATM   28  H   UNL     1      42.589 -20.697   1.246  1.00  0.00     0.127 HD
HETATM   29  H   UNL     1      43.999 -21.422   1.928  1.00  0.00     0.127 HD
ENDBRANCH  25  27
ENDBRANCH  17  21
ENDBRANCH   1  11
BRANCH   7  30
HETATM   30  C   UNL     1      42.699  -9.345   8.591  1.00  0.00     0.251 C 
HETATM   31  O   UNL     1      43.493  -8.414   8.491  1.00  0.00    -0.268 OA
HETATM   32  N   UNL     1      42.681 -10.207   9.662  1.00  0.00    -0.353 N 
HETATM   33  H   UNL     1      41.982 -10.929   9.739  1.00  0.00     0.163 HD
BRANCH  32  34
HETATM   34  C   UNL     1      43.650 -10.120  10.733  1.00  0.00     0.161 C 
BRANCH  34  35
HETATM   35  C   UNL     1      43.043  -9.452  11.938  1.00  0.00    -0.041 A 
HETATM   36  C   UNL     1      43.586  -8.254  12.425  1.00  0.00     0.009 A 
HETATM   37  C   UNL     1      43.039  -7.632  13.548  1.00  0.00     0.001 A 
HETATM   38  C   UNL     1      41.951  -8.209  14.202  1.00  0.00     0.000 A 
HETATM   39  C   UNL     1      41.413  -9.407  13.737  1.00  0.00     0.001 A 
HETATM   40  C   UNL     1      41.957 -10.028  12.611  1.00  0.00     0.009 A 
ENDBRANCH  34  35
ENDBRANCH  32  34
ENDBRANCH   7  30
TORSDOF 6
ENDMDL
MODEL 3
REMARK VINA RESULT:      -9.8      1.621      2.063
REMARK  6 active torsions:
REMARK  status: ('A' for Active; 'I' for Inactive)
REMARK    1  A    between atoms: N_1  and  C_2 
REMARK    2  A    between atoms: C_6  and  C_8 
REMARK    3  A    between atoms: C_13  and  C_18 
REMARK    4  A    between atoms: C_24  and  C_28 
REMARK       I    between atoms: C_28  and  N_30 
REMARK    5  A    between atoms: N_30  and  C_31 
REMARK    6  A    between atoms: C_31  and  C_32 
ROOT
HETATM    1  C   UNL     1      41.385 -11.697   1.182  1.00  0.00     0.084 C 
HETATM    2  C   UNL     1      39.870 -11.695   0.984  1.00  0.00     0.188 C 
HETATM    3  O   UNL     1      39.124 -11.660   2.210  1.00  0.00    -0.350 OA
HETATM    4  C   UNL     1      39.577 -10.772   3.148  1.00  0.00     0.075 A 
HETATM    5  C   UNL     1      38.732 -10.548   4.234  1.00  0.00     0.038 A 
HETATM    6  C   UNL     1      39.127  -9.703   5.276  1.00  0.00     0.020 A 
HETATM    7  C   UNL     1      40.371  -9.064   5.226  1.00  0.00     0.032 A 
HETATM    8  C   UNL     1      41.223  -9.312   4.138  1.00  0.00     0.027 A 
HETATM    9  C   UNL     1      40.840 -10.178   3.103  1.00  0.00    -0.023 A 
HETATM   10  C   UNL     1      41.785 -10.445   1.963  1.00  0.00     0.056 C 
ENDROOT
BRANCH   1  11
HETATM   11  C   UNL     1      41.901 -12.947   1.842  1.00  0.00     0.111 A 
HETATM   12  N   UNL     1      42.252 -13.062   3.109  1.00  0.00    -0.233 NA
HETATM   13  C   UNL     1      42.591 -14.382   3.284  1.00  0.00     0.085 A 
HETATM   14  C   UNL     1      43.017 -15.060   4.431  1.00  0.00     0.035 A 
HETATM   15  C   UNL     1      42.463 -15.087   2.097  1.00  0.00     0.063 A 
HETATM   16  C   UNL     1      43.294 -16.436   4.339  1.00  0.00     0.016 A 
HETATM   17  C   UNL     1      43.156 -17.151   3.131  1.00  0.00    -0.005 A 
HETATM   18  C   UNL     1      42.737 -16.451   1.979  1.00  0.00     0.045 A 
HETATM   19  N   UNL     1      42.031 -14.153   1.194  1.00  0.00    -0.342 N 
HETATM   20  H   UNL     1      41.819 -14.324   0.219  1.00  0.00     0.167 HD
BRANCH  17  21
HETATM   21  C   UNL     1      43.441 -18.599   3.045  1.00  0.00     0.071 A 
HETATM   22  C   UNL     1      43.302 -19.324   1.878  1.00  0.00     0.052 A 
HETATM   23  C   UNL     1      43.612 -20.660   1.955  1.00  0.00     0.122 A 
HETATM   24  N   UNL     1      44.030 -21.261   3.082  1.00  0.00    -0.231 NA
HETATM   25  C   UNL     1      44.156 -20.480   4.156  1.00  0.00     0.199 A 
HETATM   26  N   UNL     1      43.869 -19.178   4.192  1.00  0.00    -0.218 NA
BRANCH  25  27
HETATM   27  N   UNL     1      44.567 -21.074   5.332  1.00  0.00    -0.271 NA
HETATM   28  H   UNL     1      43.944 -20.797   6.077  1.00  0.00     0.127 HD
HETATM   29  H   UNL     1      45.554 -20.900   5.464  1.00  0.00     0.127 HD
ENDBRANCH  25  27
ENDBRANCH  17  21
ENDBRANCH   1  11
BRANCH   7  30
HETATM   30  C   UNL     1      40.860  -8.155   6.304  1.00  0.00     0.251 C 
HETATM   31  O   UNL     1      40.151  -7.229   6.687  1.00  0.00    -0.268 OA
HETATM   32  N   UNL     1      42.097  -8.427   6.841  1.00  0.00    -0.353 N 
HETATM   33  H   UNL     1      42.630  -9.228   6.541  1.00  0.00     0.163 HD
BRANCH  32  34
HETATM   34  C   UNL     1      42.690  -7.593   7.863  1.00  0.00     0.161 C 
BRANCH  34  35
HETATM   35  C   UNL     1      43.567  -8.414   8.770  1.00  0.00    -0.041 A 
HETATM   36  C   UNL     1      44.948  -8.488   8.535  1.00  0.00     0.009 A 
HETATM   37  C   UNL     1      45.768  -9.255   9.363  1.00  0.00     0.001 A 
HETATM   38  C   UNL     1      45.214  -9.965  10.427  1.00  0.00     0.000 A 
HETATM   39  C   UNL     1      43.842  -9.911  10.662  1.00  0.00     0.001 A 
HETATM   40  C   UNL     1      43.019  -9.141   9.836  1.00  0.00     0.009 A 
ENDBRANCH  34  35
ENDBRANCH  32  34
ENDBRANCH   7  30
TORSDOF 6
ENDMDL
MODEL 4
REMARK VINA RESULT:      -9.8      2.839     10.781
REMARK  6 active torsions:
REMARK  status: ('A' for Active; 'I' for Inactive)
REMARK    1  A    between atoms: N_1  and  C_2 
REMARK    2  A    between atoms: C_6  and  C_8 
REMARK    3  A    between atoms: C_13  and  C_18 
REMARK    4  A    between atoms: C_24  and  C_28 
REMARK       I    between atoms: C_28  and  N_30 
REMARK    5  A    between atoms: N_30  and  C_31 
REMARK    6  A    between atoms: C_31  and  C_32 
ROOT
HETATM    1  C   UNL     1      40.361 -10.058   5.983  1.00  0.00     0.084 C 
HETATM    2  C   UNL     1      41.659  -9.599   5.319  1.00  0.00     0.188 C 
HETATM    3  O   UNL     1      42.828 -10.281   5.797  1.00  0.00    -0.350 OA
HETATM    4  C   UNL     1      42.704 -11.638   5.928  1.00  0.00     0.075 A 
HETATM    5  C   UNL     1      43.888 -12.340   6.152  1.00  0.00     0.038 A 
HETATM    6  C   UNL     1      43.863 -13.723   6.356  1.00  0.00     0.020 A 
HETATM    7  C   UNL     1      42.646 -14.414   6.323  1.00  0.00     0.032 A 
HETATM    8  C   UNL     1      41.458 -13.696   6.117  1.00  0.00     0.027 A 
HETATM    9  C   UNL     1      41.477 -12.304   5.935  1.00  0.00    -0.023 A 
HETATM   10  C   UNL     1      40.185 -11.558   5.744  1.00  0.00     0.056 C 
ENDROOT
BRANCH   1  11
HETATM   11  C   UNL     1      40.285  -9.721   7.448  1.00  0.00     0.111 A 
HETATM   12  N   UNL     1      39.260  -9.963   8.243  1.00  0.00    -0.233 NA
HETATM   13  C   UNL     1      39.655  -9.554   9.494  1.00  0.00     0.085 A 
HETATM   14  C   UNL     1      38.971  -9.596  10.714  1.00  0.00     0.035 A 
HETATM   15  C   UNL     1      40.940  -9.035   9.462  1.00  0.00     0.063 A 
HETATM   16  C   UNL     1      39.617  -9.115  11.867  1.00  0.00     0.016 A 
HETATM   17  C   UNL     1      40.927  -8.593  11.831  1.00  0.00    -0.005 A 
HETATM   18  C   UNL     1      41.600  -8.546  10.591  1.00  0.00     0.045 A 
HETATM   19  N   UNL     1      41.317  -9.144   8.151  1.00  0.00    -0.342 N 
HETATM   20  H   UNL     1      42.211  -8.870   7.766  1.00  0.00     0.167 HD
BRANCH  17  21
HETATM   21  C   UNL     1      41.602  -8.097  13.050  1.00  0.00     0.071 A 
HETATM   22  C   UNL     1      42.797  -7.406  13.018  1.00  0.00     0.052 A 
HETATM   23  C   UNL     1      43.296  -7.003  14.233  1.00  0.00     0.122 A 
HETATM   24  N   UNL     1      42.684  -7.248  15.404  1.00  0.00    -0.231 NA
HETATM   25  C   UNL     1      41.524  -7.902  15.339  1.00  0.00     0.199 A 
HETATM   26  N   UNL     1      40.961  -8.349  14.216  1.00  0.00    -0.218 NA
BRANCH  25  27
HETATM   27  N   UNL     1      40.882  -8.183  16.528  1.00  0.00    -0.271 NA
HETATM   28  H   UNL     1      40.921  -7.370  17.126  1.00  0.00     0.127 HD
HETATM   29  H   UNL     1      41.241  -9.050  16.902  1.00  0.00     0.127 HD
ENDBRANCH  25  27
ENDBRANCH  17  21
ENDBRANCH   1  11
BRANCH   7  30
HETATM   30  C   UNL     1      42.544 -15.888   6.539  1.00  0.00     0.251 C 
HETATM   31  O   UNL     1      41.488 -16.374   6.931  1.00  0.00    -0.268 OA
HETATM   32  N   UNL     1      43.660 -16.641   6.256  1.00  0.00    -0.353 N 
HETATM   33  H   UNL     1      44.495 -16.217   5.884  1.00  0.00     0.163 HD
BRANCH  32  34
HETATM   34  C   UNL     1      43.691 -18.072   6.465  1.00  0.00     0.161 C 
BRANCH  34  35
HETATM   35  C   UNL     1      43.744 -18.796   5.146  1.00  0.00    -0.041 A 
HETATM   36  C   UNL     1      43.603 -18.082   3.946  1.00  0.00     0.009 A 
HETATM   37  C   UNL     1      43.639 -18.744   2.719  1.00  0.00     0.001 A 
HETATM   38  C   UNL     1      43.804 -20.128   2.679  1.00  0.00     0.000 A 
HETATM   39  C   UNL     1      43.929 -20.850   3.864  1.00  0.00     0.001 A 
HETATM   40  C   UNL     1      43.897 -20.188   5.093  1.00  0.00     0.009 A 
ENDBRANCH  34  35
ENDBRANCH  32  34
ENDBRANCH   7  30
TORSDOF 6
ENDMDL
MODEL 5
REMARK VINA RESULT:      -9.6      3.872      5.665
REMARK  6 active torsions:
REMARK  status: ('A' for Active; 'I' for Inactive)
REMARK    1  A    between atoms: N_1  and  C_2 
REMARK    2  A    between atoms: C_6  and  C_8 
REMARK    3  A    between atoms: C_13  and  C_18 
REMARK    4  A    between atoms: C_24  and  C_28 
REMARK       I    between atoms: C_28  and  N_30 
REMARK    5  A    between atoms: N_30  and  C_31 
REMARK    6  A    between atoms: C_31  and  C_32 
ROOT
HETATM    1  C   UNL     1      45.595 -10.547   8.682  1.00  0.00     0.084 C 
HETATM    2  C   UNL     1      46.298  -9.205   8.476  1.00  0.00     0.188 C 
HETATM    3  O   UNL     1      45.402  -8.115   8.213  1.00  0.00    -0.350 OA
HETATM    4  C   UNL     1      44.292  -8.060   9.013  1.00  0.00     0.075 A 
HETATM    5  C   UNL     1      43.545  -6.885   8.940  1.00  0.00     0.038 A 
HETATM    6  C   UNL     1      42.363  -6.752   9.675  1.00  0.00     0.020 A 
HETATM    7  C   UNL     1      41.929  -7.796  10.500  1.00  0.00     0.032 A 
HETATM    8  C   UNL     1      42.678  -8.982  10.551  1.00  0.00     0.027 A 
HETATM    9  C   UNL     1      43.852  -9.128   9.798  1.00  0.00    -0.023 A 
HETATM   10  C   UNL     1      44.619 -10.421   9.852  1.00  0.00     0.056 C 
ENDROOT
BRANCH   1  11
HETATM   11  C   UNL     1      44.909 -11.059   7.444  1.00  0.00     0.111 A 
HETATM   12  N   UNL     1      45.203 -10.722   6.202  1.00  0.00    -0.233 NA
HETATM   13  C   UNL     1      44.378 -11.477   5.406  1.00  0.00     0.085 A 
HETATM   14  C   UNL     1      44.277 -11.537   4.011  1.00  0.00     0.035 A 
HETATM   15  C   UNL     1      43.548 -12.280   6.173  1.00  0.00     0.063 A 
HETATM   16  C   UNL     1      43.341 -12.416   3.439  1.00  0.00     0.016 A 
HETATM   17  C   UNL     1      42.503 -13.237   4.223  1.00  0.00    -0.005 A 
HETATM   18  C   UNL     1      42.607 -13.157   5.629  1.00  0.00     0.045 A 
HETATM   19  N   UNL     1      43.899 -11.992   7.465  1.00  0.00    -0.342 N 
HETATM   20  H   UNL     1      43.500 -12.411   8.295  1.00  0.00     0.167 HD
BRANCH  17  21
HETATM   21  C   UNL     1      41.527 -14.165   3.612  1.00  0.00     0.071 A 
HETATM   22  C   UNL     1      41.204 -15.387   4.168  1.00  0.00     0.052 A 
HETATM   23  C   UNL     1      40.274 -16.134   3.487  1.00  0.00     0.122 A 
HETATM   24  N   UNL     1      39.691 -15.732   2.345  1.00  0.00    -0.231 NA
HETATM   25  C   UNL     1      40.047 -14.530   1.892  1.00  0.00     0.199 A 
HETATM   26  N   UNL     1      40.948 -13.732   2.468  1.00  0.00    -0.218 NA
BRANCH  25  27
HETATM   27  N   UNL     1      39.477 -14.098   0.711  1.00  0.00    -0.271 NA
HETATM   28  H   UNL     1      39.115 -13.164   0.841  1.00  0.00     0.127 HD
HETATM   29  H   UNL     1      38.836 -14.802   0.376  1.00  0.00     0.127 HD
ENDBRANCH  25  27
ENDBRANCH  17  21
ENDBRANCH   1  11
BRANCH   7  30
HETATM   30  C   UNL     1      40.675  -7.725  11.306  1.00  0.00     0.251 C 
HETATM   31  O   UNL     1      39.726  -8.449  11.020  1.00  0.00    -0.268 OA
HETATM   32  N   UNL     1      40.659  -6.848  12.366  1.00  0.00    -0.353 N 
HETATM   33  H   UNL     1      41.474  -6.306  12.606  1.00  0.00     0.163 HD
BRANCH  32  34
HETATM   34  C   UNL     1      39.486  -6.665  13.192  1.00  0.00     0.161 C 
BRANCH  34  35
HETATM   35  C   UNL     1      39.844  -6.788  14.649  1.00  0.00    -0.041 A 
HETATM   36  C   UNL     1      40.864  -7.664  15.051  1.00  0.00     0.009 A 
HETATM   37  C   UNL     1      41.196  -7.794  16.400  1.00  0.00     0.001 A 
HETATM   38  C   UNL     1      40.504  -7.059  17.362  1.00  0.00     0.000 A 
HETATM   39  C   UNL     1      39.479  -6.197  16.976  1.00  0.00     0.001 A 
HETATM   40  C   UNL     1      39.147  -6.063  15.626  1.00  0.00     0.009 A 
ENDBRANCH  34  35
ENDBRANCH  32  34
ENDBRANCH   7  30
TORSDOF 6
ENDMDL
MODEL 6
REMARK VINA RESULT:      -9.5      4.255      6.174
REMARK  6 active torsions:
REMARK  status: ('A' for Active; 'I' for Inactive)
REMARK    1  A    between atoms: N_1  and  C_2 
REMARK    2  A    between atoms: C_6  and  C_8 
REMARK    3  A    between atoms: C_13  and  C_18 
REMARK    4  A    between atoms: C_24  and  C_28 
REMARK       I    between atoms: C_28  and  N_30 
REMARK    5  A    between atoms: N_30  and  C_31 
REMARK    6  A    between atoms: C_31  and  C_32 
ROOT
HETATM    1  C   UNL     1      46.083 -10.363   8.345  1.00  0.00     0.084 C 
HETATM    2  C   UNL     1      46.201  -8.884   7.980  1.00  0.00     0.188 C 
HETATM    3  O   UNL     1      44.996  -8.134   8.198  1.00  0.00    -0.350 OA
HETATM    4  C   UNL     1      44.358  -8.379   9.384  1.00  0.00     0.075 A 
HETATM    5  C   UNL     1      43.335  -7.494   9.721  1.00  0.00     0.038 A 
HETATM    6  C   UNL     1      42.583  -7.690  10.884  1.00  0.00     0.020 A 
HETATM    7  C   UNL     1      42.865  -8.772  11.725  1.00  0.00     0.032 A 
HETATM    8  C   UNL     1      43.884  -9.669  11.368  1.00  0.00     0.027 A 
HETATM    9  C   UNL     1      44.625  -9.489  10.189  1.00  0.00    -0.023 A 
HETATM   10  C   UNL     1      45.692 -10.481   9.819  1.00  0.00     0.056 C 
ENDROOT
BRANCH   1  11
HETATM   11  C   UNL     1      45.133 -11.124   7.460  1.00  0.00     0.111 A 
HETATM   12  N   UNL     1      44.368 -12.132   7.836  1.00  0.00    -0.233 NA
HETATM   13  C   UNL     1      43.625 -12.468   6.730  1.00  0.00     0.085 A 
HETATM   14  C   UNL     1      42.643 -13.452   6.568  1.00  0.00     0.035 A 
HETATM   15  C   UNL     1      43.953 -11.663   5.650  1.00  0.00     0.063 A 
HETATM   16  C   UNL     1      42.019 -13.583   5.315  1.00  0.00     0.016 A 
HETATM   17  C   UNL     1      42.351 -12.758   4.220  1.00  0.00    -0.005 A 
HETATM   18  C   UNL     1      43.352 -11.778   4.395  1.00  0.00     0.045 A 
HETATM   19  N   UNL     1      44.918 -10.822   6.136  1.00  0.00    -0.342 N 
HETATM   20  H   UNL     1      45.380 -10.087   5.617  1.00  0.00     0.167 HD
BRANCH  17  21
HETATM   21  C   UNL     1      41.683 -12.897   2.908  1.00  0.00     0.071 A 
HETATM   22  C   UNL     1      41.743 -11.926   1.928  1.00  0.00     0.052 A 
HETATM   23  C   UNL     1      41.079 -12.205   0.759  1.00  0.00     0.122 A 
HETATM   24  N   UNL     1      40.399 -13.344   0.545  1.00  0.00    -0.231 NA
HETATM   25  C   UNL     1      40.412 -14.235   1.537  1.00  0.00     0.199 A 
HETATM   26  N   UNL     1      41.014 -14.058   2.714  1.00  0.00    -0.218 NA
BRANCH  25  27
HETATM   27  N   UNL     1      39.708 -15.407   1.352  1.00  0.00    -0.271 NA
HETATM   28  H   UNL     1      40.249 -16.178   1.716  1.00  0.00     0.127 HD
HETATM   29  H   UNL     1      39.408 -15.465   0.389  1.00  0.00     0.127 HD
ENDBRANCH  25  27
ENDBRANCH  17  21
ENDBRANCH   1  11
BRANCH   7  30
HETATM   30  C   UNL     1      42.100  -9.046  12.978  1.00  0.00     0.251 C 
HETATM   31  O   UNL     1      41.392 -10.046  13.052  1.00  0.00    -0.268 OA
HETATM   32  N   UNL     1      42.254  -8.155  14.014  1.00  0.00    -0.353 N 
HETATM   33  H   UNL     1      42.885  -7.372  13.939  1.00  0.00     0.163 HD
BRANCH  32  34
HETATM   34  C   UNL     1      41.533  -8.295  15.260  1.00  0.00     0.161 C 
BRANCH  34  35
HETATM   35  C   UNL     1      40.483  -7.224  15.384  1.00  0.00    -0.041 A 
HETATM   36  C   UNL     1      40.271  -6.587  16.616  1.00  0.00     0.009 A 
HETATM   37  C   UNL     1      39.292  -5.600  16.744  1.00  0.00     0.001 A 
HETATM   38  C   UNL     1      38.509  -5.249  15.646  1.00  0.00     0.000 A 
HETATM   39  C   UNL     1      38.700  -5.885  14.421  1.00  0.00     0.001 A 
HETATM   40  C   UNL     1      39.681  -6.870  14.290  1.00  0.00     0.009 A 
ENDBRANCH  34  35
ENDBRANCH  32  34
ENDBRANCH   7  30
TORSDOF 6
ENDMDL
MODEL 7
REMARK VINA RESULT:      -9.1      4.050      8.106
REMARK  6 active torsions:
REMARK  status: ('A' for Active; 'I' for Inactive)
REMARK    1  A    between atoms: N_1  and  C_2 
REMARK    2  A    between atoms: C_6  and  C_8 
REMARK    3  A    between atoms: C_13  and  C_18 
REMARK    4  A    between atoms: C_24  and  C_28 
REMARK       I    between atoms: C_28  and  N_30 
REMARK    5  A    between atoms: N_30  and  C_31 
REMARK    6  A    between atoms: C_31  and  C_32 
ROOT
HETATM    1  C   UNL     1      40.574 -12.003   5.104  1.00  0.00     0.084 C 
HETATM    2  C   UNL     1      41.350 -10.706   4.880  1.00  0.00     0.188 C 
HETATM    3  O   UNL     1      41.965 -10.615   3.586  1.00  0.00    -0.350 OA
HETATM    4  C   UNL     1      41.179 -10.998   2.533  1.00  0.00     0.075 A 
HETATM    5  C   UNL     1      41.665 -10.687   1.263  1.00  0.00     0.038 A 
HETATM    6  C   UNL     1      40.965 -11.085   0.120  1.00  0.00     0.020 A 
HETATM    7  C   UNL     1      39.762 -11.789   0.246  1.00  0.00     0.032 A 
HETATM    8  C   UNL     1      39.291 -12.114   1.527  1.00  0.00     0.027 A 
HETATM    9  C   UNL     1      40.002 -11.737   2.676  1.00  0.00    -0.023 A 
HETATM   10  C   UNL     1      39.486 -12.123   4.035  1.00  0.00     0.056 C 
ENDROOT
BRANCH   1  11
HETATM   11  C   UNL     1      41.449 -13.227   5.140  1.00  0.00     0.111 A 
HETATM   12  N   UNL     1      42.551 -13.368   5.854  1.00  0.00    -0.233 NA
HETATM   13  C   UNL     1      42.976 -14.655   5.632  1.00  0.00     0.085 A 
HETATM   14  C   UNL     1      44.080 -15.342   6.150  1.00  0.00     0.035 A 
HETATM   15  C   UNL     1      42.131 -15.311   4.750  1.00  0.00     0.063 A 
HETATM   16  C   UNL     1      44.286 -16.678   5.761  1.00  0.00     0.016 A 
HETATM   17  C   UNL     1      43.420 -17.344   4.869  1.00  0.00    -0.005 A 
HETATM   18  C   UNL     1      42.318 -16.634   4.345  1.00  0.00     0.045 A 
HETATM   19  N   UNL     1      41.173 -14.382   4.446  1.00  0.00    -0.342 N 
HETATM   20  H   UNL     1      40.381 -14.525   3.833  1.00  0.00     0.167 HD
BRANCH  17  21
HETATM   21  C   UNL     1      43.641 -18.751   4.473  1.00  0.00     0.071 A 
HETATM   22  C   UNL     1      43.976 -19.741   5.376  1.00  0.00     0.052 A 
HETATM   23  C   UNL     1      44.141 -21.002   4.857  1.00  0.00     0.122 A 
HETATM   24  N   UNL     1      43.992 -21.293   3.554  1.00  0.00    -0.231 NA
HETATM   25  C   UNL     1      43.647 -20.281   2.758  1.00  0.00     0.199 A 
HETATM   26  N   UNL     1      43.476 -19.020   3.157  1.00  0.00    -0.218 NA
BRANCH  25  27
HETATM   27  N   UNL     1      43.504 -20.547   1.411  1.00  0.00    -0.271 NA
HETATM   28  H   UNL     1      43.941 -19.808   0.880  1.00  0.00     0.127 HD
HETATM   29  H   UNL     1      42.534 -20.749   1.214  1.00  0.00     0.127 HD
ENDBRANCH  25  27
ENDBRANCH  17  21
ENDBRANCH   1  11
BRANCH   7  30
HETATM   30  C   UNL     1      38.966 -12.251  -0.930  1.00  0.00     0.251 C 
HETATM   31  O   UNL     1      38.880 -13.451  -1.173  1.00  0.00    -0.268 OA
HETATM   32  N   UNL     1      38.338 -11.284  -1.681  1.00  0.00    -0.353 N 
HETATM   33  H   UNL     1      38.385 -10.311  -1.423  1.00  0.00     0.163 HD
BRANCH  32  34
HETATM   34  C   UNL     1      37.573 -11.610  -2.865  1.00  0.00     0.161 C 
BRANCH  34  35
HETATM   35  C   UNL     1      36.200 -10.996  -2.790  1.00  0.00    -0.041 A 
HETATM   36  C   UNL     1      35.186 -11.437  -3.653  1.00  0.00     0.009 A 
HETATM   37  C   UNL     1      33.913 -10.867  -3.600  1.00  0.00     0.001 A 
HETATM   38  C   UNL     1      33.645  -9.844  -2.691  1.00  0.00     0.000 A 
HETATM   39  C   UNL     1      34.649  -9.388  -1.840  1.00  0.00     0.001 A 
HETATM   40  C   UNL     1      35.923  -9.959  -1.889  1.00  0.00     0.009 A 
ENDBRANCH  34  35
ENDBRANCH  32  34
ENDBRANCH   7  30
TORSDOF 6
ENDMDL
MODEL 8
REMARK VINA RESULT:      -9.1      3.824      9.039
REMARK  6 active torsions:
REMARK  status: ('A' for Active; 'I' for Inactive)
REMARK    1  A    between atoms: N_1  and  C_2 
REMARK    2  A    between atoms: C_6  and  C_8 
REMARK    3  A    between atoms: C_13  and  C_18 
REMARK    4  A    between atoms: C_24  and  C_28 
REMARK       I    between atoms: C_28  and  N_30 
REMARK    5  A    between atoms: N_30  and  C_31 
REMARK    6  A    between atoms: C_31  and  C_32 
ROOT
HETATM    1  C   UNL     1      40.381 -10.054   5.676  1.00  0.00     0.084 C 
HETATM    2  C   UNL     1      39.247 -10.595   6.545  1.00  0.00     0.188 C 
HETATM    3  O   UNL     1      39.007 -12.001   6.376  1.00  0.00    -0.350 OA
HETATM    4  C   UNL     1      40.126 -12.789   6.343  1.00  0.00     0.075 A 
HETATM    5  C   UNL     1      39.906 -14.163   6.428  1.00  0.00     0.038 A 
HETATM    6  C   UNL     1      40.979 -15.057   6.346  1.00  0.00     0.020 A 
HETATM    7  C   UNL     1      42.284 -14.574   6.192  1.00  0.00     0.032 A 
HETATM    8  C   UNL     1      42.491 -13.189   6.089  1.00  0.00     0.027 A 
HETATM    9  C   UNL     1      41.416 -12.290   6.147  1.00  0.00    -0.023 A 
HETATM   10  C   UNL     1      41.667 -10.814   6.006  1.00  0.00     0.056 C 
ENDROOT
BRANCH   1  11
HETATM   11  C   UNL     1      40.079 -10.096   4.202  1.00  0.00     0.111 A 
HETATM   12  N   UNL     1      40.709  -9.412   3.265  1.00  0.00    -0.233 NA
HETATM   13  C   UNL     1      40.151  -9.811   2.075  1.00  0.00     0.085 A 
HETATM   14  C   UNL     1      40.449  -9.423   0.764  1.00  0.00     0.035 A 
HETATM   15  C   UNL     1      39.147 -10.744   2.286  1.00  0.00     0.063 A 
HETATM   16  C   UNL     1      39.723 -10.000  -0.293  1.00  0.00     0.016 A 
HETATM   17  C   UNL     1      38.707 -10.953  -0.074  1.00  0.00    -0.005 A 
HETATM   18  C   UNL     1      38.408 -11.326   1.254  1.00  0.00     0.045 A 
HETATM   19  N   UNL     1      39.115 -10.903   3.645  1.00  0.00    -0.342 N 
HETATM   20  H   UNL     1      38.502 -11.527   4.155  1.00  0.00     0.167 HD
BRANCH  17  21
HETATM   21  C   UNL     1      37.954 -11.561  -1.193  1.00  0.00     0.071 A 
HETATM   22  C   UNL     1      37.020 -10.866  -1.934  1.00  0.00     0.052 A 
HETATM   23  C   UNL     1      36.408 -11.565  -2.946  1.00  0.00     0.122 A 
HETATM   24  N   UNL     1      36.678 -12.851  -3.228  1.00  0.00    -0.231 NA
HETATM   25  C   UNL     1      37.609 -13.437  -2.475  1.00  0.00     0.199 A 
HETATM   26  N   UNL     1      38.251 -12.854  -1.461  1.00  0.00    -0.218 NA
BRANCH  25  27
HETATM   27  N   UNL     1      37.895 -14.763  -2.730  1.00  0.00    -0.271 NA
HETATM   28  H   UNL     1      37.286 -15.097  -3.463  1.00  0.00     0.127 HD
HETATM   29  H   UNL     1      37.897 -15.276  -1.860  1.00  0.00     0.127 HD
ENDBRANCH  25  27
ENDBRANCH  17  21
ENDBRANCH   1  11
BRANCH   7  30
HETATM   30  C   UNL     1      43.473 -15.470   6.091  1.00  0.00     0.251 C 
HETATM   31  O   UNL     1      44.566 -15.077   6.486  1.00  0.00    -0.268 OA
HETATM   32  N   UNL     1      43.269 -16.726   5.570  1.00  0.00    -0.353 N 
HETATM   33  H   UNL     1      42.348 -17.037   5.304  1.00  0.00     0.163 HD
BRANCH  32  34
HETATM   34  C   UNL     1      44.353 -17.666   5.387  1.00  0.00     0.161 C 
BRANCH  34  35
HETATM   35  C   UNL     1      44.015 -18.656   4.304  1.00  0.00    -0.041 A 
HETATM   36  C   UNL     1      44.149 -20.032   4.542  1.00  0.00     0.009 A 
HETATM   37  C   UNL     1      43.849 -20.957   3.542  1.00  0.00     0.001 A 
HETATM   38  C   UNL     1      43.422 -20.515   2.290  1.00  0.00     0.000 A 
HETATM   39  C   UNL     1      43.299 -19.151   2.037  1.00  0.00     0.001 A 
HETATM   40  C   UNL     1      43.596 -18.223   3.037  1.00  0.00     0.009 A 
ENDBRANCH  34  35
ENDBRANCH  32  34
ENDBRANCH   7  30
TORSDOF 6
ENDMDL
MODEL 9
REMARK VINA RESULT:      -9.1      3.482      5.811
REMARK  6 active torsions:
REMARK  status: ('A' for Active; 'I' for Inactive)
REMARK    1  A    between atoms: N_1  and  C_2 
REMARK    2  A    between atoms: C_6  and  C_8 
REMARK    3  A    between atoms: C_13  and  C_18 
REMARK    4  A    between atoms: C_24  and  C_28 
REMARK       I    between atoms: C_28  and  N_30 
REMARK    5  A    between atoms: N_30  and  C_31 
REMARK    6  A    between atoms: C_31  and  C_32 
ROOT
HETATM    1  C   UNL     1      45.421 -10.035   8.881  1.00  0.00     0.084 C 
HETATM    2  C   UNL     1      45.653  -8.580   8.476  1.00  0.00     0.188 C 
HETATM    3  O   UNL     1      44.496  -7.744   8.628  1.00  0.00    -0.350 OA
HETATM    4  C   UNL     1      43.803  -7.906   9.798  1.00  0.00     0.075 A 
HETATM    5  C   UNL     1      42.832  -6.943  10.070  1.00  0.00     0.038 A 
HETATM    6  C   UNL     1      42.031  -7.050  11.211  1.00  0.00     0.020 A 
HETATM    7  C   UNL     1      42.209  -8.120  12.095  1.00  0.00     0.032 A 
HETATM    8  C   UNL     1      43.176  -9.095  11.801  1.00  0.00     0.027 A 
HETATM    9  C   UNL     1      43.966  -9.004  10.645  1.00  0.00    -0.023 A 
HETATM   10  C   UNL     1      44.974 -10.078  10.343  1.00  0.00     0.056 C 
ENDROOT
BRANCH   1  11
HETATM   11  C   UNL     1      44.451 -10.759   7.986  1.00  0.00     0.111 A 
HETATM   12  N   UNL     1      43.273 -10.307   7.600  1.00  0.00    -0.233 NA
HETATM   13  C   UNL     1      42.771 -11.258   6.747  1.00  0.00     0.085 A 
HETATM   14  C   UNL     1      41.566 -11.286   6.034  1.00  0.00     0.035 A 
HETATM   15  C   UNL     1      43.649 -12.323   6.620  1.00  0.00     0.063 A 
HETATM   16  C   UNL     1      41.296 -12.392   5.209  1.00  0.00     0.016 A 
HETATM   17  C   UNL     1      42.195 -13.470   5.078  1.00  0.00    -0.005 A 
HETATM   18  C   UNL     1      43.400 -13.435   5.812  1.00  0.00     0.045 A 
HETATM   19  N   UNL     1      44.706 -11.987   7.422  1.00  0.00    -0.342 N 
HETATM   20  H   UNL     1      45.544 -12.536   7.560  1.00  0.00     0.167 HD
BRANCH  17  21
HETATM   21  C   UNL     1      41.905 -14.625   4.200  1.00  0.00     0.071 A 
HETATM   22  C   UNL     1      40.769 -14.709   3.421  1.00  0.00     0.052 A 
HETATM   23  C   UNL     1      40.644 -15.841   2.653  1.00  0.00     0.122 A 
HETATM   24  N   UNL     1      41.554 -16.830   2.636  1.00  0.00    -0.231 NA
HETATM   25  C   UNL     1      42.630 -16.655   3.403  1.00  0.00     0.199 A 
HETATM   26  N   UNL     1      42.842 -15.603   4.194  1.00  0.00    -0.218 NA
BRANCH  25  27
HETATM   27  N   UNL     1      43.574 -17.663   3.418  1.00  0.00    -0.271 NA
HETATM   28  H   UNL     1      43.439 -18.254   2.610  1.00  0.00     0.127 HD
HETATM   29  H   UNL     1      43.568 -18.108   4.324  1.00  0.00     0.127 HD
ENDBRANCH  25  27
ENDBRANCH  17  21
ENDBRANCH   1  11
BRANCH   7  30
HETATM   30  C   UNL     1      41.385  -8.301  13.327  1.00  0.00     0.251 C 
HETATM   31  O   UNL     1      40.210  -8.639  13.229  1.00  0.00    -0.268 OA
HETATM   32  N   UNL     1      42.012  -8.098  14.535  1.00  0.00    -0.353 N 
HETATM   33  H   UNL     1      42.992  -7.873  14.582  1.00  0.00     0.163 HD
BRANCH  32  34
HETATM   34  C   UNL     1      41.304  -8.205  15.792  1.00  0.00     0.161 C 
BRANCH  34  35
HETATM   35  C   UNL     1      40.835  -6.849  16.249  1.00  0.00    -0.041 A 
HETATM   36  C   UNL     1      41.723  -5.979  16.899  1.00  0.00     0.009 A 
HETATM   37  C   UNL     1      41.294  -4.725  17.336  1.00  0.00     0.001 A 
HETATM   38  C   UNL     1      39.971  -4.333  17.138  1.00  0.00     0.000 A 
HETATM   39  C   UNL     1      39.076  -5.194  16.507  1.00  0.00     0.001 A 
HETATM   40  C   UNL     1      39.504  -6.448  16.065  1.00  0.00     0.009 A 
ENDBRANCH  34  35
ENDBRANCH  32  34
ENDBRANCH   7  30
TORSDOF 6
ENDMDL
MODEL 10
REMARK VINA RESULT:      -9.0      4.537     10.622
REMARK  6 active torsions:
REMARK  status: ('A' for Active; 'I' for Inactive)
REMARK    1  A    between atoms: N_1  and  C_2 
REMARK    2  A    between atoms: C_6  and  C_8 
REMARK    3  A    between atoms: C_13  and  C_18 
REMARK    4  A    between atoms: C_24  and  C_28 
REMARK       I    between atoms: C_28  and  N_30 
REMARK    5  A    between atoms: N_30  and  C_31 
REMARK    6  A    between atoms: C_31  and  C_32 
ROOT
HETATM    1  C   UNL     1      44.506 -12.378   6.395  1.00  0.00     0.084 C 
HETATM    2  C   UNL     1      43.941 -13.730   6.830  1.00  0.00     0.188 C 
HETATM    3  O   UNL     1      42.507 -13.768   6.887  1.00  0.00    -0.350 OA
HETATM    4  C   UNL     1      41.861 -13.196   5.824  1.00  0.00     0.075 A 
HETATM    5  C   UNL     1      40.490 -13.438   5.741  1.00  0.00     0.038 A 
HETATM    6  C   UNL     1      39.729 -12.852   4.724  1.00  0.00     0.020 A 
HETATM    7  C   UNL     1      40.344 -12.028   3.775  1.00  0.00     0.032 A 
HETATM    8  C   UNL     1      41.720 -11.774   3.879  1.00  0.00     0.027 A 
HETATM    9  C   UNL     1      42.483 -12.341   4.911  1.00  0.00    -0.023 A 
HETATM   10  C   UNL     1      43.951 -12.029   5.013  1.00  0.00     0.056 C 
ENDROOT
BRANCH   1  11
HETATM   11  C   UNL     1      44.250 -11.275   7.386  1.00  0.00     0.111 A 
HETATM   12  N   UNL     1      44.486  -9.991   7.190  1.00  0.00    -0.233 NA
HETATM   13  C   UNL     1      44.041  -9.354   8.322  1.00  0.00     0.085 A 
HETATM   14  C   UNL     1      44.028  -7.992   8.645  1.00  0.00     0.035 A 
HETATM   15  C   UNL     1      43.539 -10.265   9.239  1.00  0.00     0.063 A 
HETATM   16  C   UNL     1      43.499  -7.597   9.887  1.00  0.00     0.016 A 
HETATM   17  C   UNL     1      42.984  -8.527  10.814  1.00  0.00    -0.005 A 
HETATM   18  C   UNL     1      43.014  -9.898  10.480  1.00  0.00     0.045 A 
HETATM   19  N   UNL     1      43.689 -11.479   8.625  1.00  0.00    -0.342 N 
HETATM   20  H   UNL     1      43.414 -12.375   9.007  1.00  0.00     0.167 HD
BRANCH  17  21
HETATM   21  C   UNL     1      42.422  -8.102  12.114  1.00  0.00     0.071 A 
HETATM   22  C   UNL     1      43.207  -7.813  13.213  1.00  0.00     0.052 A 
HETATM   23  C   UNL     1      42.540  -7.423  14.348  1.00  0.00     0.122 A 
HETATM   24  N   UNL     1      41.202  -7.318  14.423  1.00  0.00    -0.231 NA
HETATM   25  C   UNL     1      40.525  -7.594  13.308  1.00  0.00     0.199 A 
HETATM   26  N   UNL     1      41.073  -7.994  12.160  1.00  0.00    -0.218 NA
BRANCH  25  27
HETATM   27  N   UNL     1      39.148  -7.510  13.360  1.00  0.00    -0.271 NA
HETATM   28  H   UNL     1      38.750  -8.325  12.915  1.00  0.00     0.127 HD
HETATM   29  H   UNL     1      38.858  -6.606  13.016  1.00  0.00     0.127 HD
ENDBRANCH  25  27
ENDBRANCH  17  21
ENDBRANCH   1  11
BRANCH   7  30
HETATM   30  C   UNL     1      39.592 -11.365   2.669  1.00  0.00     0.251 C 
HETATM   31  O   UNL     1      39.226 -10.200   2.794  1.00  0.00    -0.268 OA
HETATM   32  N   UNL     1      39.368 -12.105   1.531  1.00  0.00    -0.353 N 
HETATM   33  H   UNL     1      39.728 -13.041   1.439  1.00  0.00     0.163 HD
BRANCH  32  34
HETATM   34  C   UNL     1      38.617 -11.582   0.412  1.00  0.00     0.161 C 
BRANCH  34  35
HETATM   35  C   UNL     1      38.734 -12.500  -0.776  1.00  0.00    -0.041 A 
HETATM   36  C   UNL     1      37.664 -12.627  -1.675  1.00  0.00     0.009 A 
HETATM   37  C   UNL     1      37.758 -13.483  -2.772  1.00  0.00     0.001 A 
HETATM   38  C   UNL     1      38.917 -14.229  -2.976  1.00  0.00     0.000 A 
HETATM   39  C   UNL     1      39.981 -14.123  -2.082  1.00  0.00     0.001 A 
HETATM   40  C   UNL     1      39.890 -13.264  -0.985  1.00  0.00     0.009 A 
ENDBRANCH  34  35
ENDBRANCH  32  34
ENDBRANCH   7  30
TORSDOF 6
ENDMDL
