MODEL 1
REMARK VINA RESULT:      -7.3      0.000      0.000
REMARK  5 active torsions:
REMARK  status: ('A' for Active; 'I' for Inactive)
REMARK    1  A    between atoms: C_2  and  C_3 
REMARK    2  A    between atoms: C_7  and  C_8 
REMARK       I    between atoms: C_8  and  N_9 
REMARK    3  A    between atoms: N_9  and  C_10 
REMARK    4  A    between atoms: C_15  and  N_16 
REMARK       I    between atoms: N_16  and  C_17 
REMARK    5  A    between atoms: C_17  and  C_18 
ROOT
HETATM    1  C   UNL     1      42.265 -13.568   5.187  1.00  0.00     0.059 A 
HETATM    2  C   UNL     1      41.105 -13.190   4.488  1.00  0.00     0.060 A 
HETATM    3 CL   UNL     1      40.528 -11.561   4.388  1.00  0.00    -0.082 Cl
HETATM    4  C   UNL     1      40.453 -14.120   3.672  1.00  0.00     0.028 A 
HETATM    5  C   UNL     1      40.963 -15.410   3.506  1.00  0.00     0.031 A 
HETATM    6  C   UNL     1      42.146 -15.784   4.136  1.00  0.00     0.036 A 
HETATM    7  C   UNL     1      42.789 -14.857   4.973  1.00  0.00     0.060 A 
ENDROOT
BRANCH   1   8
HETATM    8  N   UNL     1      43.010 -12.734   6.057  1.00  0.00    -0.320 N 
HETATM    9  C   UNL     1      43.953 -11.800   5.673  1.00  0.00     0.274 C 
HETATM   10  O   UNL     1      44.147 -11.433   4.521  1.00  0.00    -0.266 OA
HETATM   11  H   UNL     1      42.657 -12.626   6.997  1.00  0.00     0.169 HD
BRANCH   9  12
HETATM   12  C   UNL     1      44.666 -11.190   6.771  1.00  0.00     0.120 A 
HETATM   13  N   UNL     1      45.985 -10.841   6.651  1.00  0.00    -0.273 N 
HETATM   14  N   UNL     1      46.506 -10.282   7.754  1.00  0.00    -0.179 NA
HETATM   15  H   UNL     1      46.575 -10.967   5.833  1.00  0.00     0.189 HD
HETATM   16  C   UNL     1      45.497 -10.283   8.631  1.00  0.00     0.056 A 
HETATM   17  C   UNL     1      44.325 -10.846   8.064  1.00  0.00     0.065 A 
BRANCH  16  18
HETATM   18  C   UNL     1      45.649  -9.747  10.020  1.00  0.00     0.056 C 
HETATM   19  C   UNL     1      44.349  -9.377  10.720  1.00  0.00     0.011 C 
ENDBRANCH  16  18
ENDBRANCH   9  12
ENDBRANCH   1   8
BRANCH   6  20
HETATM   20  N   UNL     1      42.758 -17.047   3.978  1.00  0.00    -0.327 N 
HETATM   21  C   UNL     1      43.302 -17.578   2.820  1.00  0.00     0.221 C 
HETATM   22  O   UNL     1      43.326 -17.052   1.712  1.00  0.00    -0.273 OA
HETATM   23  H   UNL     1      42.834 -17.616   4.811  1.00  0.00     0.169 HD
BRANCH  21  24
HETATM   24  C   UNL     1      43.918 -18.948   3.037  1.00  0.00     0.098 C 
HETATM   25  C   UNL     1      43.372 -19.968   2.056  1.00  0.00     0.014 C 
ENDBRANCH  21  24
ENDBRANCH   6  20
TORSDOF 5
ENDMDL
MODEL 2
REMARK VINA RESULT:      -7.3      1.430      1.477
REMARK  5 active torsions:
REMARK  status: ('A' for Active; 'I' for Inactive)
REMARK    1  A    between atoms: C_2  and  C_3 
REMARK    2  A    between atoms: C_7  and  C_8 
REMARK       I    between atoms: C_8  and  N_9 
REMARK    3  A    between atoms: N_9  and  C_10 
REMARK    4  A    between atoms: C_15  and  N_16 
REMARK       I    between atoms: N_16  and  C_17 
REMARK    5  A    between atoms: C_17  and  C_18 
ROOT
HETATM    1  C   UNL     1      42.370 -14.137   4.456  1.00  0.00     0.059 A 
HETATM    2  C   UNL     1      41.017 -13.903   4.158  1.00  0.00     0.060 A 
HETATM    3 CL   UNL     1      40.221 -12.387   4.411  1.00  0.00    -0.082 Cl
HETATM    4  C   UNL     1      40.285 -14.867   3.456  1.00  0.00     0.028 A 
HETATM    5  C   UNL     1      40.892 -16.042   3.008  1.00  0.00     0.031 A 
HETATM    6  C   UNL     1      42.248 -16.263   3.234  1.00  0.00     0.036 A 
HETATM    7  C   UNL     1      42.977 -15.306   3.957  1.00  0.00     0.060 A 
ENDROOT
BRANCH   1   8
HETATM    8  N   UNL     1      43.219 -13.256   5.172  1.00  0.00    -0.320 N 
HETATM    9  C   UNL     1      43.455 -13.287   6.534  1.00  0.00     0.274 C 
HETATM   10  O   UNL     1      43.106 -14.190   7.284  1.00  0.00    -0.266 OA
HETATM   11  H   UNL     1      43.894 -12.735   4.631  1.00  0.00     0.169 HD
BRANCH   9  12
HETATM   12  C   UNL     1      44.249 -12.186   7.023  1.00  0.00     0.120 A 
HETATM   13  N   UNL     1      45.452 -11.871   6.449  1.00  0.00    -0.273 N 
HETATM   14  N   UNL     1      46.070 -10.821   7.010  1.00  0.00    -0.179 NA
HETATM   15  H   UNL     1      45.897 -12.348   5.669  1.00  0.00     0.189 HD
HETATM   16  C   UNL     1      45.251 -10.448   7.999  1.00  0.00     0.056 A 
HETATM   17  C   UNL     1      44.099 -11.274   8.050  1.00  0.00     0.065 A 
BRANCH  16  18
HETATM   18  C   UNL     1      45.566  -9.298   8.903  1.00  0.00     0.056 C 
HETATM   19  C   UNL     1      45.333  -9.554  10.385  1.00  0.00     0.011 C 
ENDBRANCH  16  18
ENDBRANCH   9  12
ENDBRANCH   1   8
BRANCH   6  20
HETATM   20  N   UNL     1      42.950 -17.396   2.767  1.00  0.00    -0.327 N 
HETATM   21  C   UNL     1      43.600 -18.354   3.527  1.00  0.00     0.221 C 
HETATM   22  O   UNL     1      43.705 -18.374   4.748  1.00  0.00    -0.273 OA
HETATM   23  H   UNL     1      42.952 -17.540   1.765  1.00  0.00     0.169 HD
BRANCH  21  24
HETATM   24  C   UNL     1      44.208 -19.458   2.682  1.00  0.00     0.098 C 
HETATM   25  C   UNL     1      43.147 -20.224   1.914  1.00  0.00     0.014 C 
ENDBRANCH  21  24
ENDBRANCH   6  20
TORSDOF 5
ENDMDL
MODEL 3
REMARK VINA RESULT:      -7.3      4.193      7.248
REMARK  5 active torsions:
REMARK  status: ('A' for Active; 'I' for Inactive)
REMARK    1  A    between atoms: C_2  and  C_3 
REMARK    2  A    between atoms: C_7  and  C_8 
REMARK       I    between atoms: C_8  and  N_9 
REMARK    3  A    between atoms: N_9  and  C_10 
REMARK    4  A    between atoms: C_15  and  N_16 
REMARK       I    between atoms: N_16  and  C_17 
REMARK    5  A    between atoms: C_17  and  C_18 
ROOT
HETATM    1  C   UNL     1      42.811 -15.075   3.759  1.00  0.00     0.059 A 
HETATM    2  C   UNL     1      42.973 -14.350   4.952  1.00  0.00     0.060 A 
HETATM    3 CL   UNL     1      42.251 -12.804   5.248  1.00  0.00    -0.082 Cl
HETATM    4  C   UNL     1      43.600 -14.950   6.049  1.00  0.00     0.028 A 
HETATM    5  C   UNL     1      44.028 -16.279   5.991  1.00  0.00     0.031 A 
HETATM    6  C   UNL     1      43.816 -17.036   4.843  1.00  0.00     0.036 A 
HETATM    7  C   UNL     1      43.207 -16.426   3.734  1.00  0.00     0.060 A 
ENDROOT
BRANCH   1   8
HETATM    8  N   UNL     1      42.212 -14.583   2.573  1.00  0.00    -0.320 N 
HETATM    9  C   UNL     1      40.970 -14.941   2.083  1.00  0.00     0.274 C 
HETATM   10  O   UNL     1      40.136 -15.594   2.700  1.00  0.00    -0.266 OA
HETATM   11  H   UNL     1      42.595 -13.732   2.189  1.00  0.00     0.169 HD
BRANCH   9  12
HETATM   12  C   UNL     1      40.667 -14.399   0.781  1.00  0.00     0.120 A 
HETATM   13  N   UNL     1      41.280 -13.261   0.328  1.00  0.00    -0.273 N 
HETATM   14  N   UNL     1      40.898 -12.884  -0.902  1.00  0.00    -0.179 NA
HETATM   15  H   UNL     1      41.968 -12.702   0.826  1.00  0.00     0.189 HD
HETATM   16  C   UNL     1      39.989 -13.798  -1.258  1.00  0.00     0.056 A 
HETATM   17  C   UNL     1      39.806 -14.764  -0.236  1.00  0.00     0.065 A 
BRANCH  16  18
HETATM   18  C   UNL     1      39.287 -13.750  -2.579  1.00  0.00     0.056 C 
HETATM   19  C   UNL     1      38.621 -15.050  -3.008  1.00  0.00     0.011 C 
ENDBRANCH  16  18
ENDBRANCH   9  12
ENDBRANCH   1   8
BRANCH   6  20
HETATM   20  N   UNL     1      44.167 -18.399   4.722  1.00  0.00    -0.327 N 
HETATM   21  C   UNL     1      43.854 -19.428   5.595  1.00  0.00     0.221 C 
HETATM   22  O   UNL     1      43.236 -19.332   6.650  1.00  0.00    -0.273 OA
HETATM   23  H   UNL     1      44.677 -18.657   3.888  1.00  0.00     0.169 HD
BRANCH  21  24
HETATM   24  C   UNL     1      44.359 -20.776   5.115  1.00  0.00     0.098 C 
HETATM   25  C   UNL     1      43.920 -21.064   3.692  1.00  0.00     0.014 C 
ENDBRANCH  21  24
ENDBRANCH   6  20
TORSDOF 5
ENDMDL
MODEL 4
REMARK VINA RESULT:      -7.1      3.743      8.208
REMARK  5 active torsions:
REMARK  status: ('A' for Active; 'I' for Inactive)
REMARK    1  A    between atoms: C_2  and  C_3 
REMARK    2  A    between atoms: C_7  and  C_8 
REMARK       I    between atoms: C_8  and  N_9 
REMARK    3  A    between atoms: N_9  and  C_10 
REMARK    4  A    between atoms: C_15  and  N_16 
REMARK       I    between atoms: N_16  and  C_17 
REMARK    5  A    between atoms: C_17  and  C_18 
ROOT
HETATM    1  C   UNL     1      42.666 -14.892   3.972  1.00  0.00     0.059 A 
HETATM    2  C   UNL     1      43.218 -16.160   4.219  1.00  0.00     0.060 A 
HETATM    3 CL   UNL     1      43.425 -17.375   3.003  1.00  0.00    -0.082 Cl
HETATM    4  C   UNL     1      43.804 -16.432   5.459  1.00  0.00     0.028 A 
HETATM    5  C   UNL     1      43.889 -15.445   6.444  1.00  0.00     0.031 A 
HETATM    6  C   UNL     1      43.409 -14.162   6.196  1.00  0.00     0.036 A 
HETATM    7  C   UNL     1      42.800 -13.896   4.959  1.00  0.00     0.060 A 
ENDROOT
BRANCH   1   8
HETATM    8  N   UNL     1      42.029 -14.490   2.771  1.00  0.00    -0.320 N 
HETATM    9  C   UNL     1      40.678 -14.244   2.614  1.00  0.00     0.274 C 
HETATM   10  O   UNL     1      39.870 -14.162   3.531  1.00  0.00    -0.266 OA
HETATM   11  H   UNL     1      42.621 -14.112   2.047  1.00  0.00     0.169 HD
BRANCH   9  12
HETATM   12  C   UNL     1      40.276 -13.990   1.251  1.00  0.00     0.120 A 
HETATM   13  N   UNL     1      39.421 -12.965   0.945  1.00  0.00    -0.273 N 
HETATM   14  N   UNL     1      39.145 -12.853  -0.364  1.00  0.00    -0.179 NA
HETATM   15  H   UNL     1      38.996 -12.313   1.598  1.00  0.00     0.189 HD
HETATM   16  C   UNL     1      39.829 -13.852  -0.930  1.00  0.00     0.056 A 
HETATM   17  C   UNL     1      40.549 -14.595   0.040  1.00  0.00     0.065 A 
BRANCH  16  18
HETATM   18  C   UNL     1      39.796 -14.104  -2.405  1.00  0.00     0.056 C 
HETATM   19  C   UNL     1      38.676 -15.016  -2.884  1.00  0.00     0.011 C 
ENDBRANCH  16  18
ENDBRANCH   9  12
ENDBRANCH   1   8
BRANCH   6  20
HETATM   20  N   UNL     1      43.505 -13.094   7.115  1.00  0.00    -0.327 N 
HETATM   21  C   UNL     1      44.447 -12.078   7.126  1.00  0.00     0.221 C 
HETATM   22  O   UNL     1      45.387 -11.941   6.351  1.00  0.00    -0.273 OA
HETATM   23  H   UNL     1      42.787 -13.048   7.826  1.00  0.00     0.169 HD
BRANCH  21  24
HETATM   24  C   UNL     1      44.211 -11.073   8.238  1.00  0.00     0.098 C 
HETATM   25  C   UNL     1      45.497 -10.382   8.650  1.00  0.00     0.014 C 
ENDBRANCH  21  24
ENDBRANCH   6  20
TORSDOF 5
ENDMDL
MODEL 5
REMARK VINA RESULT:      -7.1      3.244      4.522
REMARK  5 active torsions:
REMARK  status: ('A' for Active; 'I' for Inactive)
REMARK    1  A    between atoms: C_2  and  C_3 
REMARK    2  A    between atoms: C_7  and  C_8 
REMARK       I    between atoms: C_8  and  N_9 
REMARK    3  A    between atoms: N_9  and  C_10 
REMARK    4  A    between atoms: C_15  and  N_16 
REMARK       I    between atoms: N_16  and  C_17 
REMARK    5  A    between atoms: C_17  and  C_18 
ROOT
HETATM    1  C   UNL     1      42.138 -14.523   3.473  1.00  0.00     0.059 A 
HETATM    2  C   UNL     1      42.154 -15.917   3.289  1.00  0.00     0.060 A 
HETATM    3 CL   UNL     1      42.988 -17.018   4.332  1.00  0.00    -0.082 Cl
HETATM    4  C   UNL     1      41.323 -16.499   2.326  1.00  0.00     0.028 A 
HETATM    5  C   UNL     1      40.442 -15.719   1.574  1.00  0.00     0.031 A 
HETATM    6  C   UNL     1      40.361 -14.345   1.787  1.00  0.00     0.036 A 
HETATM    7  C   UNL     1      41.212 -13.758   2.737  1.00  0.00     0.060 A 
ENDROOT
BRANCH   1   8
HETATM    8  N   UNL     1      42.939 -13.806   4.396  1.00  0.00    -0.320 N 
HETATM    9  C   UNL     1      42.677 -13.649   5.744  1.00  0.00     0.274 C 
HETATM   10  O   UNL     1      41.816 -14.258   6.365  1.00  0.00    -0.266 OA
HETATM   11  H   UNL     1      43.889 -13.609   4.117  1.00  0.00     0.169 HD
BRANCH   9  12
HETATM   12  C   UNL     1      43.580 -12.750   6.422  1.00  0.00     0.120 A 
HETATM   13  N   UNL     1      43.432 -12.470   7.755  1.00  0.00    -0.273 N 
HETATM   14  N   UNL     1      44.349 -11.622   8.243  1.00  0.00    -0.179 NA
HETATM   15  H   UNL     1      42.714 -12.834   8.376  1.00  0.00     0.189 HD
HETATM   16  C   UNL     1      45.113 -11.321   7.188  1.00  0.00     0.056 A 
HETATM   17  C   UNL     1      44.669 -11.999   6.024  1.00  0.00     0.065 A 
BRANCH  16  18
HETATM   18  C   UNL     1      46.274 -10.381   7.286  1.00  0.00     0.056 C 
HETATM   19  C   UNL     1      46.090  -9.222   8.256  1.00  0.00     0.011 C 
ENDBRANCH  16  18
ENDBRANCH   9  12
ENDBRANCH   1   8
BRANCH   6  20
HETATM   20  N   UNL     1      39.460 -13.494   1.110  1.00  0.00    -0.327 N 
HETATM   21  C   UNL     1      39.625 -12.919  -0.139  1.00  0.00     0.221 C 
HETATM   22  O   UNL     1      40.602 -13.026  -0.873  1.00  0.00    -0.273 OA
HETATM   23  H   UNL     1      38.582 -13.309   1.577  1.00  0.00     0.169 HD
BRANCH  21  24
HETATM   24  C   UNL     1      38.424 -12.097  -0.568  1.00  0.00     0.098 C 
HETATM   25  C   UNL     1      37.750 -12.688  -1.792  1.00  0.00     0.014 C 
ENDBRANCH  21  24
ENDBRANCH   6  20
TORSDOF 5
ENDMDL
MODEL 6
REMARK VINA RESULT:      -6.9      3.768      5.625
REMARK  5 active torsions:
REMARK  status: ('A' for Active; 'I' for Inactive)
REMARK    1  A    between atoms: C_2  and  C_3 
REMARK    2  A    between atoms: C_7  and  C_8 
REMARK       I    between atoms: C_8  and  N_9 
REMARK    3  A    between atoms: N_9  and  C_10 
REMARK    4  A    between atoms: C_15  and  N_16 
REMARK       I    between atoms: N_16  and  C_17 
REMARK    5  A    between atoms: C_17  and  C_18 
ROOT
HETATM    1  C   UNL     1      44.081 -10.857   8.345  1.00  0.00     0.059 A 
HETATM    2  C   UNL     1      45.243 -10.283   7.803  1.00  0.00     0.060 A 
HETATM    3 CL   UNL     1      46.142  -9.018   8.570  1.00  0.00    -0.082 Cl
HETATM    4  C   UNL     1      45.837 -10.854   6.673  1.00  0.00     0.028 A 
HETATM    5  C   UNL     1      45.315 -12.016   6.099  1.00  0.00     0.031 A 
HETATM    6  C   UNL     1      44.204 -12.639   6.660  1.00  0.00     0.036 A 
HETATM    7  C   UNL     1      43.595 -12.053   7.782  1.00  0.00     0.060 A 
ENDROOT
BRANCH   1   8
HETATM    8  N   UNL     1      43.371 -10.372   9.472  1.00  0.00    -0.320 N 
HETATM    9  C   UNL     1      43.674 -10.634  10.795  1.00  0.00     0.274 C 
HETATM   10  O   UNL     1      44.703 -11.173  11.184  1.00  0.00    -0.266 OA
HETATM   11  H   UNL     1      42.762  -9.581   9.320  1.00  0.00     0.169 HD
BRANCH   9  12
HETATM   12  C   UNL     1      42.702 -10.132  11.736  1.00  0.00     0.120 A 
HETATM   13  N   UNL     1      41.359 -10.212  11.478  1.00  0.00    -0.273 N 
HETATM   14  N   UNL     1      40.582  -9.708  12.448  1.00  0.00    -0.179 NA
HETATM   15  H   UNL     1      40.923 -10.602  10.647  1.00  0.00     0.189 HD
HETATM   16  C   UNL     1      41.449  -9.265  13.366  1.00  0.00     0.056 A 
HETATM   17  C   UNL     1      42.788  -9.504  12.963  1.00  0.00     0.065 A 
BRANCH  16  18
HETATM   18  C   UNL     1      41.000  -8.608  14.633  1.00  0.00     0.056 C 
HETATM   19  C   UNL     1      41.827  -7.407  15.071  1.00  0.00     0.011 C 
ENDBRANCH  16  18
ENDBRANCH   9  12
ENDBRANCH   1   8
BRANCH   6  20
HETATM   20  N   UNL     1      43.649 -13.845   6.177  1.00  0.00    -0.327 N 
HETATM   21  C   UNL     1      42.842 -14.011   5.063  1.00  0.00     0.221 C 
HETATM   22  O   UNL     1      42.442 -13.130   4.310  1.00  0.00    -0.273 OA
HETATM   23  H   UNL     1      43.893 -14.686   6.684  1.00  0.00     0.169 HD
BRANCH  21  24
HETATM   24  C   UNL     1      42.470 -15.462   4.821  1.00  0.00     0.098 C 
HETATM   25  C   UNL     1      43.568 -16.404   5.276  1.00  0.00     0.014 C 
ENDBRANCH  21  24
ENDBRANCH   6  20
TORSDOF 5
ENDMDL
MODEL 7
REMARK VINA RESULT:      -6.9      4.597      7.336
REMARK  5 active torsions:
REMARK  status: ('A' for Active; 'I' for Inactive)
REMARK    1  A    between atoms: C_2  and  C_3 
REMARK    2  A    between atoms: C_7  and  C_8 
REMARK       I    between atoms: C_8  and  N_9 
REMARK    3  A    between atoms: N_9  and  C_10 
REMARK    4  A    between atoms: C_15  and  N_16 
REMARK       I    between atoms: N_16  and  C_17 
REMARK    5  A    between atoms: C_17  and  C_18 
ROOT
HETATM    1  C   UNL     1      40.424 -13.939   3.051  1.00  0.00     0.059 A 
HETATM    2  C   UNL     1      40.118 -12.919   3.968  1.00  0.00     0.060 A 
HETATM    3 CL   UNL     1      40.845 -12.780   5.533  1.00  0.00    -0.082 Cl
HETATM    4  C   UNL     1      39.321 -11.841   3.567  1.00  0.00     0.028 A 
HETATM    5  C   UNL     1      38.859 -11.741   2.252  1.00  0.00     0.031 A 
HETATM    6  C   UNL     1      39.206 -12.706   1.310  1.00  0.00     0.036 A 
HETATM    7  C   UNL     1      39.988 -13.799   1.719  1.00  0.00     0.060 A 
ENDROOT
BRANCH   1   8
HETATM    8  N   UNL     1      41.202 -15.090   3.329  1.00  0.00    -0.320 N 
HETATM    9  C   UNL     1      42.558 -15.226   3.100  1.00  0.00     0.274 C 
HETATM   10  O   UNL     1      43.312 -14.310   2.793  1.00  0.00    -0.266 OA
HETATM   11  H   UNL     1      40.805 -15.764   3.967  1.00  0.00     0.169 HD
BRANCH   9  12
HETATM   12  C   UNL     1      43.070 -16.554   3.341  1.00  0.00     0.120 A 
HETATM   13  N   UNL     1      43.803 -16.836   4.463  1.00  0.00    -0.273 N 
HETATM   14  N   UNL     1      44.205 -18.114   4.549  1.00  0.00    -0.179 NA
HETATM   15  H   UNL     1      44.058 -16.186   5.202  1.00  0.00     0.189 HD
HETATM   16  C   UNL     1      43.735 -18.681   3.433  1.00  0.00     0.056 A 
HETATM   17  C   UNL     1      43.021 -17.744   2.643  1.00  0.00     0.065 A 
BRANCH  16  18
HETATM   18  C   UNL     1      43.967 -20.125   3.116  1.00  0.00     0.056 C 
HETATM   19  C   UNL     1      43.584 -20.550   1.705  1.00  0.00     0.011 C 
ENDBRANCH  16  18
ENDBRANCH   9  12
ENDBRANCH   1   8
BRANCH   6  20
HETATM   20  N   UNL     1      38.828 -12.651  -0.049  1.00  0.00    -0.327 N 
HETATM   21  C   UNL     1      39.651 -12.428  -1.141  1.00  0.00     0.221 C 
HETATM   22  O   UNL     1      40.857 -12.211  -1.119  1.00  0.00    -0.273 OA
HETATM   23  H   UNL     1      37.852 -12.824  -0.251  1.00  0.00     0.169 HD
BRANCH  21  24
HETATM   24  C   UNL     1      38.902 -12.485  -2.460  1.00  0.00     0.098 C 
HETATM   25  C   UNL     1      37.518 -13.082  -2.292  1.00  0.00     0.014 C 
ENDBRANCH  21  24
ENDBRANCH   6  20
TORSDOF 5
ENDMDL
MODEL 8
REMARK VINA RESULT:      -6.7      3.065      8.805
REMARK  5 active torsions:
REMARK  status: ('A' for Active; 'I' for Inactive)
REMARK    1  A    between atoms: C_2  and  C_3 
REMARK    2  A    between atoms: C_7  and  C_8 
REMARK       I    between atoms: C_8  and  N_9 
REMARK    3  A    between atoms: N_9  and  C_10 
REMARK    4  A    between atoms: C_15  and  N_16 
REMARK       I    between atoms: N_16  and  C_17 
REMARK    5  A    between atoms: C_17  and  C_18 
ROOT
HETATM    1  C   UNL     1      44.232 -11.173   8.079  1.00  0.00     0.059 A 
HETATM    2  C   UNL     1      45.515 -10.720   7.729  1.00  0.00     0.060 A 
HETATM    3 CL   UNL     1      46.308 -11.120   6.244  1.00  0.00    -0.082 Cl
HETATM    4  C   UNL     1      46.147  -9.751   8.517  1.00  0.00     0.028 A 
HETATM    5  C   UNL     1      45.502  -9.195   9.624  1.00  0.00     0.031 A 
HETATM    6  C   UNL     1      44.204  -9.581   9.948  1.00  0.00     0.036 A 
HETATM    7  C   UNL     1      43.579 -10.569   9.171  1.00  0.00     0.060 A 
ENDROOT
BRANCH   1   8
HETATM    8  N   UNL     1      43.489 -12.159   7.382  1.00  0.00    -0.320 N 
HETATM    9  C   UNL     1      42.682 -11.937   6.282  1.00  0.00     0.274 C 
HETATM   10  O   UNL     1      42.639 -10.892   5.644  1.00  0.00    -0.266 OA
HETATM   11  H   UNL     1      43.757 -13.120   7.531  1.00  0.00     0.169 HD
BRANCH   9  12
HETATM   12  C   UNL     1      41.928 -13.092   5.857  1.00  0.00     0.120 A 
HETATM   13  N   UNL     1      40.779 -13.463   6.504  1.00  0.00    -0.273 N 
HETATM   14  N   UNL     1      40.188 -14.554   5.991  1.00  0.00    -0.179 NA
HETATM   15  H   UNL     1      40.357 -13.003   7.306  1.00  0.00     0.189 HD
HETATM   16  C   UNL     1      40.991 -14.919   4.986  1.00  0.00     0.056 A 
HETATM   17  C   UNL     1      42.096 -14.038   4.865  1.00  0.00     0.065 A 
BRANCH  16  18
HETATM   18  C   UNL     1      40.706 -16.117   4.134  1.00  0.00     0.056 C 
HETATM   19  C   UNL     1      40.089 -15.815   2.776  1.00  0.00     0.011 C 
ENDBRANCH  16  18
ENDBRANCH   9  12
ENDBRANCH   1   8
BRANCH   6  20
HETATM   20  N   UNL     1      43.462  -9.028  11.015  1.00  0.00    -0.327 N 
HETATM   21  C   UNL     1      43.032  -9.674  12.163  1.00  0.00     0.221 C 
HETATM   22  O   UNL     1      43.199 -10.855  12.446  1.00  0.00    -0.273 OA
HETATM   23  H   UNL     1      43.245  -8.042  10.947  1.00  0.00     0.169 HD
BRANCH  21  24
HETATM   24  C   UNL     1      42.297  -8.748  13.114  1.00  0.00     0.098 C 
HETATM   25  C   UNL     1      43.181  -7.607  13.579  1.00  0.00     0.014 C 
ENDBRANCH  21  24
ENDBRANCH   6  20
TORSDOF 5
ENDMDL
MODEL 9
REMARK VINA RESULT:      -6.7      5.103      7.354
REMARK  5 active torsions:
REMARK  status: ('A' for Active; 'I' for Inactive)
REMARK    1  A    between atoms: C_2  and  C_3 
REMARK    2  A    between atoms: C_7  and  C_8 
REMARK       I    between atoms: C_8  and  N_9 
REMARK    3  A    between atoms: N_9  and  C_10 
REMARK    4  A    between atoms: C_15  and  N_16 
REMARK       I    between atoms: N_16  and  C_17 
REMARK    5  A    between atoms: C_17  and  C_18 
ROOT
HETATM    1  C   UNL     1      41.157 -14.429   2.283  1.00  0.00     0.059 A 
HETATM    2  C   UNL     1      40.575 -14.168   3.536  1.00  0.00     0.060 A 
HETATM    3 CL   UNL     1      39.478 -12.863   3.836  1.00  0.00    -0.082 Cl
HETATM    4  C   UNL     1      40.727 -15.089   4.577  1.00  0.00     0.028 A 
HETATM    5  C   UNL     1      41.414 -16.289   4.378  1.00  0.00     0.031 A 
HETATM    6  C   UNL     1      41.940 -16.599   3.127  1.00  0.00     0.036 A 
HETATM    7  C   UNL     1      41.806 -15.664   2.088  1.00  0.00     0.060 A 
ENDROOT
BRANCH   1   8
HETATM    8  N   UNL     1      41.095 -13.577   1.153  1.00  0.00    -0.320 N 
HETATM    9  C   UNL     1      40.416 -13.838  -0.023  1.00  0.00     0.274 C 
HETATM   10  O   UNL     1      39.625 -14.759  -0.184  1.00  0.00    -0.266 OA
HETATM   11  H   UNL     1      41.344 -12.610   1.298  1.00  0.00     0.169 HD
BRANCH   9  12
HETATM   12  C   UNL     1      40.638 -12.865  -1.065  1.00  0.00     0.120 A 
HETATM   13  N   UNL     1      40.928 -13.254  -2.346  1.00  0.00    -0.273 N 
HETATM   14  N   UNL     1      41.104 -12.236  -3.202  1.00  0.00    -0.179 NA
HETATM   15  H   UNL     1      41.020 -14.208  -2.685  1.00  0.00     0.189 HD
HETATM   16  C   UNL     1      40.942 -11.142  -2.449  1.00  0.00     0.056 A 
HETATM   17  C   UNL     1      40.653 -11.485  -1.103  1.00  0.00     0.065 A 
BRANCH  16  18
HETATM   18  C   UNL     1      41.064  -9.762  -3.014  1.00  0.00     0.056 C 
HETATM   19  C   UNL     1      39.989  -9.373  -4.018  1.00  0.00     0.011 C 
ENDBRANCH  16  18
ENDBRANCH   9  12
ENDBRANCH   1   8
BRANCH   6  20
HETATM   20  N   UNL     1      42.597 -17.812   2.827  1.00  0.00    -0.327 N 
HETATM   21  C   UNL     1      43.702 -18.349   3.467  1.00  0.00     0.221 C 
HETATM   22  O   UNL     1      44.326 -17.850   4.398  1.00  0.00    -0.273 OA
HETATM   23  H   UNL     1      42.198 -18.366   2.080  1.00  0.00     0.169 HD
BRANCH  21  24
HETATM   24  C   UNL     1      44.108 -19.698   2.902  1.00  0.00     0.098 C 
HETATM   25  C   UNL     1      43.156 -20.158   1.814  1.00  0.00     0.014 C 
ENDBRANCH  21  24
ENDBRANCH   6  20
TORSDOF 5
ENDMDL
MODEL 10
REMARK VINA RESULT:      -6.4      2.726      7.728
REMARK  5 active torsions:
REMARK  status: ('A' for Active; 'I' for Inactive)
REMARK    1  A    between atoms: C_2  and  C_3 
REMARK    2  A    between atoms: C_7  and  C_8 
REMARK       I    between atoms: C_8  and  N_9 
REMARK    3  A    between atoms: N_9  and  C_10 
REMARK    4  A    between atoms: C_15  and  N_16 
REMARK       I    between atoms: N_16  and  C_17 
REMARK    5  A    between atoms: C_17  and  C_18 
ROOT
HETATM    1  C   UNL     1      40.966 -13.550   4.595  1.00  0.00     0.059 A 
HETATM    2  C   UNL     1      40.047 -13.122   3.621  1.00  0.00     0.060 A 
HETATM    3 CL   UNL     1      39.486 -14.118   2.321  1.00  0.00    -0.082 Cl
HETATM    4  C   UNL     1      39.396 -11.894   3.774  1.00  0.00     0.028 A 
HETATM    5  C   UNL     1      39.612 -11.104   4.906  1.00  0.00     0.031 A 
HETATM    6  C   UNL     1      40.467 -11.540   5.914  1.00  0.00     0.036 A 
HETATM    7  C   UNL     1      41.137 -12.763   5.750  1.00  0.00     0.060 A 
ENDROOT
BRANCH   1   8
HETATM    8  N   UNL     1      41.705 -14.759   4.555  1.00  0.00    -0.320 N 
HETATM    9  C   UNL     1      42.710 -15.065   3.657  1.00  0.00     0.274 C 
HETATM   10  O   UNL     1      43.227 -14.265   2.886  1.00  0.00    -0.266 OA
HETATM   11  H   UNL     1      41.680 -15.335   5.384  1.00  0.00     0.169 HD
BRANCH   9  12
HETATM   12  C   UNL     1      43.196 -16.420   3.750  1.00  0.00     0.120 A 
HETATM   13  N   UNL     1      43.992 -16.817   4.792  1.00  0.00    -0.273 N 
HETATM   14  N   UNL     1      44.359 -18.107   4.742  1.00  0.00    -0.179 NA
HETATM   15  H   UNL     1      44.314 -16.240   5.564  1.00  0.00     0.189 HD
HETATM   16  C   UNL     1      43.800 -18.564   3.617  1.00  0.00     0.056 A 
HETATM   17  C   UNL     1      43.065 -17.545   2.958  1.00  0.00     0.065 A 
BRANCH  16  18
HETATM   18  C   UNL     1      43.966 -19.981   3.163  1.00  0.00     0.056 C 
HETATM   19  C   UNL     1      43.344 -20.308   1.813  1.00  0.00     0.011 C 
ENDBRANCH  16  18
ENDBRANCH   9  12
ENDBRANCH   1   8
BRANCH   6  20
HETATM   20  N   UNL     1      40.697 -10.830   7.113  1.00  0.00    -0.327 N 
HETATM   21  C   UNL     1      41.561  -9.764   7.306  1.00  0.00     0.221 C 
HETATM   22  O   UNL     1      42.304  -9.262   6.470  1.00  0.00    -0.273 OA
HETATM   23  H   UNL     1      40.147 -11.112   7.914  1.00  0.00     0.169 HD
BRANCH  21  24
HETATM   24  C   UNL     1      41.512  -9.220   8.721  1.00  0.00     0.098 C 
HETATM   25  C   UNL     1      42.865  -9.306   9.401  1.00  0.00     0.014 C 
ENDBRANCH  21  24
ENDBRANCH   6  20
TORSDOF 5
ENDMDL
