MODEL 1
REMARK VINA RESULT:      -9.7      0.000      0.000
REMARK  6 active torsions:
REMARK  status: ('A' for Active; 'I' for Inactive)
REMARK    1  A    between atoms: C_2  and  C_3 
REMARK    2  A    between atoms: C_3  and  C_4 
REMARK    3  A    between atoms: C_4  and  C_5 
REMARK    4  A    between atoms: C_8  and  N_9 
REMARK       I    between atoms: N_9  and  C_10 
REMARK    5  A    between atoms: C_10  and  C_11 
REMARK    6  A    between atoms: N_16  and  C_17 
ROOT
HETATM    1  C   UNL     1      43.739 -12.215   6.844  1.00  0.00     0.098 A 
HETATM    2  C   UNL     1      43.421 -11.724   5.458  1.00  0.00     0.205 A 
HETATM    3  O   UNL     1      43.416 -10.530   5.172  1.00  0.00    -0.286 OA
HETATM    4  C   UNL     1      43.133 -12.777   4.504  1.00  0.00     0.087 A 
HETATM    5  C   UNL     1      43.238 -14.104   4.843  1.00  0.00     0.145 A 
HETATM    6  N   UNL     1      42.966 -14.847   3.706  1.00  0.00    -0.216 N 
HETATM    7  N   UNL     1      42.509 -14.027   2.711  1.00  0.00    -0.170 NA
HETATM    8  C   UNL     1      42.674 -12.779   3.175  1.00  0.00     0.069 C 
HETATM    9  C   UNL     1      42.338 -11.610   2.325  1.00  0.00     0.073 C 
HETATM   10  N   UNL     1      43.527 -14.515   6.101  1.00  0.00    -0.349 N 
HETATM   11  C   UNL     1      43.751 -13.549   7.066  1.00  0.00     0.111 A 
HETATM   12  H   UNL     1      43.386 -15.468   6.433  1.00  0.00     0.167 HD
ENDROOT
BRANCH   1  13
HETATM   13  C   UNL     1      44.066 -11.316   7.993  1.00  0.00     0.261 C 
HETATM   14  N   UNL     1      42.985 -10.642   8.520  1.00  0.00    -0.323 N 
HETATM   15  H   UNL     1      42.068 -10.856   8.127  1.00  0.00     0.169 HD
HETATM   16  O   UNL     1      45.233 -11.204   8.361  1.00  0.00    -0.267 OA
BRANCH  14  17
HETATM   17  C   UNL     1      43.000  -9.622   9.496  1.00  0.00     0.035 A 
HETATM   18  C   UNL     1      42.856  -8.264   9.211  1.00  0.00     0.030 A 
HETATM   19  C   UNL     1      42.820  -7.321  10.242  1.00  0.00     0.009 A 
HETATM   20  C   UNL     1      42.918  -7.718  11.581  1.00  0.00    -0.058 A 
HETATM   21  C   UNL     1      43.089  -9.076  11.866  1.00  0.00     0.009 A 
HETATM   22  C   UNL     1      43.137 -10.017  10.832  1.00  0.00     0.030 A 
BRANCH  20  23
HETATM   23  C   UNL     1      42.805  -6.700  12.688  1.00  0.00     0.038 C 
BRANCH  23  24
HETATM   24  C   UNL     1      43.343  -7.250  14.012  1.00  0.00     0.004 C 
BRANCH  24  25
HETATM   25  C   UNL     1      42.293  -7.181  15.120  1.00  0.00    -0.004 C 
HETATM   26  C   UNL     1      41.390  -8.404  15.103  1.00  0.00     0.005 C 
ENDBRANCH  24  25
ENDBRANCH  23  24
ENDBRANCH  20  23
ENDBRANCH  14  17
ENDBRANCH   1  13
BRANCH   6  27
HETATM   27  C   UNL     1      43.134 -16.240   3.464  1.00  0.00     0.060 A 
HETATM   28  C   UNL     1      43.852 -17.058   4.346  1.00  0.00     0.032 A 
HETATM   29  C   UNL     1      44.016 -18.419   4.072  1.00  0.00     0.009 A 
HETATM   30  C   UNL     1      43.468 -18.984   2.916  1.00  0.00    -0.062 A 
HETATM   31  C   UNL     1      43.664 -20.438   2.602  1.00  0.00     0.048 C 
HETATM   32  C   UNL     1      42.777 -18.161   2.020  1.00  0.00     0.009 A 
HETATM   33  C   UNL     1      42.616 -16.798   2.287  1.00  0.00     0.032 A 
ENDBRANCH   6  27
TORSDOF 6
ENDMDL
MODEL 2
REMARK VINA RESULT:      -8.9      1.375      2.176
REMARK  6 active torsions:
REMARK  status: ('A' for Active; 'I' for Inactive)
REMARK    1  A    between atoms: C_2  and  C_3 
REMARK    2  A    between atoms: C_3  and  C_4 
REMARK    3  A    between atoms: C_4  and  C_5 
REMARK    4  A    between atoms: C_8  and  N_9 
REMARK       I    between atoms: N_9  and  C_10 
REMARK    5  A    between atoms: C_10  and  C_11 
REMARK    6  A    between atoms: N_16  and  C_17 
ROOT
HETATM    1  C   UNL     1      43.514 -12.321   6.608  1.00  0.00     0.098 A 
HETATM    2  C   UNL     1      43.147 -11.934   5.200  1.00  0.00     0.205 A 
HETATM    3  O   UNL     1      43.051 -10.763   4.847  1.00  0.00    -0.286 OA
HETATM    4  C   UNL     1      42.929 -13.059   4.313  1.00  0.00     0.087 A 
HETATM    5  C   UNL     1      43.135 -14.354   4.725  1.00  0.00     0.145 A 
HETATM    6  N   UNL     1      42.909 -15.179   3.636  1.00  0.00    -0.216 N 
HETATM    7  N   UNL     1      42.383 -14.454   2.602  1.00  0.00    -0.170 NA
HETATM    8  C   UNL     1      42.459 -13.172   2.991  1.00  0.00     0.069 C 
HETATM    9  C   UNL     1      42.030 -12.082   2.081  1.00  0.00     0.073 C 
HETATM   10  N   UNL     1      43.466 -14.668   6.000  1.00  0.00    -0.349 N 
HETATM   11  C   UNL     1      43.627 -13.634   6.906  1.00  0.00     0.111 A 
HETATM   12  H   UNL     1      43.400 -15.608   6.388  1.00  0.00     0.167 HD
ENDROOT
BRANCH   1  13
HETATM   13  C   UNL     1      43.784 -11.334   7.699  1.00  0.00     0.261 C 
HETATM   14  N   UNL     1      42.775 -10.417   7.907  1.00  0.00    -0.323 N 
HETATM   15  H   UNL     1      41.928 -10.526   7.350  1.00  0.00     0.169 HD
HETATM   16  O   UNL     1      44.857 -11.371   8.297  1.00  0.00    -0.267 OA
BRANCH  14  17
HETATM   17  C   UNL     1      42.802  -9.286   8.751  1.00  0.00     0.035 A 
HETATM   18  C   UNL     1      43.406  -8.074   8.414  1.00  0.00     0.030 A 
HETATM   19  C   UNL     1      43.335  -6.979   9.281  1.00  0.00     0.009 A 
HETATM   20  C   UNL     1      42.650  -7.073  10.498  1.00  0.00    -0.058 A 
HETATM   21  C   UNL     1      42.068  -8.294  10.848  1.00  0.00     0.009 A 
HETATM   22  C   UNL     1      42.150  -9.392   9.984  1.00  0.00     0.030 A 
BRANCH  20  23
HETATM   23  C   UNL     1      42.519  -5.865  11.393  1.00  0.00     0.038 C 
BRANCH  23  24
HETATM   24  C   UNL     1      42.658  -4.562  10.600  1.00  0.00     0.004 C 
BRANCH  24  25
HETATM   25  C   UNL     1      42.644  -3.340  11.516  1.00  0.00    -0.004 C 
HETATM   26  C   UNL     1      43.439  -2.190  10.917  1.00  0.00     0.005 C 
ENDBRANCH  24  25
ENDBRANCH  23  24
ENDBRANCH  20  23
ENDBRANCH  14  17
ENDBRANCH   1  13
BRANCH   6  27
HETATM   27  C   UNL     1      43.178 -16.568   3.472  1.00  0.00     0.060 A 
HETATM   28  C   UNL     1      42.739 -17.272   2.344  1.00  0.00     0.032 A 
HETATM   29  C   UNL     1      43.003 -18.640   2.219  1.00  0.00     0.009 A 
HETATM   30  C   UNL     1      43.705 -19.324   3.216  1.00  0.00    -0.062 A 
HETATM   31  C   UNL     1      43.967 -20.796   3.102  1.00  0.00     0.048 C 
HETATM   32  C   UNL     1      44.116 -18.626   4.357  1.00  0.00     0.009 A 
HETATM   33  C   UNL     1      43.849 -17.259   4.489  1.00  0.00     0.032 A 
ENDBRANCH   6  27
TORSDOF 6
ENDMDL
MODEL 3
REMARK VINA RESULT:      -8.9      1.694     10.744
REMARK  6 active torsions:
REMARK  status: ('A' for Active; 'I' for Inactive)
REMARK    1  A    between atoms: C_2  and  C_3 
REMARK    2  A    between atoms: C_3  and  C_4 
REMARK    3  A    between atoms: C_4  and  C_5 
REMARK    4  A    between atoms: C_8  and  N_9 
REMARK       I    between atoms: N_9  and  C_10 
REMARK    5  A    between atoms: C_10  and  C_11 
REMARK    6  A    between atoms: N_16  and  C_17 
ROOT
HETATM    1  C   UNL     1      43.353 -10.750   7.513  1.00  0.00     0.098 A 
HETATM    2  C   UNL     1      42.431  -9.626   7.124  1.00  0.00     0.205 A 
HETATM    3  O   UNL     1      42.021  -9.483   5.976  1.00  0.00    -0.286 OA
HETATM    4  C   UNL     1      42.072  -8.745   8.218  1.00  0.00     0.087 A 
HETATM    5  C   UNL     1      42.480  -8.994   9.507  1.00  0.00     0.145 A 
HETATM    6  N   UNL     1      41.921  -8.018  10.316  1.00  0.00    -0.216 N 
HETATM    7  N   UNL     1      41.328  -7.056   9.545  1.00  0.00    -0.170 NA
HETATM    8  C   UNL     1      41.364  -7.532   8.291  1.00  0.00     0.069 C 
HETATM    9  C   UNL     1      40.745  -6.770   7.179  1.00  0.00     0.073 C 
HETATM   10  N   UNL     1      43.310 -10.016   9.824  1.00  0.00    -0.349 N 
HETATM   11  C   UNL     1      43.733 -10.852   8.806  1.00  0.00     0.111 A 
HETATM   12  H   UNL     1      43.807 -10.088  10.711  1.00  0.00     0.167 HD
ENDROOT
BRANCH   1  13
HETATM   13  C   UNL     1      43.859 -11.781   6.556  1.00  0.00     0.261 C 
HETATM   14  N   UNL     1      42.900 -12.303   5.713  1.00  0.00    -0.323 N 
HETATM   15  H   UNL     1      41.962 -11.907   5.777  1.00  0.00     0.169 HD
HETATM   16  O   UNL     1      45.040 -12.117   6.597  1.00  0.00    -0.267 OA
BRANCH  14  17
HETATM   17  C   UNL     1      43.039 -13.385   4.818  1.00  0.00     0.035 A 
HETATM   18  C   UNL     1      43.053 -14.725   5.207  1.00  0.00     0.030 A 
HETATM   19  C   UNL     1      43.133 -15.742   4.250  1.00  0.00     0.009 A 
HETATM   20  C   UNL     1      43.190 -15.439   2.885  1.00  0.00    -0.058 A 
HETATM   21  C   UNL     1      43.203 -14.096   2.496  1.00  0.00     0.009 A 
HETATM   22  C   UNL     1      43.136 -13.080   3.455  1.00  0.00     0.030 A 
BRANCH  20  23
HETATM   23  C   UNL     1      43.203 -16.545   1.859  1.00  0.00     0.038 C 
BRANCH  23  24
HETATM   24  C   UNL     1      42.611 -17.840   2.424  1.00  0.00     0.004 C 
BRANCH  24  25
HETATM   25  C   UNL     1      43.681 -18.915   2.609  1.00  0.00    -0.004 C 
HETATM   26  C   UNL     1      43.310 -20.196   1.877  1.00  0.00     0.005 C 
ENDBRANCH  24  25
ENDBRANCH  23  24
ENDBRANCH  20  23
ENDBRANCH  14  17
ENDBRANCH   1  13
BRANCH   6  27
HETATM   27  C   UNL     1      41.863  -7.934  11.736  1.00  0.00     0.060 A 
HETATM   28  C   UNL     1      43.012  -7.719  12.507  1.00  0.00     0.032 A 
HETATM   29  C   UNL     1      42.925  -7.659  13.902  1.00  0.00     0.009 A 
HETATM   30  C   UNL     1      41.694  -7.813  14.547  1.00  0.00    -0.062 A 
HETATM   31  C   UNL     1      41.599  -7.777  16.043  1.00  0.00     0.048 C 
HETATM   32  C   UNL     1      40.551  -8.057  13.778  1.00  0.00     0.009 A 
HETATM   33  C   UNL     1      40.634  -8.124  12.383  1.00  0.00     0.032 A 
ENDBRANCH   6  27
TORSDOF 6
ENDMDL
MODEL 4
REMARK VINA RESULT:      -8.6      2.072      3.388
REMARK  6 active torsions:
REMARK  status: ('A' for Active; 'I' for Inactive)
REMARK    1  A    between atoms: C_2  and  C_3 
REMARK    2  A    between atoms: C_3  and  C_4 
REMARK    3  A    between atoms: C_4  and  C_5 
REMARK    4  A    between atoms: C_8  and  N_9 
REMARK       I    between atoms: N_9  and  C_10 
REMARK    5  A    between atoms: C_10  and  C_11 
REMARK    6  A    between atoms: N_16  and  C_17 
ROOT
HETATM    1  C   UNL     1      43.589 -12.063   6.211  1.00  0.00     0.098 A 
HETATM    2  C   UNL     1      43.563 -13.555   6.414  1.00  0.00     0.205 A 
HETATM    3  O   UNL     1      43.902 -14.077   7.472  1.00  0.00    -0.286 OA
HETATM    4  C   UNL     1      43.099 -14.304   5.264  1.00  0.00     0.087 A 
HETATM    5  C   UNL     1      42.643 -13.675   4.130  1.00  0.00     0.145 A 
HETATM    6  N   UNL     1      42.213 -14.657   3.253  1.00  0.00    -0.216 N 
HETATM    7  N   UNL     1      42.562 -15.892   3.728  1.00  0.00    -0.170 NA
HETATM    8  C   UNL     1      43.034 -15.677   4.965  1.00  0.00     0.069 C 
HETATM    9  C   UNL     1      43.455 -16.815   5.818  1.00  0.00     0.073 C 
HETATM   10  N   UNL     1      42.679 -12.329   3.979  1.00  0.00    -0.349 N 
HETATM   11  C   UNL     1      43.171 -11.569   5.025  1.00  0.00     0.111 A 
HETATM   12  H   UNL     1      42.569 -11.857   3.082  1.00  0.00     0.167 HD
ENDROOT
BRANCH   1  13
HETATM   13  C   UNL     1      44.032 -11.088   7.254  1.00  0.00     0.261 C 
HETATM   14  N   UNL     1      43.222 -11.031   8.369  1.00  0.00    -0.323 N 
HETATM   15  H   UNL     1      42.441 -11.687   8.407  1.00  0.00     0.169 HD
HETATM   16  O   UNL     1      45.027 -10.396   7.053  1.00  0.00    -0.267 OA
BRANCH  14  17
HETATM   17  C   UNL     1      43.293 -10.114   9.438  1.00  0.00     0.035 A 
HETATM   18  C   UNL     1      42.672  -8.865   9.440  1.00  0.00     0.030 A 
HETATM   19  C   UNL     1      42.740  -8.038  10.566  1.00  0.00     0.009 A 
HETATM   20  C   UNL     1      43.424  -8.449  11.717  1.00  0.00    -0.058 A 
HETATM   21  C   UNL     1      44.069  -9.690  11.706  1.00  0.00     0.009 A 
HETATM   22  C   UNL     1      44.010 -10.510  10.574  1.00  0.00     0.030 A 
BRANCH  20  23
HETATM   23  C   UNL     1      43.430  -7.581  12.950  1.00  0.00     0.038 C 
BRANCH  23  24
HETATM   24  C   UNL     1      42.059  -7.568  13.633  1.00  0.00     0.004 C 
BRANCH  24  25
HETATM   25  C   UNL     1      41.734  -8.919  14.270  1.00  0.00    -0.004 C 
HETATM   26  C   UNL     1      40.562  -9.591  13.571  1.00  0.00     0.005 C 
ENDBRANCH  24  25
ENDBRANCH  23  24
ENDBRANCH  20  23
ENDBRANCH  14  17
ENDBRANCH   1  13
BRANCH   6  27
HETATM   27  C   UNL     1      41.477 -14.539   2.040  1.00  0.00     0.060 A 
HETATM   28  C   UNL     1      41.583 -13.405   1.224  1.00  0.00     0.032 A 
HETATM   29  C   UNL     1      40.833 -13.311   0.047  1.00  0.00     0.009 A 
HETATM   30  C   UNL     1      39.968 -14.342  -0.332  1.00  0.00    -0.062 A 
HETATM   31  C   UNL     1      39.140 -14.234  -1.578  1.00  0.00     0.048 C 
HETATM   32  C   UNL     1      39.840 -15.460   0.499  1.00  0.00     0.009 A 
HETATM   33  C   UNL     1      40.583 -15.557   1.680  1.00  0.00     0.032 A 
ENDBRANCH   6  27
TORSDOF 6
ENDMDL
MODEL 5
REMARK VINA RESULT:      -8.4      3.066     10.632
REMARK  6 active torsions:
REMARK  status: ('A' for Active; 'I' for Inactive)
REMARK    1  A    between atoms: C_2  and  C_3 
REMARK    2  A    between atoms: C_3  and  C_4 
REMARK    3  A    between atoms: C_4  and  C_5 
REMARK    4  A    between atoms: C_8  and  N_9 
REMARK       I    between atoms: N_9  and  C_10 
REMARK    5  A    between atoms: C_10  and  C_11 
REMARK    6  A    between atoms: N_16  and  C_17 
ROOT
HETATM    1  C   UNL     1      41.944 -11.352   4.947  1.00  0.00     0.098 A 
HETATM    2  C   UNL     1      43.448 -11.307   4.971  1.00  0.00     0.205 A 
HETATM    3  O   UNL     1      44.124 -11.492   3.963  1.00  0.00    -0.286 OA
HETATM    4  C   UNL     1      44.015 -11.022   6.274  1.00  0.00     0.087 A 
HETATM    5  C   UNL     1      43.221 -10.732   7.357  1.00  0.00     0.145 A 
HETATM    6  N   UNL     1      44.058 -10.443   8.421  1.00  0.00    -0.216 N 
HETATM    7  N   UNL     1      45.355 -10.727   8.087  1.00  0.00    -0.170 NA
HETATM    8  C   UNL     1      45.329 -11.012   6.776  1.00  0.00     0.069 C 
HETATM    9  C   UNL     1      46.585 -11.312   6.047  1.00  0.00     0.073 C 
HETATM   10  N   UNL     1      41.868 -10.780   7.303  1.00  0.00    -0.349 N 
HETATM   11  C   UNL     1      41.276 -11.108   6.097  1.00  0.00     0.111 A 
HETATM   12  H   UNL     1      41.269 -10.798   8.127  1.00  0.00     0.167 HD
ENDROOT
BRANCH   1  13
HETATM   13  C   UNL     1      41.138 -11.630   3.719  1.00  0.00     0.261 C 
HETATM   14  N   UNL     1      41.617 -12.660   2.938  1.00  0.00    -0.323 N 
HETATM   15  H   UNL     1      42.429 -13.169   3.290  1.00  0.00     0.169 HD
HETATM   16  O   UNL     1      40.159 -10.931   3.467  1.00  0.00    -0.267 OA
BRANCH  14  17
HETATM   17  C   UNL     1      41.166 -13.052   1.659  1.00  0.00     0.035 A 
HETATM   18  C   UNL     1      40.518 -14.258   1.395  1.00  0.00     0.030 A 
HETATM   19  C   UNL     1      40.045 -14.545   0.110  1.00  0.00     0.009 A 
HETATM   20  C   UNL     1      40.204 -13.625  -0.934  1.00  0.00    -0.058 A 
HETATM   21  C   UNL     1      40.877 -12.427  -0.675  1.00  0.00     0.009 A 
HETATM   22  C   UNL     1      41.359 -12.148   0.609  1.00  0.00     0.030 A 
BRANCH  20  23
HETATM   23  C   UNL     1      39.629 -13.914  -2.297  1.00  0.00     0.038 C 
BRANCH  23  24
HETATM   24  C   UNL     1      38.117 -13.664  -2.332  1.00  0.00     0.004 C 
BRANCH  24  25
HETATM   25  C   UNL     1      37.794 -12.205  -2.654  1.00  0.00    -0.004 C 
HETATM   26  C   UNL     1      37.359 -11.447  -1.410  1.00  0.00     0.005 C 
ENDBRANCH  24  25
ENDBRANCH  23  24
ENDBRANCH  20  23
ENDBRANCH  14  17
ENDBRANCH   1  13
BRANCH   6  27
HETATM   27  C   UNL     1      43.754  -9.891   9.699  1.00  0.00     0.060 A 
HETATM   28  C   UNL     1      43.587 -10.702  10.828  1.00  0.00     0.032 A 
HETATM   29  C   UNL     1      43.271 -10.132  12.066  1.00  0.00     0.009 A 
HETATM   30  C   UNL     1      43.115  -8.749  12.194  1.00  0.00    -0.062 A 
HETATM   31  C   UNL     1      42.748  -8.134  13.512  1.00  0.00     0.048 C 
HETATM   32  C   UNL     1      43.252  -7.942  11.059  1.00  0.00     0.009 A 
HETATM   33  C   UNL     1      43.563  -8.508   9.819  1.00  0.00     0.032 A 
ENDBRANCH   6  27
TORSDOF 6
ENDMDL
MODEL 6
REMARK VINA RESULT:      -8.4      8.046     11.758
REMARK  6 active torsions:
REMARK  status: ('A' for Active; 'I' for Inactive)
REMARK    1  A    between atoms: C_2  and  C_3 
REMARK    2  A    between atoms: C_3  and  C_4 
REMARK    3  A    between atoms: C_4  and  C_5 
REMARK    4  A    between atoms: C_8  and  N_9 
REMARK       I    between atoms: N_9  and  C_10 
REMARK    5  A    between atoms: C_10  and  C_11 
REMARK    6  A    between atoms: N_16  and  C_17 
ROOT
HETATM    1  C   UNL     1      40.103 -12.702  -1.213  1.00  0.00     0.098 A 
HETATM    2  C   UNL     1      38.901 -11.802  -1.112  1.00  0.00     0.205 A 
HETATM    3  O   UNL     1      37.973 -12.032  -0.343  1.00  0.00    -0.286 OA
HETATM    4  C   UNL     1      38.945 -10.649  -1.991  1.00  0.00     0.087 A 
HETATM    5  C   UNL     1      40.044 -10.379  -2.771  1.00  0.00     0.145 A 
HETATM    6  N   UNL     1      39.802  -9.188  -3.433  1.00  0.00    -0.216 N 
HETATM    7  N   UNL     1      38.505  -8.798  -3.236  1.00  0.00    -0.170 NA
HETATM    8  C   UNL     1      38.016  -9.645  -2.317  1.00  0.00     0.069 C 
HETATM    9  C   UNL     1      36.633  -9.483  -1.806  1.00  0.00     0.073 C 
HETATM   10  N   UNL     1      41.112 -11.210  -2.838  1.00  0.00    -0.349 N 
HETATM   11  C   UNL     1      41.094 -12.358  -2.065  1.00  0.00     0.111 A 
HETATM   12  H   UNL     1      41.824 -11.160  -3.565  1.00  0.00     0.167 HD
ENDROOT
BRANCH   1  13
HETATM   13  C   UNL     1      40.279 -13.949  -0.408  1.00  0.00     0.261 C 
HETATM   14  N   UNL     1      41.248 -13.869   0.571  1.00  0.00    -0.323 N 
HETATM   15  H   UNL     1      41.708 -12.967   0.694  1.00  0.00     0.169 HD
HETATM   16  O   UNL     1      39.608 -14.943  -0.676  1.00  0.00    -0.267 OA
BRANCH  14  17
HETATM   17  C   UNL     1      41.742 -14.915   1.379  1.00  0.00     0.035 A 
HETATM   18  C   UNL     1      42.977 -15.534   1.189  1.00  0.00     0.030 A 
HETATM   19  C   UNL     1      43.422 -16.522   2.073  1.00  0.00     0.009 A 
HETATM   20  C   UNL     1      42.642 -16.904   3.171  1.00  0.00    -0.058 A 
HETATM   21  C   UNL     1      41.392 -16.304   3.347  1.00  0.00     0.009 A 
HETATM   22  C   UNL     1      40.944 -15.324   2.455  1.00  0.00     0.030 A 
BRANCH  20  23
HETATM   23  C   UNL     1      43.162 -17.920   4.157  1.00  0.00     0.038 C 
BRANCH  23  24
HETATM   24  C   UNL     1      44.288 -18.764   3.552  1.00  0.00     0.004 C 
BRANCH  24  25
HETATM   25  C   UNL     1      43.823 -20.188   3.248  1.00  0.00    -0.004 C 
HETATM   26  C   UNL     1      43.155 -20.272   1.884  1.00  0.00     0.005 C 
ENDBRANCH  24  25
ENDBRANCH  23  24
ENDBRANCH  20  23
ENDBRANCH  14  17
ENDBRANCH   1  13
BRANCH   6  27
HETATM   27  C   UNL     1      40.685  -8.371  -4.195  1.00  0.00     0.060 A 
HETATM   28  C   UNL     1      41.903  -7.919  -3.671  1.00  0.00     0.032 A 
HETATM   29  C   UNL     1      42.742  -7.103  -4.438  1.00  0.00     0.009 A 
HETATM   30  C   UNL     1      42.378  -6.725  -5.734  1.00  0.00    -0.062 A 
HETATM   31  C   UNL     1      43.259  -5.827  -6.550  1.00  0.00     0.048 C 
HETATM   32  C   UNL     1      41.147  -7.151  -6.245  1.00  0.00     0.009 A 
HETATM   33  C   UNL     1      40.302  -7.963  -5.480  1.00  0.00     0.032 A 
ENDBRANCH   6  27
TORSDOF 6
ENDMDL
MODEL 7
REMARK VINA RESULT:      -8.3      8.007     11.439
REMARK  6 active torsions:
REMARK  status: ('A' for Active; 'I' for Inactive)
REMARK    1  A    between atoms: C_2  and  C_3 
REMARK    2  A    between atoms: C_3  and  C_4 
REMARK    3  A    between atoms: C_4  and  C_5 
REMARK    4  A    between atoms: C_8  and  N_9 
REMARK       I    between atoms: N_9  and  C_10 
REMARK    5  A    between atoms: C_10  and  C_11 
REMARK    6  A    between atoms: N_16  and  C_17 
ROOT
HETATM    1  C   UNL     1      40.000 -12.270  -0.160  1.00  0.00     0.098 A 
HETATM    2  C   UNL     1      40.400 -11.556  -1.424  1.00  0.00     0.205 A 
HETATM    3  O   UNL     1      41.560 -11.537  -1.825  1.00  0.00    -0.286 OA
HETATM    4  C   UNL     1      39.302 -10.910  -2.115  1.00  0.00     0.087 A 
HETATM    5  C   UNL     1      38.005 -11.032  -1.680  1.00  0.00     0.145 A 
HETATM    6  N   UNL     1      37.198 -10.362  -2.585  1.00  0.00    -0.216 N 
HETATM    7  N   UNL     1      37.970  -9.664  -3.473  1.00  0.00    -0.170 NA
HETATM    8  C   UNL     1      39.231 -10.050  -3.226  1.00  0.00     0.069 C 
HETATM    9  C   UNL     1      40.350  -9.536  -4.053  1.00  0.00     0.073 C 
HETATM   10  N   UNL     1      37.677 -11.682  -0.538  1.00  0.00    -0.349 N 
HETATM   11  C   UNL     1      38.695 -12.266   0.195  1.00  0.00     0.111 A 
HETATM   12  H   UNL     1      36.774 -11.594  -0.075  1.00  0.00     0.167 HD
ENDROOT
BRANCH   1  13
HETATM   13  C   UNL     1      40.958 -13.005   0.721  1.00  0.00     0.261 C 
HETATM   14  N   UNL     1      40.956 -14.374   0.555  1.00  0.00    -0.323 N 
HETATM   15  H   UNL     1      40.356 -14.751  -0.179  1.00  0.00     0.169 HD
HETATM   16  O   UNL     1      41.636 -12.380   1.533  1.00  0.00    -0.267 OA
BRANCH  14  17
HETATM   17  C   UNL     1      41.631 -15.336   1.337  1.00  0.00     0.035 A 
HETATM   18  C   UNL     1      42.962 -15.708   1.143  1.00  0.00     0.030 A 
HETATM   19  C   UNL     1      43.576 -16.625   2.001  1.00  0.00     0.009 A 
HETATM   20  C   UNL     1      42.874 -17.181   3.077  1.00  0.00    -0.058 A 
HETATM   21  C   UNL     1      41.533 -16.830   3.256  1.00  0.00     0.009 A 
HETATM   22  C   UNL     1      40.916 -15.921   2.388  1.00  0.00     0.030 A 
BRANCH  20  23
HETATM   23  C   UNL     1      43.567 -18.114   4.038  1.00  0.00     0.038 C 
BRANCH  23  24
HETATM   24  C   UNL     1      43.983 -19.419   3.352  1.00  0.00     0.004 C 
BRANCH  24  25
HETATM   25  C   UNL     1      43.949 -20.601   4.320  1.00  0.00    -0.004 C 
HETATM   26  C   UNL     1      43.860 -20.130   5.764  1.00  0.00     0.005 C 
ENDBRANCH  24  25
ENDBRANCH  23  24
ENDBRANCH  20  23
ENDBRANCH  14  17
ENDBRANCH   1  13
BRANCH   6  27
HETATM   27  C   UNL     1      35.779 -10.353  -2.710  1.00  0.00     0.060 A 
HETATM   28  C   UNL     1      34.975  -9.545  -1.897  1.00  0.00     0.032 A 
HETATM   29  C   UNL     1      33.583  -9.571  -2.031  1.00  0.00     0.009 A 
HETATM   30  C   UNL     1      32.974 -10.404  -2.975  1.00  0.00    -0.062 A 
HETATM   31  C   UNL     1      31.481 -10.458  -3.105  1.00  0.00     0.048 C 
HETATM   32  C   UNL     1      33.776 -11.234  -3.766  1.00  0.00     0.009 A 
HETATM   33  C   UNL     1      35.168 -11.215  -3.631  1.00  0.00     0.032 A 
ENDBRANCH   6  27
TORSDOF 6
ENDMDL
MODEL 8
REMARK VINA RESULT:      -8.2      5.373     10.455
REMARK  6 active torsions:
REMARK  status: ('A' for Active; 'I' for Inactive)
REMARK    1  A    between atoms: C_2  and  C_3 
REMARK    2  A    between atoms: C_3  and  C_4 
REMARK    3  A    between atoms: C_4  and  C_5 
REMARK    4  A    between atoms: C_8  and  N_9 
REMARK       I    between atoms: N_9  and  C_10 
REMARK    5  A    between atoms: C_10  and  C_11 
REMARK    6  A    between atoms: N_16  and  C_17 
ROOT
HETATM    1  C   UNL     1      41.022 -13.434   0.993  1.00  0.00     0.098 A 
HETATM    2  C   UNL     1      41.155 -12.797   2.350  1.00  0.00     0.205 A 
HETATM    3  O   UNL     1      40.719 -11.675   2.592  1.00  0.00    -0.286 OA
HETATM    4  C   UNL     1      41.829 -13.623   3.332  1.00  0.00     0.087 A 
HETATM    5  C   UNL     1      42.222 -14.908   3.045  1.00  0.00     0.145 A 
HETATM    6  N   UNL     1      42.768 -15.443   4.199  1.00  0.00    -0.216 N 
HETATM    7  N   UNL     1      42.902 -14.468   5.150  1.00  0.00    -0.170 NA
HETATM    8  C   UNL     1      42.276 -13.393   4.646  1.00  0.00     0.069 C 
HETATM    9  C   UNL     1      42.164 -12.147   5.442  1.00  0.00     0.073 C 
HETATM   10  N   UNL     1      42.088 -15.453   1.813  1.00  0.00    -0.349 N 
HETATM   11  C   UNL     1      41.505 -14.685   0.820  1.00  0.00     0.111 A 
HETATM   12  H   UNL     1      42.569 -16.299   1.512  1.00  0.00     0.167 HD
ENDROOT
BRANCH   1  13
HETATM   13  C   UNL     1      40.366 -12.774  -0.177  1.00  0.00     0.261 C 
HETATM   14  N   UNL     1      38.991 -12.706  -0.102  1.00  0.00    -0.323 N 
HETATM   15  H   UNL     1      38.556 -13.054   0.753  1.00  0.00     0.169 HD
HETATM   16  O   UNL     1      41.056 -12.379  -1.115  1.00  0.00    -0.267 OA
BRANCH  14  17
HETATM   17  C   UNL     1      38.094 -12.284  -1.107  1.00  0.00     0.035 A 
HETATM   18  C   UNL     1      37.584 -13.119  -2.101  1.00  0.00     0.030 A 
HETATM   19  C   UNL     1      36.650 -12.637  -3.024  1.00  0.00     0.009 A 
HETATM   20  C   UNL     1      36.202 -11.312  -2.965  1.00  0.00    -0.058 A 
HETATM   21  C   UNL     1      36.734 -10.467  -1.986  1.00  0.00     0.009 A 
HETATM   22  C   UNL     1      37.676 -10.949  -1.070  1.00  0.00     0.030 A 
BRANCH  20  23
HETATM   23  C   UNL     1      35.143 -10.823  -3.921  1.00  0.00     0.038 C 
BRANCH  23  24
HETATM   24  C   UNL     1      33.905 -11.725  -3.894  1.00  0.00     0.004 C 
BRANCH  24  25
HETATM   25  C   UNL     1      32.684 -10.990  -3.343  1.00  0.00    -0.004 C 
HETATM   26  C   UNL     1      32.676  -9.531  -3.773  1.00  0.00     0.005 C 
ENDBRANCH  24  25
ENDBRANCH  23  24
ENDBRANCH  20  23
ENDBRANCH  14  17
ENDBRANCH   1  13
BRANCH   6  27
HETATM   27  C   UNL     1      43.136 -16.787   4.497  1.00  0.00     0.060 A 
HETATM   28  C   UNL     1      43.074 -17.293   5.801  1.00  0.00     0.032 A 
HETATM   29  C   UNL     1      43.458 -18.612   6.066  1.00  0.00     0.009 A 
HETATM   30  C   UNL     1      43.911 -19.442   5.035  1.00  0.00    -0.062 A 
HETATM   31  C   UNL     1      44.351 -20.848   5.317  1.00  0.00     0.048 C 
HETATM   32  C   UNL     1      44.001 -18.926   3.738  1.00  0.00     0.009 A 
HETATM   33  C   UNL     1      43.623 -17.607   3.470  1.00  0.00     0.032 A 
ENDBRANCH   6  27
TORSDOF 6
ENDMDL
MODEL 9
REMARK VINA RESULT:      -8.1      3.030     10.548
REMARK  6 active torsions:
REMARK  status: ('A' for Active; 'I' for Inactive)
REMARK    1  A    between atoms: C_2  and  C_3 
REMARK    2  A    between atoms: C_3  and  C_4 
REMARK    3  A    between atoms: C_4  and  C_5 
REMARK    4  A    between atoms: C_8  and  N_9 
REMARK       I    between atoms: N_9  and  C_10 
REMARK    5  A    between atoms: C_10  and  C_11 
REMARK    6  A    between atoms: N_16  and  C_17 
ROOT
HETATM    1  C   UNL     1      41.634 -11.771   5.082  1.00  0.00     0.098 A 
HETATM    2  C   UNL     1      40.416 -11.086   4.523  1.00  0.00     0.205 A 
HETATM    3  O   UNL     1      39.971 -11.349   3.409  1.00  0.00    -0.286 OA
HETATM    4  C   UNL     1      39.822 -10.108   5.412  1.00  0.00     0.087 A 
HETATM    5  C   UNL     1      40.298  -9.909   6.686  1.00  0.00     0.145 A 
HETATM    6  N   UNL     1      39.482  -8.969   7.293  1.00  0.00    -0.216 N 
HETATM    7  N   UNL     1      38.621  -8.433   6.373  1.00  0.00    -0.170 NA
HETATM    8  C   UNL     1      38.786  -9.168   5.263  1.00  0.00     0.069 C 
HETATM    9  C   UNL     1      37.958  -8.908   4.060  1.00  0.00     0.073 C 
HETATM   10  N   UNL     1      41.397 -10.542   7.160  1.00  0.00    -0.349 N 
HETATM   11  C   UNL     1      42.040 -11.443   6.329  1.00  0.00     0.111 A 
HETATM   12  H   UNL     1      41.902 -10.252   7.997  1.00  0.00     0.167 HD
ENDROOT
BRANCH   1  13
HETATM   13  C   UNL     1      42.415 -12.813   4.348  1.00  0.00     0.261 C 
HETATM   14  N   UNL     1      41.767 -14.022   4.206  1.00  0.00    -0.323 N 
HETATM   15  H   UNL     1      40.811 -14.079   4.556  1.00  0.00     0.169 HD
HETATM   16  O   UNL     1      43.554 -12.557   3.963  1.00  0.00    -0.267 OA
BRANCH  14  17
HETATM   17  C   UNL     1      42.299 -15.228   3.701  1.00  0.00     0.035 A 
HETATM   18  C   UNL     1      42.598 -15.448   2.356  1.00  0.00     0.030 A 
HETATM   19  C   UNL     1      43.181 -16.651   1.945  1.00  0.00     0.009 A 
HETATM   20  C   UNL     1      43.485 -17.654   2.873  1.00  0.00    -0.058 A 
HETATM   21  C   UNL     1      43.161 -17.445   4.217  1.00  0.00     0.009 A 
HETATM   22  C   UNL     1      42.566 -16.245   4.624  1.00  0.00     0.030 A 
BRANCH  20  23
HETATM   23  C   UNL     1      44.179 -18.918   2.430  1.00  0.00     0.038 C 
BRANCH  23  24
HETATM   24  C   UNL     1      43.300 -20.151   2.661  1.00  0.00     0.004 C 
BRANCH  24  25
HETATM   25  C   UNL     1      43.999 -21.184   3.543  1.00  0.00    -0.004 C 
HETATM   26  C   UNL     1      44.002 -20.754   5.002  1.00  0.00     0.005 C 
ENDBRANCH  24  25
ENDBRANCH  23  24
ENDBRANCH  20  23
ENDBRANCH  14  17
ENDBRANCH   1  13
BRANCH   6  27
HETATM   27  C   UNL     1      39.414  -8.563   8.656  1.00  0.00     0.060 A 
HETATM   28  C   UNL     1      39.495  -9.490   9.703  1.00  0.00     0.032 A 
HETATM   29  C   UNL     1      39.408  -9.063  11.032  1.00  0.00     0.009 A 
HETATM   30  C   UNL     1      39.237  -7.708  11.335  1.00  0.00    -0.062 A 
HETATM   31  C   UNL     1      39.114  -7.247  12.758  1.00  0.00     0.048 C 
HETATM   32  C   UNL     1      39.126  -6.787  10.288  1.00  0.00     0.009 A 
HETATM   33  C   UNL     1      39.207  -7.210   8.958  1.00  0.00     0.032 A 
ENDBRANCH   6  27
TORSDOF 6
ENDMDL
MODEL 10
REMARK VINA RESULT:      -8.1      7.679     11.678
REMARK  6 active torsions:
REMARK  status: ('A' for Active; 'I' for Inactive)
REMARK    1  A    between atoms: C_2  and  C_3 
REMARK    2  A    between atoms: C_3  and  C_4 
REMARK    3  A    between atoms: C_4  and  C_5 
REMARK    4  A    between atoms: C_8  and  N_9 
REMARK       I    between atoms: N_9  and  C_10 
REMARK    5  A    between atoms: C_10  and  C_11 
REMARK    6  A    between atoms: N_16  and  C_17 
ROOT
HETATM    1  C   UNL     1      40.173 -12.674  -0.906  1.00  0.00     0.098 A 
HETATM    2  C   UNL     1      40.597 -11.318  -0.410  1.00  0.00     0.205 A 
HETATM    3  O   UNL     1      41.158 -11.162   0.671  1.00  0.00    -0.286 OA
HETATM    4  C   UNL     1      40.292 -10.230  -1.318  1.00  0.00     0.087 A 
HETATM    5  C   UNL     1      39.744 -10.458  -2.557  1.00  0.00     0.145 A 
HETATM    6  N   UNL     1      39.640  -9.234  -3.197  1.00  0.00    -0.216 N 
HETATM    7  N   UNL     1      39.931  -8.222  -2.323  1.00  0.00    -0.170 NA
HETATM    8  C   UNL     1      40.385  -8.830  -1.216  1.00  0.00     0.069 C 
HETATM    9  C   UNL     1      40.862  -8.030  -0.061  1.00  0.00     0.073 C 
HETATM   10  N   UNL     1      39.374 -11.692  -2.975  1.00  0.00    -0.349 N 
HETATM   11  C   UNL     1      39.586 -12.760  -2.121  1.00  0.00     0.111 A 
HETATM   12  H   UNL     1      38.765 -11.860  -3.775  1.00  0.00     0.167 HD
ENDROOT
BRANCH   1  13
HETATM   13  C   UNL     1      40.380 -13.943  -0.143  1.00  0.00     0.261 C 
HETATM   14  N   UNL     1      41.367 -13.880   0.818  1.00  0.00    -0.323 N 
HETATM   15  H   UNL     1      41.819 -12.977   0.960  1.00  0.00     0.169 HD
HETATM   16  O   UNL     1      39.715 -14.936  -0.428  1.00  0.00    -0.267 OA
BRANCH  14  17
HETATM   17  C   UNL     1      41.890 -14.944   1.584  1.00  0.00     0.035 A 
HETATM   18  C   UNL     1      43.103 -15.578   1.316  1.00  0.00     0.030 A 
HETATM   19  C   UNL     1      43.582 -16.585   2.161  1.00  0.00     0.009 A 
HETATM   20  C   UNL     1      42.860 -16.970   3.297  1.00  0.00    -0.058 A 
HETATM   21  C   UNL     1      41.631 -16.353   3.552  1.00  0.00     0.009 A 
HETATM   22  C   UNL     1      41.149 -15.355   2.698  1.00  0.00     0.030 A 
BRANCH  20  23
HETATM   23  C   UNL     1      43.419 -18.005   4.240  1.00  0.00     0.038 C 
BRANCH  23  24
HETATM   24  C   UNL     1      44.383 -18.955   3.521  1.00  0.00     0.004 C 
BRANCH  24  25
HETATM   25  C   UNL     1      43.713 -20.285   3.179  1.00  0.00    -0.004 C 
HETATM   26  C   UNL     1      43.444 -20.400   1.686  1.00  0.00     0.005 C 
ENDBRANCH  24  25
ENDBRANCH  23  24
ENDBRANCH  20  23
ENDBRANCH  14  17
ENDBRANCH   1  13
BRANCH   6  27
HETATM   27  C   UNL     1      39.332  -8.938  -4.556  1.00  0.00     0.060 A 
HETATM   28  C   UNL     1      40.329  -8.597  -5.478  1.00  0.00     0.032 A 
HETATM   29  C   UNL     1      39.993  -8.293  -6.801  1.00  0.00     0.009 A 
HETATM   30  C   UNL     1      38.660  -8.324  -7.223  1.00  0.00    -0.062 A 
HETATM   31  C   UNL     1      38.291  -7.973  -8.634  1.00  0.00     0.048 C 
HETATM   32  C   UNL     1      37.662  -8.636  -6.294  1.00  0.00     0.009 A 
HETATM   33  C   UNL     1      37.992  -8.934  -4.968  1.00  0.00     0.032 A 
ENDBRANCH   6  27
TORSDOF 6
ENDMDL
