MODEL 1
REMARK VINA RESULT:      -8.4      0.000      0.000
REMARK  2 active torsions:
REMARK  status: ('A' for Active; 'I' for Inactive)
REMARK    1  A    between atoms: C_2  and  N_3 
REMARK    2  A    between atoms: N_3  and  C_4 
ROOT
HETATM    1  C   UNL     1      41.175 -14.942   4.476  1.00  0.00     0.143 A 
HETATM    2  N   UNL     1      41.008 -13.926   5.357  1.00  0.00    -0.223 NA
HETATM    3  C   UNL     1      41.830 -13.811   6.407  1.00  0.00     0.236 A 
HETATM    4  N   UNL     1      42.846 -14.606   6.726  1.00  0.00    -0.234 NA
HETATM    5  C   UNL     1      43.012 -15.600   5.842  1.00  0.00     0.114 A 
HETATM    6  C   UNL     1      42.254 -15.843   4.701  1.00  0.00     0.053 A 
HETATM    7  S   UNL     1      44.259 -16.735   6.079  1.00  0.00    -0.073 SA
HETATM    8  C   UNL     1      43.844 -17.574   4.666  1.00  0.00    -0.008 A 
HETATM    9  C   UNL     1      42.783 -16.998   3.989  1.00  0.00    -0.028 A 
HETATM   10  C   UNL     1      42.287 -17.587   2.696  1.00  0.00     0.041 C 
HETATM   11  C   UNL     1      43.270 -18.602   2.091  1.00  0.00     0.005 C 
HETATM   12  C   UNL     1      43.835 -19.551   3.151  1.00  0.00     0.005 C 
HETATM   13  C   UNL     1      44.614 -18.781   4.225  1.00  0.00     0.047 C 
ENDROOT
BRANCH   1  14
HETATM   14  N   UNL     1      40.294 -15.094   3.392  1.00  0.00    -0.340 N 
HETATM   15  H   UNL     1      39.414 -15.508   3.654  1.00  0.00     0.167 HD
BRANCH  14  16
HETATM   16  C   UNL     1      40.318 -14.642   2.057  1.00  0.00     0.036 A 
HETATM   17  C   UNL     1      39.853 -15.399   0.961  1.00  0.00     0.032 A 
HETATM   18  C   UNL     1      39.873 -14.894  -0.348  1.00  0.00     0.042 A 
HETATM   19  C   UNL     1      40.355 -13.621  -0.537  1.00  0.00     0.105 A 
HETATM   20  C   UNL     1      40.800 -12.863   0.514  1.00  0.00     0.107 A 
HETATM   21  O   UNL     1      40.446 -12.968  -1.725  1.00  0.00    -0.323 OA
HETATM   22  C   UNL     1      40.792 -13.340   1.811  1.00  0.00     0.069 A 
HETATM   23  O   UNL     1      41.228 -11.632   0.125  1.00  0.00    -0.323 OA
HETATM   24  C   UNL     1      40.998 -11.706  -1.298  1.00  0.00     0.352 A 
ENDBRANCH  14  16
ENDBRANCH   1  14
TORSDOF 2
ENDMDL
MODEL 2
REMARK VINA RESULT:      -8.1      1.508      2.105
REMARK  2 active torsions:
REMARK  status: ('A' for Active; 'I' for Inactive)
REMARK    1  A    between atoms: C_2  and  N_3 
REMARK    2  A    between atoms: N_3  and  C_4 
ROOT
HETATM    1  C   UNL     1      39.993 -14.241   2.739  1.00  0.00     0.143 A 
HETATM    2  N   UNL     1      39.312 -13.159   3.188  1.00  0.00    -0.223 NA
HETATM    3  C   UNL     1      39.576 -12.658   4.401  1.00  0.00     0.236 A 
HETATM    4  N   UNL     1      40.466 -13.105   5.281  1.00  0.00    -0.234 NA
HETATM    5  C   UNL     1      41.144 -14.168   4.824  1.00  0.00     0.114 A 
HETATM    6  C   UNL     1      40.996 -14.789   3.588  1.00  0.00     0.053 A 
HETATM    7  S   UNL     1      42.327 -14.896   5.808  1.00  0.00    -0.073 SA
HETATM    8  C   UNL     1      42.691 -16.049   4.620  1.00  0.00    -0.008 A 
HETATM    9  C   UNL     1      41.947 -15.884   3.464  1.00  0.00    -0.028 A 
HETATM   10  C   UNL     1      42.150 -16.798   2.285  1.00  0.00     0.041 C 
HETATM   11  C   UNL     1      43.440 -17.627   2.391  1.00  0.00     0.005 C 
HETATM   12  C   UNL     1      43.634 -18.202   3.797  1.00  0.00     0.005 C 
HETATM   13  C   UNL     1      43.751 -17.085   4.842  1.00  0.00     0.047 C 
ENDROOT
BRANCH   1  14
HETATM   14  N   UNL     1      39.695 -14.796   1.484  1.00  0.00    -0.340 N 
HETATM   15  H   UNL     1      39.143 -15.636   1.545  1.00  0.00     0.167 HD
BRANCH  14  16
HETATM   16  C   UNL     1      39.866 -14.341   0.161  1.00  0.00     0.036 A 
HETATM   17  C   UNL     1      39.374 -15.018  -0.975  1.00  0.00     0.032 A 
HETATM   18  C   UNL     1      39.548 -14.510  -2.271  1.00  0.00     0.042 A 
HETATM   19  C   UNL     1      40.209 -13.313  -2.408  1.00  0.00     0.105 A 
HETATM   20  C   UNL     1      40.684 -12.632  -1.318  1.00  0.00     0.107 A 
HETATM   21  O   UNL     1      40.464 -12.669  -3.577  1.00  0.00    -0.323 OA
HETATM   22  C   UNL     1      40.527 -13.113  -0.033  1.00  0.00     0.069 A 
HETATM   23  O   UNL     1      41.299 -11.467  -1.659  1.00  0.00    -0.323 OA
HETATM   24  C   UNL     1      41.153 -11.497  -3.094  1.00  0.00     0.352 A 
ENDBRANCH  14  16
ENDBRANCH   1  14
TORSDOF 2
ENDMDL
MODEL 3
REMARK VINA RESULT:      -8.0      3.583      6.345
REMARK  2 active torsions:
REMARK  status: ('A' for Active; 'I' for Inactive)
REMARK    1  A    between atoms: C_2  and  N_3 
REMARK    2  A    between atoms: N_3  and  C_4 
ROOT
HETATM    1  C   UNL     1      42.417 -14.906   4.320  1.00  0.00     0.143 A 
HETATM    2  N   UNL     1      42.575 -14.827   5.664  1.00  0.00    -0.223 NA
HETATM    3  C   UNL     1      41.801 -14.003   6.381  1.00  0.00     0.236 A 
HETATM    4  N   UNL     1      40.842 -13.202   5.929  1.00  0.00    -0.234 NA
HETATM    5  C   UNL     1      40.684 -13.296   4.600  1.00  0.00     0.114 A 
HETATM    6  C   UNL     1      41.396 -14.112   3.727  1.00  0.00     0.053 A 
HETATM    7  S   UNL     1      39.507 -12.340   3.825  1.00  0.00    -0.073 SA
HETATM    8  C   UNL     1      39.894 -12.989   2.308  1.00  0.00    -0.008 A 
HETATM    9  C   UNL     1      40.892 -13.947   2.370  1.00  0.00    -0.028 A 
HETATM   10  C   UNL     1      41.352 -14.657   1.126  1.00  0.00     0.041 C 
HETATM   11  C   UNL     1      40.393 -14.461  -0.059  1.00  0.00     0.005 C 
HETATM   12  C   UNL     1      39.928 -13.007  -0.182  1.00  0.00     0.005 C 
HETATM   13  C   UNL     1      39.165 -12.561   1.071  1.00  0.00     0.047 C 
ENDROOT
BRANCH   1  14
HETATM   14  N   UNL     1      43.250 -15.738   3.555  1.00  0.00    -0.340 N 
HETATM   15  H   UNL     1      44.000 -15.239   3.104  1.00  0.00     0.167 HD
BRANCH  14  16
HETATM   16  C   UNL     1      43.356 -17.137   3.417  1.00  0.00     0.036 A 
HETATM   17  C   UNL     1      43.106 -17.832   2.215  1.00  0.00     0.032 A 
HETATM   18  C   UNL     1      43.250 -19.224   2.122  1.00  0.00     0.042 A 
HETATM   19  C   UNL     1      43.657 -19.903   3.244  1.00  0.00     0.105 A 
HETATM   20  C   UNL     1      43.918 -19.248   4.420  1.00  0.00     0.107 A 
HETATM   21  O   UNL     1      43.856 -21.245   3.341  1.00  0.00    -0.323 OA
HETATM   22  C   UNL     1      43.781 -17.879   4.536  1.00  0.00     0.069 A 
HETATM   23  O   UNL     1      44.317 -20.092   5.409  1.00  0.00    -0.323 OA
HETATM   24  C   UNL     1      44.277 -21.358   4.716  1.00  0.00     0.352 A 
ENDBRANCH  14  16
ENDBRANCH   1  14
TORSDOF 2
ENDMDL
MODEL 4
REMARK VINA RESULT:      -7.8      3.930      6.216
REMARK  2 active torsions:
REMARK  status: ('A' for Active; 'I' for Inactive)
REMARK    1  A    between atoms: C_2  and  N_3 
REMARK    2  A    between atoms: N_3  and  C_4 
ROOT
HETATM    1  C   UNL     1      42.976 -14.609   6.746  1.00  0.00     0.143 A 
HETATM    2  N   UNL     1      43.164 -15.052   8.013  1.00  0.00    -0.223 NA
HETATM    3  C   UNL     1      43.498 -16.330   8.233  1.00  0.00     0.236 A 
HETATM    4  N   UNL     1      43.679 -17.282   7.324  1.00  0.00    -0.234 NA
HETATM    5  C   UNL     1      43.505 -16.833   6.073  1.00  0.00     0.114 A 
HETATM    6  C   UNL     1      43.173 -15.538   5.686  1.00  0.00     0.053 A 
HETATM    7  S   UNL     1      43.684 -17.905   4.763  1.00  0.00    -0.073 SA
HETATM    8  C   UNL     1      43.343 -16.683   3.639  1.00  0.00    -0.008 A 
HETATM    9  C   UNL     1      43.116 -15.453   4.233  1.00  0.00    -0.028 A 
HETATM   10  C   UNL     1      42.824 -14.238   3.394  1.00  0.00     0.041 C 
HETATM   11  C   UNL     1      43.152 -14.451   1.908  1.00  0.00     0.005 C 
HETATM   12  C   UNL     1      42.666 -15.814   1.405  1.00  0.00     0.005 C 
HETATM   13  C   UNL     1      43.346 -16.959   2.166  1.00  0.00     0.047 C 
ENDROOT
BRANCH   1  14
HETATM   14  N   UNL     1      42.588 -13.281   6.509  1.00  0.00    -0.340 N 
HETATM   15  H   UNL     1      41.670 -13.205   6.102  1.00  0.00     0.167 HD
BRANCH  14  16
HETATM   16  C   UNL     1      43.140 -12.034   6.866  1.00  0.00     0.036 A 
HETATM   17  C   UNL     1      42.383 -10.854   7.025  1.00  0.00     0.032 A 
HETATM   18  C   UNL     1      42.977  -9.642   7.409  1.00  0.00     0.042 A 
HETATM   19  C   UNL     1      44.331  -9.635   7.640  1.00  0.00     0.105 A 
HETATM   20  C   UNL     1      45.084 -10.772   7.504  1.00  0.00     0.107 A 
HETATM   21  O   UNL     1      45.073  -8.562   8.021  1.00  0.00    -0.323 OA
HETATM   22  C   UNL     1      44.522 -11.976   7.126  1.00  0.00     0.069 A 
HETATM   23  O   UNL     1      46.398 -10.563   7.785  1.00  0.00    -0.323 OA
HETATM   24  C   UNL     1      46.383  -9.158   8.115  1.00  0.00     0.352 A 
ENDBRANCH  14  16
ENDBRANCH   1  14
TORSDOF 2
ENDMDL
MODEL 5
REMARK VINA RESULT:      -7.8      4.088      6.358
REMARK  2 active torsions:
REMARK  status: ('A' for Active; 'I' for Inactive)
REMARK    1  A    between atoms: C_2  and  N_3 
REMARK    2  A    between atoms: N_3  and  C_4 
ROOT
HETATM    1  C   UNL     1      42.617 -13.138   4.372  1.00  0.00     0.143 A 
HETATM    2  N   UNL     1      42.176 -12.111   3.605  1.00  0.00    -0.223 NA
HETATM    3  C   UNL     1      41.953 -12.300   2.299  1.00  0.00     0.236 A 
HETATM    4  N   UNL     1      42.117 -13.424   1.608  1.00  0.00    -0.234 NA
HETATM    5  C   UNL     1      42.540 -14.437   2.377  1.00  0.00     0.114 A 
HETATM    6  C   UNL     1      42.800 -14.402   3.743  1.00  0.00     0.053 A 
HETATM    7  S   UNL     1      42.820 -15.963   1.676  1.00  0.00    -0.073 SA
HETATM    8  C   UNL     1      43.279 -16.630   3.165  1.00  0.00    -0.008 A 
HETATM    9  C   UNL     1      43.204 -15.721   4.207  1.00  0.00    -0.028 A 
HETATM   10  C   UNL     1      43.547 -16.137   5.613  1.00  0.00     0.041 C 
HETATM   11  C   UNL     1      43.624 -17.663   5.779  1.00  0.00     0.005 C 
HETATM   12  C   UNL     1      44.377 -18.325   4.622  1.00  0.00     0.005 C 
HETATM   13  C   UNL     1      43.672 -18.070   3.284  1.00  0.00     0.047 C 
ENDROOT
BRANCH   1  14
HETATM   14  N   UNL     1      42.890 -12.939   5.735  1.00  0.00    -0.340 N 
HETATM   15  H   UNL     1      42.563 -13.692   6.317  1.00  0.00     0.167 HD
BRANCH  14  16
HETATM   16  C   UNL     1      43.663 -11.993   6.437  1.00  0.00     0.036 A 
HETATM   17  C   UNL     1      45.063 -12.081   6.599  1.00  0.00     0.032 A 
HETATM   18  C   UNL     1      45.791 -11.099   7.285  1.00  0.00     0.042 A 
HETATM   19  C   UNL     1      45.101 -10.026   7.794  1.00  0.00     0.105 A 
HETATM   20  C   UNL     1      43.743  -9.912   7.639  1.00  0.00     0.107 A 
HETATM   21  O   UNL     1      45.636  -8.981   8.479  1.00  0.00    -0.323 OA
HETATM   22  C   UNL     1      43.005 -10.868   6.970  1.00  0.00     0.069 A 
HETATM   23  O   UNL     1      43.248  -8.779   8.205  1.00  0.00    -0.323 OA
HETATM   24  C   UNL     1      44.456  -8.192   8.734  1.00  0.00     0.352 A 
ENDBRANCH  14  16
ENDBRANCH   1  14
TORSDOF 2
ENDMDL
MODEL 6
REMARK VINA RESULT:      -7.7      3.910      6.553
REMARK  2 active torsions:
REMARK  status: ('A' for Active; 'I' for Inactive)
REMARK    1  A    between atoms: C_2  and  N_3 
REMARK    2  A    between atoms: N_3  and  C_4 
ROOT
HETATM    1  C   UNL     1      41.866 -13.470   3.964  1.00  0.00     0.143 A 
HETATM    2  N   UNL     1      40.714 -13.668   3.279  1.00  0.00    -0.223 NA
HETATM    3  C   UNL     1      39.633 -12.929   3.560  1.00  0.00     0.236 A 
HETATM    4  N   UNL     1      39.528 -11.972   4.477  1.00  0.00    -0.234 NA
HETATM    5  C   UNL     1      40.676 -11.774   5.141  1.00  0.00     0.114 A 
HETATM    6  C   UNL     1      41.880 -12.446   4.954  1.00  0.00     0.053 A 
HETATM    7  S   UNL     1      40.745 -10.594   6.366  1.00  0.00    -0.073 SA
HETATM    8  C   UNL     1      42.377 -10.926   6.676  1.00  0.00    -0.008 A 
HETATM    9  C   UNL     1      42.894 -11.907   5.848  1.00  0.00    -0.028 A 
HETATM   10  C   UNL     1      44.338 -12.320   5.956  1.00  0.00     0.041 C 
HETATM   11  C   UNL     1      45.178 -11.330   6.779  1.00  0.00     0.005 C 
HETATM   12  C   UNL     1      44.452 -10.889   8.053  1.00  0.00     0.005 C 
HETATM   13  C   UNL     1      43.139 -10.169   7.722  1.00  0.00     0.047 C 
ENDROOT
BRANCH   1  14
HETATM   14  N   UNL     1      42.993 -14.266   3.703  1.00  0.00    -0.340 N 
HETATM   15  H   UNL     1      43.856 -13.748   3.725  1.00  0.00     0.167 HD
BRANCH  14  16
HETATM   16  C   UNL     1      43.186 -15.657   3.577  1.00  0.00     0.036 A 
HETATM   17  C   UNL     1      43.137 -16.352   2.350  1.00  0.00     0.032 A 
HETATM   18  C   UNL     1      43.362 -17.734   2.275  1.00  0.00     0.042 A 
HETATM   19  C   UNL     1      43.646 -18.403   3.441  1.00  0.00     0.105 A 
HETATM   20  C   UNL     1      43.711 -17.747   4.642  1.00  0.00     0.107 A 
HETATM   21  O   UNL     1      43.895 -19.734   3.560  1.00  0.00    -0.323 OA
HETATM   22  C   UNL     1      43.491 -16.387   4.742  1.00  0.00     0.069 A 
HETATM   23  O   UNL     1      44.012 -18.579   5.675  1.00  0.00    -0.323 OA
HETATM   24  C   UNL     1      44.130 -19.839   4.980  1.00  0.00     0.352 A 
ENDBRANCH  14  16
ENDBRANCH   1  14
TORSDOF 2
ENDMDL
MODEL 7
REMARK VINA RESULT:      -7.7      3.745      6.901
REMARK  2 active torsions:
REMARK  status: ('A' for Active; 'I' for Inactive)
REMARK    1  A    between atoms: C_2  and  N_3 
REMARK    2  A    between atoms: N_3  and  C_4 
ROOT
HETATM    1  C   UNL     1      41.634 -13.465   1.780  1.00  0.00     0.143 A 
HETATM    2  N   UNL     1      42.308 -12.786   2.740  1.00  0.00    -0.223 NA
HETATM    3  C   UNL     1      42.489 -11.465   2.622  1.00  0.00     0.236 A 
HETATM    4  N   UNL     1      42.075 -10.680   1.633  1.00  0.00    -0.234 NA
HETATM    5  C   UNL     1      41.398 -11.357   0.695  1.00  0.00     0.114 A 
HETATM    6  C   UNL     1      41.117 -12.720   0.683  1.00  0.00     0.053 A 
HETATM    7  S   UNL     1      40.790 -10.530  -0.664  1.00  0.00    -0.073 SA
HETATM    8  C   UNL     1      40.122 -11.950  -1.303  1.00  0.00    -0.008 A 
HETATM    9  C   UNL     1      40.325 -13.054  -0.493  1.00  0.00    -0.028 A 
HETATM   10  C   UNL     1      39.779 -14.402  -0.881  1.00  0.00     0.041 C 
HETATM   11  C   UNL     1      38.739 -14.318  -2.010  1.00  0.00     0.005 C 
HETATM   12  C   UNL     1      39.183 -13.366  -3.124  1.00  0.00     0.005 C 
HETATM   13  C   UNL     1      39.361 -11.938  -2.594  1.00  0.00     0.047 C 
ENDROOT
BRANCH   1  14
HETATM   14  N   UNL     1      41.473 -14.857   1.876  1.00  0.00    -0.340 N 
HETATM   15  H   UNL     1      40.821 -15.226   1.202  1.00  0.00     0.167 HD
BRANCH  14  16
HETATM   16  C   UNL     1      42.147 -15.860   2.600  1.00  0.00     0.036 A 
HETATM   17  C   UNL     1      43.059 -16.771   2.025  1.00  0.00     0.032 A 
HETATM   18  C   UNL     1      43.725 -17.735   2.795  1.00  0.00     0.042 A 
HETATM   19  C   UNL     1      43.474 -17.765   4.145  1.00  0.00     0.105 A 
HETATM   20  C   UNL     1      42.602 -16.882   4.728  1.00  0.00     0.107 A 
HETATM   21  O   UNL     1      44.027 -18.621   5.044  1.00  0.00    -0.323 OA
HETATM   22  C   UNL     1      41.933 -15.925   3.990  1.00  0.00     0.069 A 
HETATM   23  O   UNL     1      42.496 -17.066   6.072  1.00  0.00    -0.323 OA
HETATM   24  C   UNL     1      43.405 -18.170   6.265  1.00  0.00     0.352 A 
ENDBRANCH  14  16
ENDBRANCH   1  14
TORSDOF 2
ENDMDL
MODEL 8
REMARK VINA RESULT:      -7.5      3.464      6.524
REMARK  2 active torsions:
REMARK  status: ('A' for Active; 'I' for Inactive)
REMARK    1  A    between atoms: C_2  and  N_3 
REMARK    2  A    between atoms: N_3  and  C_4 
ROOT
HETATM    1  C   UNL     1      41.402 -14.018   3.261  1.00  0.00     0.143 A 
HETATM    2  N   UNL     1      41.438 -13.769   4.592  1.00  0.00    -0.223 NA
HETATM    3  C   UNL     1      40.596 -12.877   5.129  1.00  0.00     0.236 A 
HETATM    4  N   UNL     1      39.675 -12.156   4.497  1.00  0.00    -0.234 NA
HETATM    5  C   UNL     1      39.637 -12.419   3.182  1.00  0.00     0.114 A 
HETATM    6  C   UNL     1      40.431 -13.323   2.484  1.00  0.00     0.053 A 
HETATM    7  S   UNL     1      38.528 -11.589   2.193  1.00  0.00    -0.073 SA
HETATM    8  C   UNL     1      39.054 -12.414   0.809  1.00  0.00    -0.008 A 
HETATM    9  C   UNL     1      40.050 -13.338   1.079  1.00  0.00    -0.028 A 
HETATM   10  C   UNL     1      40.626 -14.188  -0.021  1.00  0.00     0.041 C 
HETATM   11  C   UNL     1      39.775 -14.160  -1.300  1.00  0.00     0.005 C 
HETATM   12  C   UNL     1      39.312 -12.742  -1.646  1.00  0.00     0.005 C 
HETATM   13  C   UNL     1      38.436 -12.158  -0.531  1.00  0.00     0.047 C 
ENDROOT
BRANCH   1  14
HETATM   14  N   UNL     1      42.307 -14.923   2.683  1.00  0.00    -0.340 N 
HETATM   15  H   UNL     1      42.746 -14.564   1.851  1.00  0.00     0.167 HD
BRANCH  14  16
HETATM   16  C   UNL     1      42.848 -16.152   3.109  1.00  0.00     0.036 A 
HETATM   17  C   UNL     1      43.510 -16.338   4.341  1.00  0.00     0.032 A 
HETATM   18  C   UNL     1      44.009 -17.590   4.731  1.00  0.00     0.042 A 
HETATM   19  C   UNL     1      43.824 -18.649   3.876  1.00  0.00     0.105 A 
HETATM   20  C   UNL     1      43.173 -18.495   2.679  1.00  0.00     0.107 A 
HETATM   21  O   UNL     1      44.232 -19.928   4.086  1.00  0.00    -0.323 OA
HETATM   22  C   UNL     1      42.676 -17.272   2.273  1.00  0.00     0.069 A 
HETATM   23  O   UNL     1      43.084 -19.659   1.981  1.00  0.00    -0.323 OA
HETATM   24  C   UNL     1      43.757 -20.565   2.882  1.00  0.00     0.352 A 
ENDBRANCH  14  16
ENDBRANCH   1  14
TORSDOF 2
ENDMDL
MODEL 9
REMARK VINA RESULT:      -7.3      4.172      6.823
REMARK  2 active torsions:
REMARK  status: ('A' for Active; 'I' for Inactive)
REMARK    1  A    between atoms: C_2  and  N_3 
REMARK    2  A    between atoms: N_3  and  C_4 
ROOT
HETATM    1  C   UNL     1      42.061 -12.660   5.934  1.00  0.00     0.143 A 
HETATM    2  N   UNL     1      40.789 -12.768   5.479  1.00  0.00    -0.223 NA
HETATM    3  C   UNL     1      39.931 -11.753   5.644  1.00  0.00     0.236 A 
HETATM    4  N   UNL     1      40.169 -10.585   6.230  1.00  0.00    -0.234 NA
HETATM    5  C   UNL     1      41.434 -10.481   6.665  1.00  0.00     0.114 A 
HETATM    6  C   UNL     1      42.439 -11.436   6.555  1.00  0.00     0.053 A 
HETATM    7  S   UNL     1      41.936  -9.059   7.454  1.00  0.00    -0.073 SA
HETATM    8  C   UNL     1      43.508  -9.658   7.661  1.00  0.00    -0.008 A 
HETATM    9  C   UNL     1      43.679 -10.920   7.118  1.00  0.00    -0.028 A 
HETATM   10  C   UNL     1      45.016 -11.607   7.180  1.00  0.00     0.041 C 
HETATM   11  C   UNL     1      46.158 -10.650   7.559  1.00  0.00     0.005 C 
HETATM   12  C   UNL     1      45.765  -9.722   8.712  1.00  0.00     0.005 C 
HETATM   13  C   UNL     1      44.570  -8.840   8.330  1.00  0.00     0.047 C 
ENDROOT
BRANCH   1  14
HETATM   14  N   UNL     1      42.956 -13.734   5.800  1.00  0.00    -0.340 N 
HETATM   15  H   UNL     1      43.570 -13.836   6.591  1.00  0.00     0.167 HD
BRANCH  14  16
HETATM   16  C   UNL     1      43.067 -14.790   4.873  1.00  0.00     0.036 A 
HETATM   17  C   UNL     1      42.858 -14.646   3.485  1.00  0.00     0.032 A 
HETATM   18  C   UNL     1      43.006 -15.723   2.600  1.00  0.00     0.042 A 
HETATM   19  C   UNL     1      43.376 -16.938   3.123  1.00  0.00     0.105 A 
HETATM   20  C   UNL     1      43.597 -17.099   4.467  1.00  0.00     0.107 A 
HETATM   21  O   UNL     1      43.572 -18.086   2.423  1.00  0.00    -0.323 OA
HETATM   22  C   UNL     1      43.455 -16.054   5.358  1.00  0.00     0.069 A 
HETATM   23  O   UNL     1      43.962 -18.370   4.786  1.00  0.00    -0.323 OA
HETATM   24  C   UNL     1      43.946 -18.990   3.483  1.00  0.00     0.352 A 
ENDBRANCH  14  16
ENDBRANCH   1  14
TORSDOF 2
ENDMDL
MODEL 10
REMARK VINA RESULT:      -7.2      4.240      6.845
REMARK  2 active torsions:
REMARK  status: ('A' for Active; 'I' for Inactive)
REMARK    1  A    between atoms: C_2  and  N_3 
REMARK    2  A    between atoms: N_3  and  C_4 
ROOT
HETATM    1  C   UNL     1      43.310 -13.840   6.319  1.00  0.00     0.143 A 
HETATM    2  N   UNL     1      43.520 -14.377   7.545  1.00  0.00    -0.223 NA
HETATM    3  C   UNL     1      42.863 -15.485   7.911  1.00  0.00     0.236 A 
HETATM    4  N   UNL     1      41.978 -16.170   7.195  1.00  0.00    -0.234 NA
HETATM    5  C   UNL     1      41.786 -15.640   5.979  1.00  0.00     0.114 A 
HETATM    6  C   UNL     1      42.401 -14.509   5.451  1.00  0.00     0.053 A 
HETATM    7  S   UNL     1      40.680 -16.369   4.910  1.00  0.00    -0.073 SA
HETATM    8  C   UNL     1      40.993 -15.218   3.706  1.00  0.00    -0.008 A 
HETATM    9  C   UNL     1      41.949 -14.290   4.084  1.00  0.00    -0.028 A 
HETATM   10  C   UNL     1      42.380 -13.203   3.136  1.00  0.00     0.041 C 
HETATM   11  C   UNL     1      41.931 -13.465   1.690  1.00  0.00     0.005 C 
HETATM   12  C   UNL     1      40.481 -13.954   1.622  1.00  0.00     0.005 C 
HETATM   13  C   UNL     1      40.308 -15.278   2.375  1.00  0.00     0.047 C 
ENDROOT
BRANCH   1  14
HETATM   14  N   UNL     1      43.965 -12.657   5.940  1.00  0.00    -0.340 N 
HETATM   15  H   UNL     1      44.044 -12.552   4.942  1.00  0.00     0.167 HD
BRANCH  14  16
HETATM   16  C   UNL     1      44.388 -11.517   6.652  1.00  0.00     0.036 A 
HETATM   17  C   UNL     1      45.739 -11.209   6.918  1.00  0.00     0.032 A 
HETATM   18  C   UNL     1      46.110 -10.046   7.609  1.00  0.00     0.042 A 
HETATM   19  C   UNL     1      45.111  -9.196   8.017  1.00  0.00     0.105 A 
HETATM   20  C   UNL     1      43.793  -9.467   7.759  1.00  0.00     0.107 A 
HETATM   21  O   UNL     1      45.280  -8.027   8.690  1.00  0.00    -0.323 OA
HETATM   22  C   UNL     1      43.403 -10.607   7.083  1.00  0.00     0.069 A 
HETATM   23  O   UNL     1      42.959  -8.503   8.234  1.00  0.00    -0.323 OA
HETATM   24  C   UNL     1      43.911  -7.591   8.822  1.00  0.00     0.352 A 
ENDBRANCH  14  16
ENDBRANCH   1  14
TORSDOF 2
ENDMDL
