MODEL 1
REMARK VINA RESULT:      -8.2      0.000      0.000
REMARK  9 active torsions:
REMARK  status: ('A' for Active; 'I' for Inactive)
REMARK    1  A    between atoms: O_2  and  C_3 
REMARK    2  A    between atoms: C_5  and  O_6 
REMARK    3  A    between atoms: C_9  and  C_10 
REMARK       I    between atoms: C_10  and  N_11 
REMARK    4  A    between atoms: N_11  and  C_12 
REMARK    5  A    between atoms: C_12  and  N_13 
REMARK    6  A    between atoms: N_13  and  C_14 
REMARK    7  A    between atoms: C_17  and  N_18 
REMARK    8  A    between atoms: N_21  and  C_23 
REMARK    9  A    between atoms: C_23  and  C_24 
ROOT
HETATM    1  C   UNL     1      39.192 -11.522   4.146  1.00  0.00     0.034 A 
HETATM    2  C   UNL     1      39.660 -11.346   5.447  1.00  0.00     0.032 A 
HETATM    3  C   UNL     1      40.238 -12.408   6.167  1.00  0.00     0.031 A 
HETATM    4  C   UNL     1      40.358 -13.690   5.625  1.00  0.00     0.030 A 
HETATM    5  C   UNL     1      39.821 -13.862   4.336  1.00  0.00     0.031 A 
HETATM    6  C   UNL     1      39.249 -12.803   3.607  1.00  0.00     0.032 A 
ENDROOT
BRANCH   1   7
HETATM    7  N   UNL     1      38.579 -10.496   3.384  1.00  0.00    -0.333 N 
HETATM    8  H   UNL     1      38.051  -9.814   3.915  1.00  0.00     0.168 HD
BRANCH   7   9
HETATM    9  C   UNL     1      38.443 -10.408   2.027  1.00  0.00     0.179 C 
HETATM   10  S   UNL     1      37.070 -10.766   1.128  1.00  0.00    -0.040 SA
BRANCH   9  11
HETATM   11  N   UNL     1      39.545  -9.981   1.294  1.00  0.00    -0.299 N 
HETATM   12  C   UNL     1      40.860 -10.309   0.948  1.00  0.00     0.258 C 
HETATM   13  O   UNL     1      41.415  -9.640   0.075  1.00  0.00    -0.267 OA
HETATM   14  H   UNL     1      39.301  -9.143   0.777  1.00  0.00     0.171 HD
BRANCH  12  15
HETATM   15  C   UNL     1      41.653 -11.341   1.636  1.00  0.00     0.037 A 
HETATM   16  C   UNL     1      41.686 -12.680   1.247  1.00  0.00     0.054 A 
HETATM   17  C   UNL     1      42.498 -13.589   1.939  1.00  0.00     0.071 A 
HETATM   18  C   UNL     1      43.348 -13.134   2.953  1.00  0.00     0.073 A 
HETATM   19  C   UNL     1      43.376 -11.779   3.279  1.00  0.00     0.071 A 
HETATM   20  C   UNL     1      42.510 -10.892   2.648  1.00  0.00     0.054 A 
BRANCH  17  21
HETATM   21  O   UNL     1      42.370 -14.892   1.534  1.00  0.00    -0.356 OA
HETATM   22  C   UNL     1      41.057 -15.331   1.199  1.00  0.00     0.210 C 
ENDBRANCH  17  21
BRANCH  19  23
HETATM   23  O   UNL     1      44.192 -11.246   4.240  1.00  0.00    -0.356 OA
HETATM   24  C   UNL     1      43.718 -11.446   5.572  1.00  0.00     0.210 C 
ENDBRANCH  19  23
ENDBRANCH  12  15
ENDBRANCH   9  11
ENDBRANCH   7   9
ENDBRANCH   1   7
BRANCH   4  25
HETATM   25  N   UNL     1      40.913 -14.766   6.317  1.00  0.00    -0.378 N 
HETATM   26  C   UNL     1      42.180 -14.631   7.064  1.00  0.00     0.150 C 
HETATM   27  C   UNL     1      43.387 -15.101   6.222  1.00  0.00     0.255 C 
HETATM   28  N   UNL     1      43.152 -16.519   5.702  1.00  0.00    -0.064 N 
HETATM   29  H   UNL     1      43.043 -17.128   6.527  1.00  0.00     0.280 HD
HETATM   30  C   UNL     1      41.842 -16.592   4.914  1.00  0.00     0.255 C 
HETATM   31  C   UNL     1      40.665 -16.127   5.798  1.00  0.00     0.150 C 
BRANCH  28  32
HETATM   32  C   UNL     1      44.339 -17.057   4.941  1.00  0.00     0.276 C 
BRANCH  32  33
HETATM   33  C   UNL     1      44.122 -18.424   4.356  1.00  0.00     0.006 A 
HETATM   34  C   UNL     1      43.860 -18.570   2.990  1.00  0.00     0.124 A 
HETATM   35  F   UNL     1      43.843 -17.475   2.213  1.00  0.00    -0.206 F 
HETATM   36  C   UNL     1      43.666 -19.819   2.412  1.00  0.00     0.043 A 
HETATM   37  C   UNL     1      43.722 -20.956   3.213  1.00  0.00     0.003 A 
HETATM   38  C   UNL     1      43.965 -20.834   4.582  1.00  0.00     0.001 A 
HETATM   39  C   UNL     1      44.160 -19.574   5.156  1.00  0.00     0.012 A 
ENDBRANCH  32  33
ENDBRANCH  28  32
ENDBRANCH   4  25
TORSDOF 9
ENDMDL
MODEL 2
REMARK VINA RESULT:      -8.1      5.630      9.093
REMARK  9 active torsions:
REMARK  status: ('A' for Active; 'I' for Inactive)
REMARK    1  A    between atoms: O_2  and  C_3 
REMARK    2  A    between atoms: C_5  and  O_6 
REMARK    3  A    between atoms: C_9  and  C_10 
REMARK       I    between atoms: C_10  and  N_11 
REMARK    4  A    between atoms: N_11  and  C_12 
REMARK    5  A    between atoms: C_12  and  N_13 
REMARK    6  A    between atoms: N_13  and  C_14 
REMARK    7  A    between atoms: C_17  and  N_18 
REMARK    8  A    between atoms: N_21  and  C_23 
REMARK    9  A    between atoms: C_23  and  C_24 
ROOT
HETATM    1  C   UNL     1      43.332 -12.353   5.172  1.00  0.00     0.034 A 
HETATM    2  C   UNL     1      44.395 -12.509   6.060  1.00  0.00     0.032 A 
HETATM    3  C   UNL     1      44.623 -11.586   7.097  1.00  0.00     0.031 A 
HETATM    4  C   UNL     1      43.812 -10.463   7.281  1.00  0.00     0.030 A 
HETATM    5  C   UNL     1      42.785 -10.289   6.335  1.00  0.00     0.031 A 
HETATM    6  C   UNL     1      42.545 -11.212   5.301  1.00  0.00     0.032 A 
ENDROOT
BRANCH   1   7
HETATM    7  N   UNL     1      43.068 -13.236   4.095  1.00  0.00    -0.333 N 
HETATM    8  H   UNL     1      43.731 -13.993   3.979  1.00  0.00     0.168 HD
BRANCH   7   9
HETATM    9  C   UNL     1      42.159 -13.100   3.084  1.00  0.00     0.179 C 
HETATM   10  S   UNL     1      41.967 -11.771   2.075  1.00  0.00    -0.040 SA
BRANCH   9  11
HETATM   11  N   UNL     1      41.290 -14.160   2.851  1.00  0.00    -0.299 N 
HETATM   12  C   UNL     1      41.037 -15.497   3.172  1.00  0.00     0.258 C 
HETATM   13  O   UNL     1      39.969 -15.991   2.806  1.00  0.00    -0.267 OA
HETATM   14  H   UNL     1      40.522 -13.844   2.266  1.00  0.00     0.171 HD
BRANCH  12  15
HETATM   15  C   UNL     1      42.013 -16.377   3.836  1.00  0.00     0.037 A 
HETATM   16  C   UNL     1      42.130 -16.502   5.220  1.00  0.00     0.054 A 
HETATM   17  C   UNL     1      43.066 -17.391   5.765  1.00  0.00     0.071 A 
HETATM   18  C   UNL     1      43.810 -18.224   4.923  1.00  0.00     0.073 A 
HETATM   19  C   UNL     1      43.626 -18.159   3.543  1.00  0.00     0.071 A 
HETATM   20  C   UNL     1      42.758 -17.218   2.999  1.00  0.00     0.054 A 
BRANCH  17  21
HETATM   21  O   UNL     1      43.161 -17.352   7.132  1.00  0.00    -0.356 OA
HETATM   22  C   UNL     1      43.142 -16.062   7.737  1.00  0.00     0.210 C 
ENDBRANCH  17  21
BRANCH  19  23
HETATM   23  O   UNL     1      44.294 -18.952   2.650  1.00  0.00    -0.356 OA
HETATM   24  C   UNL     1      43.556 -20.103   2.238  1.00  0.00     0.210 C 
ENDBRANCH  19  23
ENDBRANCH  12  15
ENDBRANCH   9  11
ENDBRANCH   7   9
ENDBRANCH   1   7
BRANCH   4  25
HETATM   25  N   UNL     1      44.021  -9.524   8.290  1.00  0.00    -0.378 N 
HETATM   26  C   UNL     1      45.027  -9.741   9.349  1.00  0.00     0.150 C 
HETATM   27  C   UNL     1      44.388 -10.338  10.623  1.00  0.00     0.255 C 
HETATM   28  N   UNL     1      43.216  -9.472  11.085  1.00  0.00    -0.064 N 
HETATM   29  H   UNL     1      43.596  -8.535  11.291  1.00  0.00     0.280 HD
HETATM   30  C   UNL     1      42.194  -9.305   9.959  1.00  0.00     0.255 C 
HETATM   31  C   UNL     1      42.873  -8.694   8.713  1.00  0.00     0.150 C 
BRANCH  28  32
HETATM   32  C   UNL     1      42.609  -9.966  12.376  1.00  0.00     0.276 C 
BRANCH  32  33
HETATM   33  C   UNL     1      42.387  -8.889  13.399  1.00  0.00     0.006 A 
HETATM   34  C   UNL     1      41.247  -8.915  14.211  1.00  0.00     0.124 A 
HETATM   35  F   UNL     1      40.384  -9.935  14.081  1.00  0.00    -0.206 F 
HETATM   36  C   UNL     1      41.014  -7.942  15.176  1.00  0.00     0.043 A 
HETATM   37  C   UNL     1      41.931  -6.906  15.333  1.00  0.00     0.003 A 
HETATM   38  C   UNL     1      43.066  -6.849  14.523  1.00  0.00     0.001 A 
HETATM   39  C   UNL     1      43.294  -7.833  13.556  1.00  0.00     0.012 A 
ENDBRANCH  32  33
ENDBRANCH  28  32
ENDBRANCH   4  25
TORSDOF 9
ENDMDL
MODEL 3
REMARK VINA RESULT:      -8.1      2.218      3.448
REMARK  9 active torsions:
REMARK  status: ('A' for Active; 'I' for Inactive)
REMARK    1  A    between atoms: O_2  and  C_3 
REMARK    2  A    between atoms: C_5  and  O_6 
REMARK    3  A    between atoms: C_9  and  C_10 
REMARK       I    between atoms: C_10  and  N_11 
REMARK    4  A    between atoms: N_11  and  C_12 
REMARK    5  A    between atoms: C_12  and  N_13 
REMARK    6  A    between atoms: N_13  and  C_14 
REMARK    7  A    between atoms: C_17  and  N_18 
REMARK    8  A    between atoms: N_21  and  C_23 
REMARK    9  A    between atoms: C_23  and  C_24 
ROOT
HETATM    1  C   UNL     1      38.615 -10.970   4.382  1.00  0.00     0.034 A 
HETATM    2  C   UNL     1      38.493 -11.023   2.995  1.00  0.00     0.032 A 
HETATM    3  C   UNL     1      38.960 -12.128   2.260  1.00  0.00     0.031 A 
HETATM    4  C   UNL     1      39.582 -13.217   2.876  1.00  0.00     0.030 A 
HETATM    5  C   UNL     1      39.755 -13.115   4.268  1.00  0.00     0.031 A 
HETATM    6  C   UNL     1      39.283 -12.017   5.011  1.00  0.00     0.032 A 
ENDROOT
BRANCH   1   7
HETATM    7  N   UNL     1      38.187  -9.874   5.170  1.00  0.00    -0.333 N 
HETATM    8  H   UNL     1      37.432 -10.069   5.817  1.00  0.00     0.168 HD
BRANCH   7   9
HETATM    9  C   UNL     1      38.519  -8.553   5.047  1.00  0.00     0.179 C 
HETATM   10  S   UNL     1      37.667  -7.377   4.203  1.00  0.00    -0.040 SA
BRANCH   9  11
HETATM   11  N   UNL     1      39.679  -8.118   5.676  1.00  0.00    -0.299 N 
HETATM   12  C   UNL     1      41.065  -8.304   5.733  1.00  0.00     0.258 C 
HETATM   13  O   UNL     1      41.731  -7.504   6.390  1.00  0.00    -0.267 OA
HETATM   14  H   UNL     1      39.457  -7.346   6.297  1.00  0.00     0.171 HD
BRANCH  12  15
HETATM   15  C   UNL     1      41.760  -9.455   5.134  1.00  0.00     0.037 A 
HETATM   16  C   UNL     1      41.824  -9.694   3.762  1.00  0.00     0.054 A 
HETATM   17  C   UNL     1      42.539 -10.798   3.277  1.00  0.00     0.071 A 
HETATM   18  C   UNL     1      43.269 -11.599   4.161  1.00  0.00     0.073 A 
HETATM   19  C   UNL     1      43.274 -11.303   5.524  1.00  0.00     0.071 A 
HETATM   20  C   UNL     1      42.497 -10.258   6.012  1.00  0.00     0.054 A 
BRANCH  17  21
HETATM   21  O   UNL     1      42.445 -10.989   1.923  1.00  0.00    -0.356 OA
HETATM   22  C   UNL     1      41.640 -10.061   1.201  1.00  0.00     0.210 C 
ENDBRANCH  17  21
BRANCH  19  23
HETATM   23  O   UNL     1      43.978 -12.019   6.453  1.00  0.00    -0.356 OA
HETATM   24  C   UNL     1      44.078 -11.372   7.722  1.00  0.00     0.210 C 
ENDBRANCH  19  23
ENDBRANCH  12  15
ENDBRANCH   9  11
ENDBRANCH   7   9
ENDBRANCH   1   7
BRANCH   4  25
HETATM   25  N   UNL     1      40.068 -14.320   2.174  1.00  0.00    -0.378 N 
HETATM   26  C   UNL     1      39.860 -15.697   2.664  1.00  0.00     0.150 C 
HETATM   27  C   UNL     1      41.081 -16.205   3.462  1.00  0.00     0.255 C 
HETATM   28  N   UNL     1      42.357 -16.055   2.634  1.00  0.00    -0.064 N 
HETATM   29  H   UNL     1      42.234 -16.625   1.784  1.00  0.00     0.280 HD
HETATM   30  C   UNL     1      42.535 -14.604   2.179  1.00  0.00     0.255 C 
HETATM   31  C   UNL     1      41.299 -14.145   1.375  1.00  0.00     0.150 C 
BRANCH  28  32
HETATM   32  C   UNL     1      43.569 -16.614   3.338  1.00  0.00     0.276 C 
BRANCH  32  33
HETATM   33  C   UNL     1      43.640 -18.114   3.337  1.00  0.00     0.006 A 
HETATM   34  C   UNL     1      44.046 -18.800   4.487  1.00  0.00     0.124 A 
HETATM   35  F   UNL     1      44.334 -18.095   5.593  1.00  0.00    -0.206 F 
HETATM   36  C   UNL     1      44.112 -20.187   4.526  1.00  0.00     0.043 A 
HETATM   37  C   UNL     1      43.777 -20.918   3.389  1.00  0.00     0.003 A 
HETATM   38  C   UNL     1      43.385 -20.255   2.225  1.00  0.00     0.001 A 
HETATM   39  C   UNL     1      43.320 -18.859   2.194  1.00  0.00     0.012 A 
ENDBRANCH  32  33
ENDBRANCH  28  32
ENDBRANCH   4  25
TORSDOF 9
ENDMDL
MODEL 4
REMARK VINA RESULT:      -8.0      2.452      3.887
REMARK  9 active torsions:
REMARK  status: ('A' for Active; 'I' for Inactive)
REMARK    1  A    between atoms: O_2  and  C_3 
REMARK    2  A    between atoms: C_5  and  O_6 
REMARK    3  A    between atoms: C_9  and  C_10 
REMARK       I    between atoms: C_10  and  N_11 
REMARK    4  A    between atoms: N_11  and  C_12 
REMARK    5  A    between atoms: C_12  and  N_13 
REMARK    6  A    between atoms: N_13  and  C_14 
REMARK    7  A    between atoms: C_17  and  N_18 
REMARK    8  A    between atoms: N_21  and  C_23 
REMARK    9  A    between atoms: C_23  and  C_24 
ROOT
HETATM    1  C   UNL     1      39.556 -10.127   2.357  1.00  0.00     0.034 A 
HETATM    2  C   UNL     1      38.565 -11.086   2.562  1.00  0.00     0.032 A 
HETATM    3  C   UNL     1      38.797 -12.447   2.296  1.00  0.00     0.031 A 
HETATM    4  C   UNL     1      40.020 -12.906   1.801  1.00  0.00     0.030 A 
HETATM    5  C   UNL     1      40.985 -11.917   1.539  1.00  0.00     0.031 A 
HETATM    6  C   UNL     1      40.763 -10.554   1.810  1.00  0.00     0.032 A 
ENDROOT
BRANCH   1   7
HETATM    7  N   UNL     1      39.371  -8.741   2.583  1.00  0.00    -0.333 N 
HETATM    8  H   UNL     1      39.051  -8.207   1.784  1.00  0.00     0.168 HD
BRANCH   7   9
HETATM    9  C   UNL     1      39.743  -7.996   3.667  1.00  0.00     0.179 C 
HETATM   10  S   UNL     1      40.796  -6.688   3.676  1.00  0.00    -0.040 SA
BRANCH   9  11
HETATM   11  N   UNL     1      39.207  -8.343   4.902  1.00  0.00    -0.299 N 
HETATM   12  C   UNL     1      39.326  -9.243   5.966  1.00  0.00     0.258 C 
HETATM   13  O   UNL     1      38.670  -9.027   6.986  1.00  0.00    -0.267 OA
HETATM   14  H   UNL     1      38.491  -7.671   5.160  1.00  0.00     0.171 HD
BRANCH  12  15
HETATM   15  C   UNL     1      40.112 -10.486   5.901  1.00  0.00     0.037 A 
HETATM   16  C   UNL     1      39.571 -11.757   6.092  1.00  0.00     0.054 A 
HETATM   17  C   UNL     1      40.388 -12.890   5.976  1.00  0.00     0.071 A 
HETATM   18  C   UNL     1      41.720 -12.751   5.573  1.00  0.00     0.073 A 
HETATM   19  C   UNL     1      42.233 -11.484   5.297  1.00  0.00     0.071 A 
HETATM   20  C   UNL     1      41.444 -10.355   5.492  1.00  0.00     0.054 A 
BRANCH  17  21
HETATM   21  O   UNL     1      39.770 -14.073   6.286  1.00  0.00    -0.356 OA
HETATM   22  C   UNL     1      40.600 -15.115   6.792  1.00  0.00     0.210 C 
ENDBRANCH  17  21
BRANCH  19  23
HETATM   23  O   UNL     1      43.516 -11.261   4.876  1.00  0.00    -0.356 OA
HETATM   24  C   UNL     1      43.830 -11.888   3.632  1.00  0.00     0.210 C 
ENDBRANCH  19  23
ENDBRANCH  12  15
ENDBRANCH   9  11
ENDBRANCH   7   9
ENDBRANCH   1   7
BRANCH   4  25
HETATM   25  N   UNL     1      40.276 -14.247   1.515  1.00  0.00    -0.378 N 
HETATM   26  C   UNL     1      39.821 -15.327   2.413  1.00  0.00     0.150 C 
HETATM   27  C   UNL     1      40.938 -15.763   3.386  1.00  0.00     0.255 C 
HETATM   28  N   UNL     1      42.204 -16.129   2.612  1.00  0.00    -0.064 N 
HETATM   29  H   UNL     1      41.961 -16.912   1.986  1.00  0.00     0.280 HD
HETATM   30  C   UNL     1      42.645 -14.964   1.722  1.00  0.00     0.255 C 
HETATM   31  C   UNL     1      41.504 -14.572   0.758  1.00  0.00     0.150 C 
BRANCH  28  32
HETATM   32  C   UNL     1      43.302 -16.642   3.512  1.00  0.00     0.276 C 
BRANCH  32  33
HETATM   33  C   UNL     1      43.499 -18.130   3.450  1.00  0.00     0.006 A 
HETATM   34  C   UNL     1      44.005 -18.819   4.557  1.00  0.00     0.124 A 
HETATM   35  F   UNL     1      44.274 -18.132   5.679  1.00  0.00    -0.206 F 
HETATM   36  C   UNL     1      44.190 -20.196   4.540  1.00  0.00     0.043 A 
HETATM   37  C   UNL     1      43.874 -20.911   3.387  1.00  0.00     0.003 A 
HETATM   38  C   UNL     1      43.384 -20.243   2.264  1.00  0.00     0.001 A 
HETATM   39  C   UNL     1      43.200 -18.857   2.290  1.00  0.00     0.012 A 
ENDBRANCH  32  33
ENDBRANCH  28  32
ENDBRANCH   4  25
TORSDOF 9
ENDMDL
MODEL 5
REMARK VINA RESULT:      -8.0      1.891      3.108
REMARK  9 active torsions:
REMARK  status: ('A' for Active; 'I' for Inactive)
REMARK    1  A    between atoms: O_2  and  C_3 
REMARK    2  A    between atoms: C_5  and  O_6 
REMARK    3  A    between atoms: C_9  and  C_10 
REMARK       I    between atoms: C_10  and  N_11 
REMARK    4  A    between atoms: N_11  and  C_12 
REMARK    5  A    between atoms: C_12  and  N_13 
REMARK    6  A    between atoms: N_13  and  C_14 
REMARK    7  A    between atoms: C_17  and  N_18 
REMARK    8  A    between atoms: N_21  and  C_23 
REMARK    9  A    between atoms: C_23  and  C_24 
ROOT
HETATM    1  C   UNL     1      40.664 -11.132   4.697  1.00  0.00     0.034 A 
HETATM    2  C   UNL     1      41.927 -11.366   5.237  1.00  0.00     0.032 A 
HETATM    3  C   UNL     1      42.250 -12.597   5.837  1.00  0.00     0.031 A 
HETATM    4  C   UNL     1      41.323 -13.637   5.938  1.00  0.00     0.030 A 
HETATM    5  C   UNL     1      40.035 -13.358   5.446  1.00  0.00     0.031 A 
HETATM    6  C   UNL     1      39.707 -12.133   4.837  1.00  0.00     0.032 A 
ENDROOT
BRANCH   1   7
HETATM    7  N   UNL     1      40.275  -9.906   4.104  1.00  0.00    -0.333 N 
HETATM    8  H   UNL     1      40.153  -9.130   4.743  1.00  0.00     0.168 HD
BRANCH   7   9
HETATM    9  C   UNL     1      39.860  -9.672   2.822  1.00  0.00     0.179 C 
HETATM   10  S   UNL     1      38.279  -9.438   2.304  1.00  0.00    -0.040 SA
BRANCH   9  11
HETATM   11  N   UNL     1      40.831  -9.620   1.829  1.00  0.00    -0.299 N 
HETATM   12  C   UNL     1      41.320 -10.285   0.700  1.00  0.00     0.258 C 
HETATM   13  O   UNL     1      42.168  -9.714   0.011  1.00  0.00    -0.267 OA
HETATM   14  H   UNL     1      41.360  -8.758   1.920  1.00  0.00     0.171 HD
BRANCH  12  15
HETATM   15  C   UNL     1      40.956 -11.666   0.343  1.00  0.00     0.037 A 
HETATM   16  C   UNL     1      41.084 -12.751   1.209  1.00  0.00     0.054 A 
HETATM   17  C   UNL     1      40.679 -14.028   0.797  1.00  0.00     0.071 A 
HETATM   18  C   UNL     1      40.055 -14.194  -0.444  1.00  0.00     0.073 A 
HETATM   19  C   UNL     1      39.848 -13.090  -1.271  1.00  0.00     0.071 A 
HETATM   20  C   UNL     1      40.326 -11.839  -0.896  1.00  0.00     0.054 A 
BRANCH  17  21
HETATM   21  O   UNL     1      40.948 -15.029   1.692  1.00  0.00    -0.356 OA
HETATM   22  C   UNL     1      39.828 -15.630   2.335  1.00  0.00     0.210 C 
ENDBRANCH  17  21
BRANCH  19  23
HETATM   23  O   UNL     1      39.227 -13.160  -2.488  1.00  0.00    -0.356 OA
HETATM   24  C   UNL     1      38.493 -14.368  -2.691  1.00  0.00     0.210 C 
ENDBRANCH  19  23
ENDBRANCH  12  15
ENDBRANCH   9  11
ENDBRANCH   7   9
ENDBRANCH   1   7
BRANCH   4  25
HETATM   25  N   UNL     1      41.608 -14.863   6.539  1.00  0.00    -0.378 N 
HETATM   26  C   UNL     1      42.806 -15.047   7.383  1.00  0.00     0.150 C 
HETATM   27  C   UNL     1      43.978 -15.652   6.578  1.00  0.00     0.255 C 
HETATM   28  N   UNL     1      43.537 -16.940   5.884  1.00  0.00    -0.064 N 
HETATM   29  H   UNL     1      43.245 -17.597   6.624  1.00  0.00     0.280 HD
HETATM   30  C   UNL     1      42.311 -16.683   5.003  1.00  0.00     0.255 C 
HETATM   31  C   UNL     1      41.164 -16.093   5.851  1.00  0.00     0.150 C 
BRANCH  28  32
HETATM   32  C   UNL     1      44.669 -17.616   5.151  1.00  0.00     0.276 C 
BRANCH  32  33
HETATM   33  C   UNL     1      44.223 -18.637   4.144  1.00  0.00     0.006 A 
HETATM   34  C   UNL     1      44.084 -19.979   4.516  1.00  0.00     0.124 A 
HETATM   35  F   UNL     1      44.322 -20.324   5.792  1.00  0.00    -0.206 F 
HETATM   36  C   UNL     1      43.663 -20.949   3.614  1.00  0.00     0.043 A 
HETATM   37  C   UNL     1      43.382 -20.581   2.301  1.00  0.00     0.003 A 
HETATM   38  C   UNL     1      43.529 -19.252   1.902  1.00  0.00     0.001 A 
HETATM   39  C   UNL     1      43.952 -18.282   2.816  1.00  0.00     0.012 A 
ENDBRANCH  32  33
ENDBRANCH  28  32
ENDBRANCH   4  25
TORSDOF 9
ENDMDL
MODEL 6
REMARK VINA RESULT:      -7.9      5.567      8.738
REMARK  9 active torsions:
REMARK  status: ('A' for Active; 'I' for Inactive)
REMARK    1  A    between atoms: O_2  and  C_3 
REMARK    2  A    between atoms: C_5  and  O_6 
REMARK    3  A    between atoms: C_9  and  C_10 
REMARK       I    between atoms: C_10  and  N_11 
REMARK    4  A    between atoms: N_11  and  C_12 
REMARK    5  A    between atoms: C_12  and  N_13 
REMARK    6  A    between atoms: N_13  and  C_14 
REMARK    7  A    between atoms: C_17  and  N_18 
REMARK    8  A    between atoms: N_21  and  C_23 
REMARK    9  A    between atoms: C_23  and  C_24 
ROOT
HETATM    1  C   UNL     1      42.476 -12.160   4.978  1.00  0.00     0.034 A 
HETATM    2  C   UNL     1      43.338 -12.673   5.945  1.00  0.00     0.032 A 
HETATM    3  C   UNL     1      43.783 -11.885   7.022  1.00  0.00     0.031 A 
HETATM    4  C   UNL     1      43.399 -10.550   7.170  1.00  0.00     0.030 A 
HETATM    5  C   UNL     1      42.581 -10.032   6.149  1.00  0.00     0.031 A 
HETATM    6  C   UNL     1      42.126 -10.816   5.074  1.00  0.00     0.032 A 
ENDROOT
BRANCH   1   7
HETATM    7  N   UNL     1      42.016 -12.898   3.860  1.00  0.00    -0.333 N 
HETATM    8  H   UNL     1      42.713 -13.103   3.154  1.00  0.00     0.168 HD
BRANCH   7   9
HETATM    9  C   UNL     1      40.731 -13.207   3.512  1.00  0.00     0.179 C 
HETATM   10  S   UNL     1      39.331 -12.473   4.079  1.00  0.00    -0.040 SA
BRANCH   9  11
HETATM   11  N   UNL     1      40.540 -14.235   2.595  1.00  0.00    -0.299 N 
HETATM   12  C   UNL     1      40.763 -15.598   2.372  1.00  0.00     0.258 C 
HETATM   13  O   UNL     1      40.224 -16.123   1.396  1.00  0.00    -0.267 OA
HETATM   14  H   UNL     1      39.997 -13.890   1.810  1.00  0.00     0.171 HD
BRANCH  12  15
HETATM   15  C   UNL     1      41.682 -16.418   3.178  1.00  0.00     0.037 A 
HETATM   16  C   UNL     1      42.651 -17.260   2.633  1.00  0.00     0.054 A 
HETATM   17  C   UNL     1      43.509 -17.979   3.477  1.00  0.00     0.071 A 
HETATM   18  C   UNL     1      43.457 -17.775   4.860  1.00  0.00     0.073 A 
HETATM   19  C   UNL     1      42.546 -16.865   5.395  1.00  0.00     0.071 A 
HETATM   20  C   UNL     1      41.640 -16.216   4.563  1.00  0.00     0.054 A 
BRANCH  17  21
HETATM   21  O   UNL     1      44.348 -18.849   2.832  1.00  0.00    -0.356 OA
HETATM   22  C   UNL     1      43.754 -20.023   2.287  1.00  0.00     0.210 C 
ENDBRANCH  17  21
BRANCH  19  23
HETATM   23  O   UNL     1      42.444 -16.589   6.731  1.00  0.00    -0.356 OA
HETATM   24  C   UNL     1      43.693 -16.630   7.423  1.00  0.00     0.210 C 
ENDBRANCH  19  23
ENDBRANCH  12  15
ENDBRANCH   9  11
ENDBRANCH   7   9
ENDBRANCH   1   7
BRANCH   4  25
HETATM   25  N   UNL     1      43.834  -9.739   8.218  1.00  0.00    -0.378 N 
HETATM   26  C   UNL     1      44.730 -10.256   9.272  1.00  0.00     0.150 C 
HETATM   27  C   UNL     1      43.937 -10.711  10.517  1.00  0.00     0.255 C 
HETATM   28  N   UNL     1      43.030  -9.585  11.010  1.00  0.00    -0.064 N 
HETATM   29  H   UNL     1      43.640  -8.790  11.255  1.00  0.00     0.280 HD
HETATM   30  C   UNL     1      42.105  -9.109   9.887  1.00  0.00     0.255 C 
HETATM   31  C   UNL     1      42.939  -8.652   8.671  1.00  0.00     0.150 C 
BRANCH  28  32
HETATM   32  C   UNL     1      42.294  -9.950  12.276  1.00  0.00     0.276 C 
BRANCH  32  33
HETATM   33  C   UNL     1      42.311  -8.875  13.325  1.00  0.00     0.006 A 
HETATM   34  C   UNL     1      41.300  -8.819  14.290  1.00  0.00     0.124 A 
HETATM   35  F   UNL     1      40.342  -9.761  14.280  1.00  0.00    -0.206 F 
HETATM   36  C   UNL     1      41.289  -7.847  15.283  1.00  0.00     0.043 A 
HETATM   37  C   UNL     1      42.304  -6.894  15.314  1.00  0.00     0.003 A 
HETATM   38  C   UNL     1      43.314  -6.919  14.351  1.00  0.00     0.001 A 
HETATM   39  C   UNL     1      43.318  -7.902  13.357  1.00  0.00     0.012 A 
ENDBRANCH  32  33
ENDBRANCH  28  32
ENDBRANCH   4  25
TORSDOF 9
ENDMDL
MODEL 7
REMARK VINA RESULT:      -7.9      1.789      2.761
REMARK  9 active torsions:
REMARK  status: ('A' for Active; 'I' for Inactive)
REMARK    1  A    between atoms: O_2  and  C_3 
REMARK    2  A    between atoms: C_5  and  O_6 
REMARK    3  A    between atoms: C_9  and  C_10 
REMARK       I    between atoms: C_10  and  N_11 
REMARK    4  A    between atoms: N_11  and  C_12 
REMARK    5  A    between atoms: C_12  and  N_13 
REMARK    6  A    between atoms: N_13  and  C_14 
REMARK    7  A    between atoms: C_17  and  N_18 
REMARK    8  A    between atoms: N_21  and  C_23 
REMARK    9  A    between atoms: C_23  and  C_24 
ROOT
HETATM    1  C   UNL     1      40.733 -10.641   4.482  1.00  0.00     0.034 A 
HETATM    2  C   UNL     1      39.645 -11.457   4.784  1.00  0.00     0.032 A 
HETATM    3  C   UNL     1      39.820 -12.728   5.360  1.00  0.00     0.031 A 
HETATM    4  C   UNL     1      41.087 -13.244   5.642  1.00  0.00     0.030 A 
HETATM    5  C   UNL     1      42.175 -12.433   5.270  1.00  0.00     0.031 A 
HETATM    6  C   UNL     1      42.007 -11.157   4.702  1.00  0.00     0.032 A 
ENDROOT
BRANCH   1   7
HETATM    7  N   UNL     1      40.619  -9.364   3.879  1.00  0.00    -0.333 N 
HETATM    8  H   UNL     1      40.719  -8.574   4.506  1.00  0.00     0.168 HD
BRANCH   7   9
HETATM    9  C   UNL     1      40.205  -9.052   2.614  1.00  0.00     0.179 C 
HETATM   10  S   UNL     1      38.684  -8.503   2.160  1.00  0.00    -0.040 SA
BRANCH   9  11
HETATM   11  N   UNL     1      41.123  -9.199   1.581  1.00  0.00    -0.299 N 
HETATM   12  C   UNL     1      41.428  -9.959   0.447  1.00  0.00     0.258 C 
HETATM   13  O   UNL     1      42.336  -9.569  -0.287  1.00  0.00    -0.267 OA
HETATM   14  H   UNL     1      41.810  -8.452   1.631  1.00  0.00     0.171 HD
BRANCH  12  15
HETATM   15  C   UNL     1      40.793 -11.250   0.135  1.00  0.00     0.037 A 
HETATM   16  C   UNL     1      40.057 -11.493  -1.024  1.00  0.00     0.054 A 
HETATM   17  C   UNL     1      39.517 -12.765  -1.257  1.00  0.00     0.071 A 
HETATM   18  C   UNL     1      39.800 -13.814  -0.376  1.00  0.00     0.073 A 
HETATM   19  C   UNL     1      40.610 -13.589   0.736  1.00  0.00     0.071 A 
HETATM   20  C   UNL     1      41.077 -12.307   1.009  1.00  0.00     0.054 A 
BRANCH  17  21
HETATM   21  O   UNL     1      38.729 -12.855  -2.374  1.00  0.00    -0.356 OA
HETATM   22  C   UNL     1      37.516 -12.108  -2.363  1.00  0.00     0.210 C 
ENDBRANCH  17  21
BRANCH  19  23
HETATM   23  O   UNL     1      40.956 -14.562   1.633  1.00  0.00    -0.356 OA
HETATM   24  C   UNL     1      40.012 -15.631   1.713  1.00  0.00     0.210 C 
ENDBRANCH  19  23
ENDBRANCH  12  15
ENDBRANCH   9  11
ENDBRANCH   7   9
ENDBRANCH   1   7
BRANCH   4  25
HETATM   25  N   UNL     1      41.294 -14.506   6.200  1.00  0.00    -0.378 N 
HETATM   26  C   UNL     1      42.384 -14.752   7.166  1.00  0.00     0.150 C 
HETATM   27  C   UNL     1      43.639 -15.324   6.469  1.00  0.00     0.255 C 
HETATM   28  N   UNL     1      43.276 -16.564   5.653  1.00  0.00    -0.064 N 
HETATM   29  H   UNL     1      42.896 -17.259   6.314  1.00  0.00     0.280 HD
HETATM   30  C   UNL     1      42.164 -16.242   4.652  1.00  0.00     0.255 C 
HETATM   31  C   UNL     1      40.928 -15.688   5.393  1.00  0.00     0.150 C 
BRANCH  28  32
HETATM   32  C   UNL     1      44.484 -17.210   5.019  1.00  0.00     0.276 C 
BRANCH  32  33
HETATM   33  C   UNL     1      44.197 -18.530   4.362  1.00  0.00     0.006 A 
HETATM   34  C   UNL     1      43.936 -18.590   2.989  1.00  0.00     0.124 A 
HETATM   35  F   UNL     1      43.982 -17.456   2.271  1.00  0.00    -0.206 F 
HETATM   36  C   UNL     1      43.678 -19.794   2.345  1.00  0.00     0.043 A 
HETATM   37  C   UNL     1      43.668 -20.973   3.085  1.00  0.00     0.003 A 
HETATM   38  C   UNL     1      43.909 -20.937   4.460  1.00  0.00     0.001 A 
HETATM   39  C   UNL     1      44.169 -19.721   5.100  1.00  0.00     0.012 A 
ENDBRANCH  32  33
ENDBRANCH  28  32
ENDBRANCH   4  25
TORSDOF 9
ENDMDL
MODEL 8
REMARK VINA RESULT:      -7.7      3.906      5.720
REMARK  9 active torsions:
REMARK  status: ('A' for Active; 'I' for Inactive)
REMARK    1  A    between atoms: O_2  and  C_3 
REMARK    2  A    between atoms: C_5  and  O_6 
REMARK    3  A    between atoms: C_9  and  C_10 
REMARK       I    between atoms: C_10  and  N_11 
REMARK    4  A    between atoms: N_11  and  C_12 
REMARK    5  A    between atoms: C_12  and  N_13 
REMARK    6  A    between atoms: N_13  and  C_14 
REMARK    7  A    between atoms: C_17  and  N_18 
REMARK    8  A    between atoms: N_21  and  C_23 
REMARK    9  A    between atoms: C_23  and  C_24 
ROOT
HETATM    1  C   UNL     1      40.378  -9.807   7.003  1.00  0.00     0.034 A 
HETATM    2  C   UNL     1      39.156 -10.397   6.689  1.00  0.00     0.032 A 
HETATM    3  C   UNL     1      39.087 -11.680   6.118  1.00  0.00     0.031 A 
HETATM    4  C   UNL     1      40.235 -12.420   5.822  1.00  0.00     0.030 A 
HETATM    5  C   UNL     1      41.460 -11.781   6.085  1.00  0.00     0.031 A 
HETATM    6  C   UNL     1      41.536 -10.501   6.664  1.00  0.00     0.032 A 
ENDROOT
BRANCH   1   7
HETATM    7  N   UNL     1      40.509  -8.508   7.555  1.00  0.00    -0.333 N 
HETATM    8  H   UNL     1      39.829  -8.266   8.266  1.00  0.00     0.168 HD
BRANCH   7   9
HETATM    9  C   UNL     1      41.299  -7.476   7.132  1.00  0.00     0.179 C 
HETATM   10  S   UNL     1      41.532  -6.973   5.547  1.00  0.00    -0.040 SA
BRANCH   9  11
HETATM   11  N   UNL     1      41.993  -6.757   8.098  1.00  0.00    -0.299 N 
HETATM   12  C   UNL     1      43.060  -6.824   9.000  1.00  0.00     0.258 C 
HETATM   13  O   UNL     1      43.405  -5.789   9.570  1.00  0.00    -0.267 OA
HETATM   14  H   UNL     1      41.625  -5.811   8.142  1.00  0.00     0.171 HD
BRANCH  12  15
HETATM   15  C   UNL     1      43.730  -8.079   9.380  1.00  0.00     0.037 A 
HETATM   16  C   UNL     1      43.351  -8.861  10.471  1.00  0.00     0.054 A 
HETATM   17  C   UNL     1      44.024 -10.061  10.739  1.00  0.00     0.071 A 
HETATM   18  C   UNL     1      45.007 -10.521   9.857  1.00  0.00     0.073 A 
HETATM   19  C   UNL     1      45.321  -9.780   8.719  1.00  0.00     0.071 A 
HETATM   20  C   UNL     1      44.711  -8.549   8.499  1.00  0.00     0.054 A 
BRANCH  17  21
HETATM   21  O   UNL     1      43.633 -10.689  11.893  1.00  0.00    -0.356 OA
HETATM   22  C   UNL     1      42.605 -10.055  12.649  1.00  0.00     0.210 C 
ENDBRANCH  17  21
BRANCH  19  23
HETATM   23  O   UNL     1      46.251 -10.167   7.793  1.00  0.00    -0.356 OA
HETATM   24  C   UNL     1      45.731 -11.032   6.782  1.00  0.00     0.210 C 
ENDBRANCH  19  23
ENDBRANCH  12  15
ENDBRANCH   9  11
ENDBRANCH   7   9
ENDBRANCH   1   7
BRANCH   4  25
HETATM   25  N   UNL     1      40.200 -13.689   5.243  1.00  0.00    -0.378 N 
HETATM   26  C   UNL     1      40.322 -14.913   6.061  1.00  0.00     0.150 C 
HETATM   27  C   UNL     1      41.777 -15.432   6.089  1.00  0.00     0.255 C 
HETATM   28  N   UNL     1      42.304 -15.613   4.666  1.00  0.00    -0.064 N 
HETATM   29  H   UNL     1      41.695 -16.306   4.204  1.00  0.00     0.280 HD
HETATM   30  C   UNL     1      42.179 -14.308   3.876  1.00  0.00     0.255 C 
HETATM   31  C   UNL     1      40.710 -13.835   3.863  1.00  0.00     0.150 C 
BRANCH  28  32
HETATM   32  C   UNL     1      43.695 -16.199   4.638  1.00  0.00     0.276 C 
BRANCH  32  33
HETATM   33  C   UNL     1      43.746 -17.634   4.198  1.00  0.00     0.006 A 
HETATM   34  C   UNL     1      43.532 -17.967   2.856  1.00  0.00     0.124 A 
HETATM   35  F   UNL     1      43.318 -16.980   1.971  1.00  0.00    -0.206 F 
HETATM   36  C   UNL     1      43.582 -19.282   2.411  1.00  0.00     0.043 A 
HETATM   37  C   UNL     1      43.841 -20.301   3.325  1.00  0.00     0.003 A 
HETATM   38  C   UNL     1      44.041 -19.995   4.672  1.00  0.00     0.001 A 
HETATM   39  C   UNL     1      43.990 -18.669   5.111  1.00  0.00     0.012 A 
ENDBRANCH  32  33
ENDBRANCH  28  32
ENDBRANCH   4  25
TORSDOF 9
ENDMDL
MODEL 9
REMARK VINA RESULT:      -7.7      5.114      8.069
REMARK  9 active torsions:
REMARK  status: ('A' for Active; 'I' for Inactive)
REMARK    1  A    between atoms: O_2  and  C_3 
REMARK    2  A    between atoms: C_5  and  O_6 
REMARK    3  A    between atoms: C_9  and  C_10 
REMARK       I    between atoms: C_10  and  N_11 
REMARK    4  A    between atoms: N_11  and  C_12 
REMARK    5  A    between atoms: C_12  and  N_13 
REMARK    6  A    between atoms: N_13  and  C_14 
REMARK    7  A    between atoms: C_17  and  N_18 
REMARK    8  A    between atoms: N_21  and  C_23 
REMARK    9  A    between atoms: C_23  and  C_24 
ROOT
HETATM    1  C   UNL     1      39.585 -12.118   4.481  1.00  0.00     0.034 A 
HETATM    2  C   UNL     1      39.673 -12.449   5.832  1.00  0.00     0.032 A 
HETATM    3  C   UNL     1      39.999 -11.485   6.802  1.00  0.00     0.031 A 
HETATM    4  C   UNL     1      40.266 -10.156   6.464  1.00  0.00     0.030 A 
HETATM    5  C   UNL     1      40.237  -9.857   5.089  1.00  0.00     0.031 A 
HETATM    6  C   UNL     1      39.903 -10.814   4.114  1.00  0.00     0.032 A 
ENDROOT
BRANCH   1   7
HETATM    7  N   UNL     1      39.286 -13.052   3.458  1.00  0.00    -0.333 N 
HETATM    8  H   UNL     1      38.315 -13.091   3.172  1.00  0.00     0.168 HD
BRANCH   7   9
HETATM    9  C   UNL     1      40.084 -14.035   2.940  1.00  0.00     0.179 C 
HETATM   10  S   UNL     1      39.670 -15.645   2.701  1.00  0.00    -0.040 SA
BRANCH   9  11
HETATM   11  N   UNL     1      41.377 -13.686   2.568  1.00  0.00    -0.299 N 
HETATM   12  C   UNL     1      42.668 -13.466   3.059  1.00  0.00     0.258 C 
HETATM   13  O   UNL     1      43.582 -13.318   2.247  1.00  0.00    -0.267 OA
HETATM   14  H   UNL     1      41.425 -13.601   1.557  1.00  0.00     0.171 HD
BRANCH  12  15
HETATM   15  C   UNL     1      42.981 -13.302   4.489  1.00  0.00     0.037 A 
HETATM   16  C   UNL     1      42.764 -14.290   5.448  1.00  0.00     0.054 A 
HETATM   17  C   UNL     1      43.125 -14.060   6.783  1.00  0.00     0.071 A 
HETATM   18  C   UNL     1      43.792 -12.881   7.132  1.00  0.00     0.073 A 
HETATM   19  C   UNL     1      44.087 -11.934   6.152  1.00  0.00     0.071 A 
HETATM   20  C   UNL     1      43.654 -12.127   4.844  1.00  0.00     0.054 A 
BRANCH  17  21
HETATM   21  O   UNL     1      42.770 -15.059   7.651  1.00  0.00    -0.356 OA
HETATM   22  C   UNL     1      42.001 -16.130   7.112  1.00  0.00     0.210 C 
ENDBRANCH  17  21
BRANCH  19  23
HETATM   23  O   UNL     1      44.755 -10.766   6.401  1.00  0.00    -0.356 OA
HETATM   24  C   UNL     1      45.766 -10.885   7.403  1.00  0.00     0.210 C 
ENDBRANCH  19  23
ENDBRANCH  12  15
ENDBRANCH   9  11
ENDBRANCH   7   9
ENDBRANCH   1   7
BRANCH   4  25
HETATM   25  N   UNL     1      40.605  -9.180   7.401  1.00  0.00    -0.378 N 
HETATM   26  C   UNL     1      42.012  -8.803   7.647  1.00  0.00     0.150 C 
HETATM   27  C   UNL     1      42.597  -9.563   8.858  1.00  0.00     0.255 C 
HETATM   28  N   UNL     1      41.707  -9.371  10.086  1.00  0.00    -0.064 N 
HETATM   29  H   UNL     1      41.683  -8.360  10.286  1.00  0.00     0.280 HD
HETATM   30  C   UNL     1      40.271  -9.803   9.781  1.00  0.00     0.255 C 
HETATM   31  C   UNL     1      39.724  -9.010   8.575  1.00  0.00     0.150 C 
BRANCH  28  32
HETATM   32  C   UNL     1      42.280 -10.025  11.319  1.00  0.00     0.276 C 
BRANCH  32  33
HETATM   33  C   UNL     1      42.276  -9.145  12.537  1.00  0.00     0.006 A 
HETATM   34  C   UNL     1      41.309  -9.326  13.532  1.00  0.00     0.124 A 
HETATM   35  F   UNL     1      40.415 -10.318  13.394  1.00  0.00    -0.206 F 
HETATM   36  C   UNL     1      41.282  -8.538  14.677  1.00  0.00     0.043 A 
HETATM   37  C   UNL     1      42.233  -7.534  14.835  1.00  0.00     0.003 A 
HETATM   38  C   UNL     1      43.197  -7.324  13.848  1.00  0.00     0.001 A 
HETATM   39  C   UNL     1      43.219  -8.122  12.700  1.00  0.00     0.012 A 
ENDBRANCH  32  33
ENDBRANCH  28  32
ENDBRANCH   4  25
TORSDOF 9
ENDMDL
MODEL 10
REMARK VINA RESULT:      -7.6      3.606      5.561
REMARK  9 active torsions:
REMARK  status: ('A' for Active; 'I' for Inactive)
REMARK    1  A    between atoms: O_2  and  C_3 
REMARK    2  A    between atoms: C_5  and  O_6 
REMARK    3  A    between atoms: C_9  and  C_10 
REMARK       I    between atoms: C_10  and  N_11 
REMARK    4  A    between atoms: N_11  and  C_12 
REMARK    5  A    between atoms: C_12  and  N_13 
REMARK    6  A    between atoms: N_13  and  C_14 
REMARK    7  A    between atoms: C_17  and  N_18 
REMARK    8  A    between atoms: N_21  and  C_23 
REMARK    9  A    between atoms: C_23  and  C_24 
ROOT
HETATM    1  C   UNL     1      40.363 -10.708   4.512  1.00  0.00     0.034 A 
HETATM    2  C   UNL     1      39.272 -11.106   3.740  1.00  0.00     0.032 A 
HETATM    3  C   UNL     1      39.188 -12.404   3.206  1.00  0.00     0.031 A 
HETATM    4  C   UNL     1      40.194 -13.353   3.407  1.00  0.00     0.030 A 
HETATM    5  C   UNL     1      41.315 -12.912   4.132  1.00  0.00     0.031 A 
HETATM    6  C   UNL     1      41.403 -11.618   4.676  1.00  0.00     0.032 A 
ENDROOT
BRANCH   1   7
HETATM    7  N   UNL     1      40.513  -9.407   5.053  1.00  0.00    -0.333 N 
HETATM    8  H   UNL     1      40.896  -8.713   4.423  1.00  0.00     0.168 HD
BRANCH   7   9
HETATM    9  C   UNL     1      40.393  -9.006   6.355  1.00  0.00     0.179 C 
HETATM   10  S   UNL     1      39.464  -9.733   7.550  1.00  0.00    -0.040 SA
BRANCH   9  11
HETATM   11  N   UNL     1      41.104  -7.878   6.750  1.00  0.00    -0.299 N 
HETATM   12  C   UNL     1      42.219  -7.450   7.477  1.00  0.00     0.258 C 
HETATM   13  O   UNL     1      42.546  -6.265   7.395  1.00  0.00    -0.267 OA
HETATM   14  H   UNL     1      40.695  -7.054   6.319  1.00  0.00     0.171 HD
BRANCH  12  15
HETATM   15  C   UNL     1      42.966  -8.310   8.409  1.00  0.00     0.037 A 
HETATM   16  C   UNL     1      43.064  -8.068   9.779  1.00  0.00     0.054 A 
HETATM   17  C   UNL     1      43.768  -8.961  10.599  1.00  0.00     0.071 A 
HETATM   18  C   UNL     1      44.285 -10.143  10.060  1.00  0.00     0.073 A 
HETATM   19  C   UNL     1      44.108 -10.425   8.706  1.00  0.00     0.071 A 
HETATM   20  C   UNL     1      43.482  -9.499   7.877  1.00  0.00     0.054 A 
BRANCH  17  21
HETATM   21  O   UNL     1      43.884  -8.565  11.906  1.00  0.00    -0.356 OA
HETATM   22  C   UNL     1      42.759  -8.802  12.747  1.00  0.00     0.210 C 
ENDBRANCH  17  21
BRANCH  19  23
HETATM   23  O   UNL     1      44.560 -11.567   8.102  1.00  0.00    -0.356 OA
HETATM   24  C   UNL     1      45.564 -11.335   7.113  1.00  0.00     0.210 C 
ENDBRANCH  19  23
ENDBRANCH  12  15
ENDBRANCH   9  11
ENDBRANCH   7   9
ENDBRANCH   1   7
BRANCH   4  25
HETATM   25  N   UNL     1      40.145 -14.644   2.879  1.00  0.00    -0.378 N 
HETATM   26  C   UNL     1      40.310 -15.834   3.738  1.00  0.00     0.150 C 
HETATM   27  C   UNL     1      41.769 -16.343   3.727  1.00  0.00     0.255 C 
HETATM   28  N   UNL     1      42.239 -16.576   2.292  1.00  0.00    -0.064 N 
HETATM   29  H   UNL     1      41.617 -17.290   1.882  1.00  0.00     0.280 HD
HETATM   30  C   UNL     1      42.072 -15.304   1.458  1.00  0.00     0.255 C 
HETATM   31  C   UNL     1      40.599 -14.840   1.486  1.00  0.00     0.150 C 
BRANCH  28  32
HETATM   32  C   UNL     1      43.632 -17.154   2.229  1.00  0.00     0.276 C 
BRANCH  32  33
HETATM   33  C   UNL     1      43.775 -18.481   2.917  1.00  0.00     0.006 A 
HETATM   34  C   UNL     1      44.290 -18.548   4.216  1.00  0.00     0.124 A 
HETATM   35  F   UNL     1      44.617 -17.407   4.842  1.00  0.00    -0.206 F 
HETATM   36  C   UNL     1      44.427 -19.757   4.887  1.00  0.00     0.043 A 
HETATM   37  C   UNL     1      44.052 -20.937   4.249  1.00  0.00     0.003 A 
HETATM   38  C   UNL     1      43.552 -20.897   2.947  1.00  0.00     0.001 A 
HETATM   39  C   UNL     1      43.416 -19.676   2.279  1.00  0.00     0.012 A 
ENDBRANCH  32  33
ENDBRANCH  28  32
ENDBRANCH   4  25
TORSDOF 9
ENDMDL
