MODEL 1
REMARK VINA RESULT:      -8.7      0.000      0.000
REMARK  9 active torsions:
REMARK  status: ('A' for Active; 'I' for Inactive)
REMARK    1  A    between atoms: C_2  and  N_3 
REMARK    2  A    between atoms: C_2  and  C_23 
REMARK       I    between atoms: N_3  and  C_4 
REMARK       I    between atoms: C_4  and  N_5 
REMARK    3  A    between atoms: N_5  and  C_6 
REMARK    4  A    between atoms: C_6  and  C_7 
REMARK    5  A    between atoms: C_7  and  N_8 
REMARK    6  A    between atoms: C_7  and  C_14 
REMARK    7  A    between atoms: C_16  and  O_17 
REMARK    8  A    between atoms: C_23  and  C_24 
REMARK    9  A    between atoms: C_27  and  O_28 
ROOT
HETATM    1  N   UNL     1      42.080 -14.447   2.134  1.00  0.00    -0.339 N 
HETATM    2  C   UNL     1      42.553 -13.408   2.851  1.00  0.00     0.316 C 
HETATM    3  N   UNL     1      43.108 -13.683   4.061  1.00  0.00    -0.341 N 
HETATM    4  O   UNL     1      42.510 -12.270   2.399  1.00  0.00    -0.248 OA
HETATM    5  H   UNL     1      41.641 -14.139   1.273  1.00  0.00     0.164 HD
HETATM    6  H   UNL     1      42.915 -14.598   4.446  1.00  0.00     0.164 HD
ENDROOT
BRANCH   3   7
HETATM    7  C   UNL     1      43.358 -12.611   5.025  1.00  0.00     0.162 C 
BRANCH   7   8
HETATM    8  C   UNL     1      43.831 -13.092   6.429  1.00  0.00     0.238 C 
BRANCH   8   9
HETATM    9  N   UNL     1      42.692 -13.749   7.213  1.00  0.00    -0.061 N 
HETATM   10  H   UNL     1      42.510 -13.121   8.008  1.00  0.00     0.280 HD
HETATM   11  C   UNL     1      42.984 -15.145   7.724  1.00  0.00     0.236 C 
HETATM   12  C   UNL     1      42.333 -16.048   6.699  1.00  0.00     0.029 C 
HETATM   13  C   UNL     1      41.026 -15.339   6.430  1.00  0.00     0.029 C 
HETATM   14  C   UNL     1      41.383 -13.860   6.431  1.00  0.00     0.236 C 
ENDBRANCH   8   9
BRANCH   8  15
HETATM   15  C   UNL     1      44.493 -11.929   7.160  1.00  0.00    -0.023 A 
HETATM   16  C   UNL     1      43.843 -11.358   8.275  1.00  0.00     0.046 A 
HETATM   17  C   UNL     1      44.422 -10.295   8.972  1.00  0.00     0.068 A 
HETATM   18  C   UNL     1      45.656  -9.798   8.555  1.00  0.00     0.037 A 
HETATM   19  C   UNL     1      46.315 -10.353   7.459  1.00  0.00     0.003 A 
HETATM   20  C   UNL     1      45.739 -11.415   6.765  1.00  0.00     0.009 A 
BRANCH  17  21
HETATM   21  O   UNL     1      43.892  -9.661  10.058  1.00  0.00    -0.356 OA
HETATM   22  C   UNL     1      42.485  -9.449  10.082  1.00  0.00     0.210 C 
ENDBRANCH  17  21
ENDBRANCH   8  15
ENDBRANCH   7   8
ENDBRANCH   3   7
BRANCH   1  23
HETATM   23  C   UNL     1      41.949 -15.870   2.464  1.00  0.00     0.086 C 
HETATM   24  C   UNL     1      40.623 -16.418   1.927  1.00  0.00     0.032 C 
BRANCH  23  25
HETATM   25  C   UNL     1      43.111 -16.697   1.869  1.00  0.00     0.063 C 
BRANCH  25  26
HETATM   26  C   UNL     1      43.447 -17.942   2.657  1.00  0.00    -0.056 A 
HETATM   27  C   UNL     1      43.912 -17.843   3.977  1.00  0.00     0.010 A 
HETATM   28  C   UNL     1      44.189 -18.994   4.720  1.00  0.00     0.037 A 
HETATM   29  C   UNL     1      44.010 -20.244   4.138  1.00  0.00     0.065 A 
HETATM   30  C   UNL     1      43.563 -20.361   2.829  1.00  0.00     0.037 A 
HETATM   31  C   UNL     1      43.275 -19.213   2.090  1.00  0.00     0.010 A 
BRANCH  29  32
HETATM   32  O   UNL     1      44.258 -21.392   4.827  1.00  0.00    -0.361 OA
HETATM   33  H   UNL     1      43.729 -22.111   4.441  1.00  0.00     0.217 HD
ENDBRANCH  29  32
ENDBRANCH  25  26
ENDBRANCH  23  25
ENDBRANCH   1  23
TORSDOF 9
ENDMDL
MODEL 2
REMARK VINA RESULT:      -8.6      1.733      4.085
REMARK  9 active torsions:
REMARK  status: ('A' for Active; 'I' for Inactive)
REMARK    1  A    between atoms: C_2  and  N_3 
REMARK    2  A    between atoms: C_2  and  C_23 
REMARK       I    between atoms: N_3  and  C_4 
REMARK       I    between atoms: C_4  and  N_5 
REMARK    3  A    between atoms: N_5  and  C_6 
REMARK    4  A    between atoms: C_6  and  C_7 
REMARK    5  A    between atoms: C_7  and  N_8 
REMARK    6  A    between atoms: C_7  and  C_14 
REMARK    7  A    between atoms: C_16  and  O_17 
REMARK    8  A    between atoms: C_23  and  C_24 
REMARK    9  A    between atoms: C_27  and  O_28 
ROOT
HETATM    1  N   UNL     1      42.153 -14.105   2.116  1.00  0.00    -0.339 N 
HETATM    2  C   UNL     1      42.651 -12.994   2.698  1.00  0.00     0.316 C 
HETATM    3  N   UNL     1      43.319 -13.148   3.871  1.00  0.00    -0.341 N 
HETATM    4  O   UNL     1      42.528 -11.902   2.157  1.00  0.00    -0.248 OA
HETATM    5  H   UNL     1      41.630 -13.885   1.275  1.00  0.00     0.164 HD
HETATM    6  H   UNL     1      43.192 -14.031   4.348  1.00  0.00     0.164 HD
ENDROOT
BRANCH   3   7
HETATM    7  C   UNL     1      43.615 -11.990   4.715  1.00  0.00     0.162 C 
BRANCH   7   8
HETATM    8  C   UNL     1      43.099 -12.100   6.181  1.00  0.00     0.238 C 
BRANCH   8   9
HETATM    9  N   UNL     1      44.245 -11.997   7.191  1.00  0.00    -0.061 N 
HETATM   10  H   UNL     1      44.392 -12.956   7.535  1.00  0.00     0.280 HD
HETATM   11  C   UNL     1      43.990 -11.069   8.361  1.00  0.00     0.236 C 
HETATM   12  C   UNL     1      44.688  -9.788   7.964  1.00  0.00     0.029 C 
HETATM   13  C   UNL     1      45.976 -10.296   7.358  1.00  0.00     0.029 C 
HETATM   14  C   UNL     1      45.571 -11.540   6.581  1.00  0.00     0.236 C 
ENDBRANCH   8   9
BRANCH   8  15
HETATM   15  C   UNL     1      42.262 -13.367   6.324  1.00  0.00    -0.023 A 
HETATM   16  C   UNL     1      42.893 -14.568   6.714  1.00  0.00     0.046 A 
HETATM   17  C   UNL     1      42.157 -15.745   6.860  1.00  0.00     0.068 A 
HETATM   18  C   UNL     1      40.784 -15.727   6.617  1.00  0.00     0.037 A 
HETATM   19  C   UNL     1      40.144 -14.549   6.236  1.00  0.00     0.003 A 
HETATM   20  C   UNL     1      40.877 -13.373   6.092  1.00  0.00     0.009 A 
BRANCH  17  21
HETATM   21  O   UNL     1      42.652 -16.963   7.228  1.00  0.00    -0.356 OA
HETATM   22  C   UNL     1      43.974 -17.011   7.753  1.00  0.00     0.210 C 
ENDBRANCH  17  21
ENDBRANCH   8  15
ENDBRANCH   7   8
ENDBRANCH   3   7
BRANCH   1  23
HETATM   23  C   UNL     1      42.102 -15.497   2.575  1.00  0.00     0.086 C 
HETATM   24  C   UNL     1      40.726 -16.101   2.278  1.00  0.00     0.032 C 
BRANCH  23  25
HETATM   25  C   UNL     1      43.187 -16.358   1.890  1.00  0.00     0.063 C 
BRANCH  25  26
HETATM   26  C   UNL     1      43.471 -17.664   2.595  1.00  0.00    -0.056 A 
HETATM   27  C   UNL     1      43.907 -17.672   3.929  1.00  0.00     0.010 A 
HETATM   28  C   UNL     1      44.135 -18.880   4.594  1.00  0.00     0.037 A 
HETATM   29  C   UNL     1      43.937 -20.080   3.920  1.00  0.00     0.065 A 
HETATM   30  C   UNL     1      43.519 -20.092   2.596  1.00  0.00     0.037 A 
HETATM   31  C   UNL     1      43.279 -18.886   1.935  1.00  0.00     0.010 A 
BRANCH  29  32
HETATM   32  O   UNL     1      44.138 -21.281   4.531  1.00  0.00    -0.361 OA
HETATM   33  H   UNL     1      43.978 -21.991   3.887  1.00  0.00     0.217 HD
ENDBRANCH  29  32
ENDBRANCH  25  26
ENDBRANCH  23  25
ENDBRANCH   1  23
TORSDOF 9
ENDMDL
MODEL 3
REMARK VINA RESULT:      -8.3      1.447      1.835
REMARK  9 active torsions:
REMARK  status: ('A' for Active; 'I' for Inactive)
REMARK    1  A    between atoms: C_2  and  N_3 
REMARK    2  A    between atoms: C_2  and  C_23 
REMARK       I    between atoms: N_3  and  C_4 
REMARK       I    between atoms: C_4  and  N_5 
REMARK    3  A    between atoms: N_5  and  C_6 
REMARK    4  A    between atoms: C_6  and  C_7 
REMARK    5  A    between atoms: C_7  and  N_8 
REMARK    6  A    between atoms: C_7  and  C_14 
REMARK    7  A    between atoms: C_16  and  O_17 
REMARK    8  A    between atoms: C_23  and  C_24 
REMARK    9  A    between atoms: C_27  and  O_28 
ROOT
HETATM    1  N   UNL     1      42.274 -14.357   2.278  1.00  0.00    -0.339 N 
HETATM    2  C   UNL     1      42.616 -13.142   2.755  1.00  0.00     0.316 C 
HETATM    3  N   UNL     1      43.204 -13.093   3.979  1.00  0.00    -0.341 N 
HETATM    4  O   UNL     1      42.430 -12.136   2.081  1.00  0.00    -0.248 OA
HETATM    5  H   UNL     1      41.797 -14.288   1.385  1.00  0.00     0.164 HD
HETATM    6  H   UNL     1      43.127 -13.925   4.548  1.00  0.00     0.164 HD
ENDROOT
BRANCH   3   7
HETATM    7  C   UNL     1      43.322 -11.824   4.696  1.00  0.00     0.162 C 
BRANCH   7   8
HETATM    8  C   UNL     1      42.836 -11.861   6.176  1.00  0.00     0.238 C 
BRANCH   8   9
HETATM    9  N   UNL     1      41.401 -11.345   6.312  1.00  0.00    -0.061 N 
HETATM   10  H   UNL     1      41.392 -10.793   7.180  1.00  0.00     0.280 HD
HETATM   11  C   UNL     1      40.335 -12.418   6.378  1.00  0.00     0.236 C 
HETATM   12  C   UNL     1      39.805 -12.489   4.963  1.00  0.00     0.029 C 
HETATM   13  C   UNL     1      39.727 -11.031   4.575  1.00  0.00     0.029 C 
HETATM   14  C   UNL     1      40.971 -10.403   5.187  1.00  0.00     0.236 C 
ENDBRANCH   8   9
BRANCH   8  15
HETATM   15  C   UNL     1      43.843 -11.124   7.052  1.00  0.00    -0.023 A 
HETATM   16  C   UNL     1      43.373 -10.228   8.036  1.00  0.00     0.046 A 
HETATM   17  C   UNL     1      44.266  -9.540   8.860  1.00  0.00     0.068 A 
HETATM   18  C   UNL     1      45.636  -9.746   8.704  1.00  0.00     0.037 A 
HETATM   19  C   UNL     1      46.118 -10.632   7.741  1.00  0.00     0.003 A 
HETATM   20  C   UNL     1      45.228 -11.321   6.920  1.00  0.00     0.009 A 
BRANCH  17  21
HETATM   21  O   UNL     1      43.934  -8.650   9.841  1.00  0.00    -0.356 OA
HETATM   22  C   UNL     1      43.754  -9.152  11.159  1.00  0.00     0.210 C 
ENDBRANCH  17  21
ENDBRANCH   8  15
ENDBRANCH   7   8
ENDBRANCH   3   7
BRANCH   1  23
HETATM   23  C   UNL     1      42.321 -15.686   2.896  1.00  0.00     0.086 C 
HETATM   24  C   UNL     1      40.903 -16.228   3.095  1.00  0.00     0.032 C 
BRANCH  23  25
HETATM   25  C   UNL     1      43.122 -16.683   2.028  1.00  0.00     0.063 C 
BRANCH  25  26
HETATM   26  C   UNL     1      43.445 -17.984   2.725  1.00  0.00    -0.056 A 
HETATM   27  C   UNL     1      43.958 -17.982   4.032  1.00  0.00     0.010 A 
HETATM   28  C   UNL     1      44.223 -19.185   4.692  1.00  0.00     0.037 A 
HETATM   29  C   UNL     1      43.985 -20.390   4.041  1.00  0.00     0.065 A 
HETATM   30  C   UNL     1      43.490 -20.412   2.744  1.00  0.00     0.037 A 
HETATM   31  C   UNL     1      43.214 -19.211   2.087  1.00  0.00     0.010 A 
BRANCH  29  32
HETATM   32  O   UNL     1      44.220 -21.586   4.649  1.00  0.00    -0.361 OA
HETATM   33  H   UNL     1      44.239 -22.284   3.972  1.00  0.00     0.217 HD
ENDBRANCH  29  32
ENDBRANCH  25  26
ENDBRANCH  23  25
ENDBRANCH   1  23
TORSDOF 9
ENDMDL
MODEL 4
REMARK VINA RESULT:      -8.2      1.878      3.895
REMARK  9 active torsions:
REMARK  status: ('A' for Active; 'I' for Inactive)
REMARK    1  A    between atoms: C_2  and  N_3 
REMARK    2  A    between atoms: C_2  and  C_23 
REMARK       I    between atoms: N_3  and  C_4 
REMARK       I    between atoms: C_4  and  N_5 
REMARK    3  A    between atoms: N_5  and  C_6 
REMARK    4  A    between atoms: C_6  and  C_7 
REMARK    5  A    between atoms: C_7  and  N_8 
REMARK    6  A    between atoms: C_7  and  C_14 
REMARK    7  A    between atoms: C_16  and  O_17 
REMARK    8  A    between atoms: C_23  and  C_24 
REMARK    9  A    between atoms: C_27  and  O_28 
ROOT
HETATM    1  N   UNL     1      41.846 -13.291   2.054  1.00  0.00    -0.339 N 
HETATM    2  C   UNL     1      42.619 -12.311   2.565  1.00  0.00     0.316 C 
HETATM    3  N   UNL     1      43.469 -12.645   3.572  1.00  0.00    -0.341 N 
HETATM    4  O   UNL     1      42.572 -11.178   2.102  1.00  0.00    -0.248 OA
HETATM    5  H   UNL     1      41.212 -12.936   1.345  1.00  0.00     0.164 HD
HETATM    6  H   UNL     1      43.296 -13.530   4.030  1.00  0.00     0.164 HD
ENDROOT
BRANCH   3   7
HETATM    7  C   UNL     1      44.105 -11.607   4.382  1.00  0.00     0.162 C 
BRANCH   7   8
HETATM    8  C   UNL     1      43.574 -11.500   5.843  1.00  0.00     0.238 C 
BRANCH   8   9
HETATM    9  N   UNL     1      44.687 -11.737   6.867  1.00  0.00    -0.061 N 
HETATM   10  H   UNL     1      44.823 -12.757   6.889  1.00  0.00     0.280 HD
HETATM   11  C   UNL     1      44.395 -11.230   8.264  1.00  0.00     0.236 C 
HETATM   12  C   UNL     1      45.104  -9.896   8.321  1.00  0.00     0.029 C 
HETATM   13  C   UNL     1      46.411 -10.196   7.623  1.00  0.00     0.029 C 
HETATM   14  C   UNL     1      46.031 -11.121   6.476  1.00  0.00     0.236 C 
ENDBRANCH   8   9
BRANCH   8  15
HETATM   15  C   UNL     1      42.374 -12.426   6.009  1.00  0.00    -0.023 A 
HETATM   16  C   UNL     1      41.073 -11.886   5.938  1.00  0.00     0.046 A 
HETATM   17  C   UNL     1      39.951 -12.705   6.080  1.00  0.00     0.068 A 
HETATM   18  C   UNL     1      40.127 -14.071   6.296  1.00  0.00     0.037 A 
HETATM   19  C   UNL     1      41.405 -14.623   6.364  1.00  0.00     0.003 A 
HETATM   20  C   UNL     1      42.525 -13.807   6.219  1.00  0.00     0.009 A 
BRANCH  17  21
HETATM   21  O   UNL     1      38.648 -12.301   6.032  1.00  0.00    -0.356 OA
HETATM   22  C   UNL     1      38.380 -10.909   6.155  1.00  0.00     0.210 C 
ENDBRANCH  17  21
ENDBRANCH   8  15
ENDBRANCH   7   8
ENDBRANCH   3   7
BRANCH   1  23
HETATM   23  C   UNL     1      41.660 -14.688   2.460  1.00  0.00     0.086 C 
HETATM   24  C   UNL     1      40.236 -15.148   2.134  1.00  0.00     0.032 C 
BRANCH  23  25
HETATM   25  C   UNL     1      42.665 -15.621   1.748  1.00  0.00     0.063 C 
BRANCH  25  26
HETATM   26  C   UNL     1      43.170 -16.755   2.611  1.00  0.00    -0.056 A 
HETATM   27  C   UNL     1      43.542 -16.521   3.944  1.00  0.00     0.010 A 
HETATM   28  C   UNL     1      43.974 -17.575   4.755  1.00  0.00     0.037 A 
HETATM   29  C   UNL     1      44.044 -18.859   4.228  1.00  0.00     0.065 A 
HETATM   30  C   UNL     1      43.692 -19.107   2.908  1.00  0.00     0.037 A 
HETATM   31  C   UNL     1      43.249 -18.058   2.101  1.00  0.00     0.010 A 
BRANCH  29  32
HETATM   32  O   UNL     1      44.450 -19.917   4.984  1.00  0.00    -0.361 OA
HETATM   33  H   UNL     1      43.714 -20.196   5.555  1.00  0.00     0.217 HD
ENDBRANCH  29  32
ENDBRANCH  25  26
ENDBRANCH  23  25
ENDBRANCH   1  23
TORSDOF 9
ENDMDL
MODEL 5
REMARK VINA RESULT:      -8.1      2.424      4.721
REMARK  9 active torsions:
REMARK  status: ('A' for Active; 'I' for Inactive)
REMARK    1  A    between atoms: C_2  and  N_3 
REMARK    2  A    between atoms: C_2  and  C_23 
REMARK       I    between atoms: N_3  and  C_4 
REMARK       I    between atoms: C_4  and  N_5 
REMARK    3  A    between atoms: N_5  and  C_6 
REMARK    4  A    between atoms: C_6  and  C_7 
REMARK    5  A    between atoms: C_7  and  N_8 
REMARK    6  A    between atoms: C_7  and  C_14 
REMARK    7  A    between atoms: C_16  and  O_17 
REMARK    8  A    between atoms: C_23  and  C_24 
REMARK    9  A    between atoms: C_27  and  O_28 
ROOT
HETATM    1  N   UNL     1      42.054 -16.444   5.762  1.00  0.00    -0.339 N 
HETATM    2  C   UNL     1      40.976 -16.046   5.056  1.00  0.00     0.316 C 
HETATM    3  N   UNL     1      41.200 -15.393   3.885  1.00  0.00    -0.341 N 
HETATM    4  O   UNL     1      39.845 -16.305   5.450  1.00  0.00    -0.248 OA
HETATM    5  H   UNL     1      41.788 -16.875   6.641  1.00  0.00     0.164 HD
HETATM    6  H   UNL     1      42.135 -15.037   3.742  1.00  0.00     0.164 HD
ENDROOT
BRANCH   3   7
HETATM    7  C   UNL     1      40.118 -14.664   3.222  1.00  0.00     0.162 C 
BRANCH   7   8
HETATM    8  C   UNL     1      40.560 -13.361   2.491  1.00  0.00     0.238 C 
BRANCH   8   9
HETATM    9  N   UNL     1      41.000 -13.644   1.052  1.00  0.00    -0.061 N 
HETATM   10  H   UNL     1      42.013 -13.818   1.107  1.00  0.00     0.280 HD
HETATM   11  C   UNL     1      40.728 -12.528   0.064  1.00  0.00     0.236 C 
HETATM   12  C   UNL     1      39.444 -12.953  -0.614  1.00  0.00     0.029 C 
HETATM   13  C   UNL     1      39.663 -14.433  -0.821  1.00  0.00     0.029 C 
HETATM   14  C   UNL     1      40.370 -14.898   0.445  1.00  0.00     0.236 C 
ENDBRANCH   8   9
BRANCH   8  15
HETATM   15  C   UNL     1      41.614 -12.648   3.330  1.00  0.00    -0.023 A 
HETATM   16  C   UNL     1      41.258 -12.146   4.600  1.00  0.00     0.046 A 
HETATM   17  C   UNL     1      42.198 -11.492   5.399  1.00  0.00     0.068 A 
HETATM   18  C   UNL     1      43.502 -11.337   4.929  1.00  0.00     0.037 A 
HETATM   19  C   UNL     1      43.873 -11.831   3.679  1.00  0.00     0.003 A 
HETATM   20  C   UNL     1      42.936 -12.486   2.883  1.00  0.00     0.009 A 
BRANCH  17  21
HETATM   21  O   UNL     1      41.974 -10.964   6.638  1.00  0.00    -0.356 OA
HETATM   22  C   UNL     1      42.814  -9.899   7.066  1.00  0.00     0.210 C 
ENDBRANCH  17  21
ENDBRANCH   8  15
ENDBRANCH   7   8
ENDBRANCH   3   7
BRANCH   1  23
HETATM   23  C   UNL     1      43.486 -16.207   5.554  1.00  0.00     0.086 C 
HETATM   24  C   UNL     1      44.019 -15.230   6.607  1.00  0.00     0.032 C 
BRANCH  23  25
HETATM   25  C   UNL     1      44.293 -17.522   5.637  1.00  0.00     0.063 C 
BRANCH  25  26
HETATM   26  C   UNL     1      44.060 -18.461   4.475  1.00  0.00    -0.056 A 
HETATM   27  C   UNL     1      44.173 -19.849   4.650  1.00  0.00     0.010 A 
HETATM   28  C   UNL     1      43.923 -20.721   3.587  1.00  0.00     0.037 A 
HETATM   29  C   UNL     1      43.570 -20.203   2.346  1.00  0.00     0.065 A 
HETATM   30  C   UNL     1      43.465 -18.832   2.151  1.00  0.00     0.037 A 
HETATM   31  C   UNL     1      43.704 -17.961   3.215  1.00  0.00     0.010 A 
BRANCH  29  32
HETATM   32  O   UNL     1      43.307 -21.015   1.284  1.00  0.00    -0.361 OA
HETATM   33  H   UNL     1      43.827 -21.832   1.378  1.00  0.00     0.217 HD
ENDBRANCH  29  32
ENDBRANCH  25  26
ENDBRANCH  23  25
ENDBRANCH   1  23
TORSDOF 9
ENDMDL
MODEL 6
REMARK VINA RESULT:      -8.1      4.476      7.810
REMARK  9 active torsions:
REMARK  status: ('A' for Active; 'I' for Inactive)
REMARK    1  A    between atoms: C_2  and  N_3 
REMARK    2  A    between atoms: C_2  and  C_23 
REMARK       I    between atoms: N_3  and  C_4 
REMARK       I    between atoms: C_4  and  N_5 
REMARK    3  A    between atoms: N_5  and  C_6 
REMARK    4  A    between atoms: C_6  and  C_7 
REMARK    5  A    between atoms: C_7  and  N_8 
REMARK    6  A    between atoms: C_7  and  C_14 
REMARK    7  A    between atoms: C_16  and  O_17 
REMARK    8  A    between atoms: C_23  and  C_24 
REMARK    9  A    between atoms: C_27  and  O_28 
ROOT
HETATM    1  N   UNL     1      41.050 -16.196   3.280  1.00  0.00    -0.339 N 
HETATM    2  C   UNL     1      40.348 -15.478   2.380  1.00  0.00     0.316 C 
HETATM    3  N   UNL     1      40.475 -14.126   2.421  1.00  0.00    -0.341 N 
HETATM    4  O   UNL     1      39.656 -16.042   1.539  1.00  0.00    -0.248 OA
HETATM    5  H   UNL     1      40.853 -17.189   3.204  1.00  0.00     0.164 HD
HETATM    6  H   UNL     1      40.885 -13.739   3.260  1.00  0.00     0.164 HD
ENDROOT
BRANCH   3   7
HETATM    7  C   UNL     1      39.531 -13.269   1.704  1.00  0.00     0.162 C 
BRANCH   7   8
HETATM    8  C   UNL     1      40.100 -12.603   0.415  1.00  0.00     0.238 C 
BRANCH   8   9
HETATM    9  N   UNL     1      40.134 -11.078   0.537  1.00  0.00    -0.061 N 
HETATM   10  H   UNL     1      39.671 -10.727  -0.313  1.00  0.00     0.280 HD
HETATM   11  C   UNL     1      41.518 -10.472   0.651  1.00  0.00     0.236 C 
HETATM   12  C   UNL     1      41.691 -10.246   2.136  1.00  0.00     0.029 C 
HETATM   13  C   UNL     1      40.336  -9.716   2.543  1.00  0.00     0.029 C 
HETATM   14  C   UNL     1      39.344 -10.532   1.727  1.00  0.00     0.236 C 
ENDBRANCH   8   9
BRANCH   8  15
HETATM   15  C   UNL     1      39.323 -13.109  -0.795  1.00  0.00    -0.023 A 
HETATM   16  C   UNL     1      38.231 -12.355  -1.276  1.00  0.00     0.046 A 
HETATM   17  C   UNL     1      37.500 -12.785  -2.385  1.00  0.00     0.068 A 
HETATM   18  C   UNL     1      37.858 -13.974  -3.019  1.00  0.00     0.037 A 
HETATM   19  C   UNL     1      38.937 -14.730  -2.561  1.00  0.00     0.003 A 
HETATM   20  C   UNL     1      39.668 -14.300  -1.456  1.00  0.00     0.009 A 
BRANCH  17  21
HETATM   21  O   UNL     1      36.428 -12.146  -2.940  1.00  0.00    -0.356 OA
HETATM   22  C   UNL     1      36.516 -10.738  -3.119  1.00  0.00     0.210 C 
ENDBRANCH  17  21
ENDBRANCH   8  15
ENDBRANCH   7   8
ENDBRANCH   3   7
BRANCH   1  23
HETATM   23  C   UNL     1      41.882 -15.778   4.413  1.00  0.00     0.086 C 
HETATM   24  C   UNL     1      41.387 -16.436   5.704  1.00  0.00     0.032 C 
BRANCH  23  25
HETATM   25  C   UNL     1      43.365 -16.155   4.194  1.00  0.00     0.063 C 
BRANCH  25  26
HETATM   26  C   UNL     1      43.598 -17.630   3.965  1.00  0.00    -0.056 A 
HETATM   27  C   UNL     1      44.005 -18.457   5.024  1.00  0.00     0.010 A 
HETATM   28  C   UNL     1      44.185 -19.829   4.823  1.00  0.00     0.037 A 
HETATM   29  C   UNL     1      43.969 -20.370   3.561  1.00  0.00     0.065 A 
HETATM   30  C   UNL     1      43.578 -19.566   2.499  1.00  0.00     0.037 A 
HETATM   31  C   UNL     1      43.386 -18.198   2.701  1.00  0.00     0.010 A 
BRANCH  29  32
HETATM   32  O   UNL     1      44.123 -21.703   3.322  1.00  0.00    -0.361 OA
HETATM   33  H   UNL     1      44.910 -21.833   2.767  1.00  0.00     0.217 HD
ENDBRANCH  29  32
ENDBRANCH  25  26
ENDBRANCH  23  25
ENDBRANCH   1  23
TORSDOF 9
ENDMDL
MODEL 7
REMARK VINA RESULT:      -8.1      2.339      8.086
REMARK  9 active torsions:
REMARK  status: ('A' for Active; 'I' for Inactive)
REMARK    1  A    between atoms: C_2  and  N_3 
REMARK    2  A    between atoms: C_2  and  C_23 
REMARK       I    between atoms: N_3  and  C_4 
REMARK       I    between atoms: C_4  and  N_5 
REMARK    3  A    between atoms: N_5  and  C_6 
REMARK    4  A    between atoms: C_6  and  C_7 
REMARK    5  A    between atoms: C_7  and  N_8 
REMARK    6  A    between atoms: C_7  and  C_14 
REMARK    7  A    between atoms: C_16  and  O_17 
REMARK    8  A    between atoms: C_23  and  C_24 
REMARK    9  A    between atoms: C_27  and  O_28 
ROOT
HETATM    1  N   UNL     1      40.415 -11.365   6.428  1.00  0.00    -0.339 N 
HETATM    2  C   UNL     1      40.369 -12.686   6.159  1.00  0.00     0.316 C 
HETATM    3  N   UNL     1      41.489 -13.259   5.646  1.00  0.00    -0.341 N 
HETATM    4  O   UNL     1      39.361 -13.336   6.409  1.00  0.00    -0.248 OA
HETATM    5  H   UNL     1      39.520 -11.018   6.758  1.00  0.00     0.164 HD
HETATM    6  H   UNL     1      42.188 -12.628   5.278  1.00  0.00     0.164 HD
ENDROOT
BRANCH   3   7
HETATM    7  C   UNL     1      41.433 -14.591   5.044  1.00  0.00     0.162 C 
BRANCH   7   8
HETATM    8  C   UNL     1      42.334 -14.780   3.787  1.00  0.00     0.238 C 
BRANCH   8   9
HETATM    9  N   UNL     1      41.559 -14.513   2.494  1.00  0.00    -0.061 N 
HETATM   10  H   UNL     1      41.776 -15.308   1.877  1.00  0.00     0.280 HD
HETATM   11  C   UNL     1      41.904 -13.215   1.793  1.00  0.00     0.236 C 
HETATM   12  C   UNL     1      40.811 -12.266   2.233  1.00  0.00     0.029 C 
HETATM   13  C   UNL     1      39.579 -13.139   2.163  1.00  0.00     0.029 C 
HETATM   14  C   UNL     1      40.040 -14.497   2.672  1.00  0.00     0.236 C 
ENDBRANCH   8   9
BRANCH   8  15
HETATM   15  C   UNL     1      42.989 -16.155   3.842  1.00  0.00    -0.023 A 
HETATM   16  C   UNL     1      42.790 -17.055   2.773  1.00  0.00     0.046 A 
HETATM   17  C   UNL     1      43.379 -18.321   2.787  1.00  0.00     0.068 A 
HETATM   18  C   UNL     1      44.172 -18.693   3.872  1.00  0.00     0.037 A 
HETATM   19  C   UNL     1      44.384 -17.815   4.934  1.00  0.00     0.003 A 
HETATM   20  C   UNL     1      43.799 -16.551   4.920  1.00  0.00     0.009 A 
BRANCH  17  21
HETATM   21  O   UNL     1      43.259 -19.275   1.818  1.00  0.00    -0.356 OA
HETATM   22  C   UNL     1      43.736 -20.583   2.112  1.00  0.00     0.210 C 
ENDBRANCH  17  21
ENDBRANCH   8  15
ENDBRANCH   7   8
ENDBRANCH   3   7
BRANCH   1  23
HETATM   23  C   UNL     1      41.451 -10.360   6.167  1.00  0.00     0.086 C 
HETATM   24  C   UNL     1      40.830  -9.115   5.527  1.00  0.00     0.032 C 
BRANCH  23  25
HETATM   25  C   UNL     1      42.178  -9.948   7.466  1.00  0.00     0.063 C 
BRANCH  25  26
HETATM   26  C   UNL     1      43.679 -10.109   7.409  1.00  0.00    -0.056 A 
HETATM   27  C   UNL     1      44.511  -9.301   8.200  1.00  0.00     0.010 A 
HETATM   28  C   UNL     1      45.898  -9.473   8.176  1.00  0.00     0.037 A 
HETATM   29  C   UNL     1      46.452 -10.447   7.354  1.00  0.00     0.065 A 
HETATM   30  C   UNL     1      45.647 -11.247   6.556  1.00  0.00     0.037 A 
HETATM   31  C   UNL     1      44.261 -11.084   6.587  1.00  0.00     0.010 A 
BRANCH  29  32
HETATM   32  O   UNL     1      47.798 -10.656   7.306  1.00  0.00    -0.361 OA
HETATM   33  H   UNL     1      48.199 -10.306   8.120  1.00  0.00     0.217 HD
ENDBRANCH  29  32
ENDBRANCH  25  26
ENDBRANCH  23  25
ENDBRANCH   1  23
TORSDOF 9
ENDMDL
MODEL 8
REMARK VINA RESULT:      -8.1      2.926      6.518
REMARK  9 active torsions:
REMARK  status: ('A' for Active; 'I' for Inactive)
REMARK    1  A    between atoms: C_2  and  N_3 
REMARK    2  A    between atoms: C_2  and  C_23 
REMARK       I    between atoms: N_3  and  C_4 
REMARK       I    between atoms: C_4  and  N_5 
REMARK    3  A    between atoms: N_5  and  C_6 
REMARK    4  A    between atoms: C_6  and  C_7 
REMARK    5  A    between atoms: C_7  and  N_8 
REMARK    6  A    between atoms: C_7  and  C_14 
REMARK    7  A    between atoms: C_16  and  O_17 
REMARK    8  A    between atoms: C_23  and  C_24 
REMARK    9  A    between atoms: C_27  and  O_28 
ROOT
HETATM    1  N   UNL     1      42.332 -16.221   6.447  1.00  0.00    -0.339 N 
HETATM    2  C   UNL     1      41.411 -15.510   5.767  1.00  0.00     0.316 C 
HETATM    3  N   UNL     1      41.646 -15.281   4.448  1.00  0.00    -0.341 N 
HETATM    4  O   UNL     1      40.389 -15.124   6.322  1.00  0.00    -0.248 OA
HETATM    5  H   UNL     1      42.095 -16.297   7.431  1.00  0.00     0.164 HD
HETATM    6  H   UNL     1      42.590 -15.443   4.126  1.00  0.00     0.164 HD
ENDROOT
BRANCH   3   7
HETATM    7  C   UNL     1      40.873 -14.274   3.719  1.00  0.00     0.162 C 
BRANCH   7   8
HETATM    8  C   UNL     1      41.698 -13.421   2.710  1.00  0.00     0.238 C 
BRANCH   8   9
HETATM    9  N   UNL     1      41.879 -11.983   3.203  1.00  0.00    -0.061 N 
HETATM   10  H   UNL     1      41.441 -11.391   2.484  1.00  0.00     0.280 HD
HETATM   11  C   UNL     1      43.316 -11.550   3.413  1.00  0.00     0.236 C 
HETATM   12  C   UNL     1      43.530 -11.718   4.901  1.00  0.00     0.029 C 
HETATM   13  C   UNL     1      42.236 -11.188   5.475  1.00  0.00     0.029 C 
HETATM   14  C   UNL     1      41.160 -11.683   4.519  1.00  0.00     0.236 C 
ENDBRANCH   8   9
BRANCH   8  15
HETATM   15  C   UNL     1      41.062 -13.524   1.329  1.00  0.00    -0.023 A 
HETATM   16  C   UNL     1      41.142 -12.423   0.450  1.00  0.00     0.046 A 
HETATM   17  C   UNL     1      40.575 -12.484  -0.825  1.00  0.00     0.068 A 
HETATM   18  C   UNL     1      39.923 -13.649  -1.227  1.00  0.00     0.037 A 
HETATM   19  C   UNL     1      39.838 -14.749  -0.373  1.00  0.00     0.003 A 
HETATM   20  C   UNL     1      40.406 -14.690   0.897  1.00  0.00     0.009 A 
BRANCH  17  21
HETATM   21  O   UNL     1      40.586 -11.489  -1.759  1.00  0.00    -0.356 OA
HETATM   22  C   UNL     1      40.769 -11.859  -3.121  1.00  0.00     0.210 C 
ENDBRANCH  17  21
ENDBRANCH   8  15
ENDBRANCH   7   8
ENDBRANCH   3   7
BRANCH   1  23
HETATM   23  C   UNL     1      43.648 -16.732   6.049  1.00  0.00     0.086 C 
HETATM   24  C   UNL     1      44.743 -16.108   6.919  1.00  0.00     0.032 C 
BRANCH  23  25
HETATM   25  C   UNL     1      43.719 -18.270   6.177  1.00  0.00     0.063 C 
BRANCH  25  26
HETATM   26  C   UNL     1      43.710 -19.000   4.854  1.00  0.00    -0.056 A 
HETATM   27  C   UNL     1      43.927 -20.385   4.805  1.00  0.00     0.010 A 
HETATM   28  C   UNL     1      43.882 -21.068   3.586  1.00  0.00     0.037 A 
HETATM   29  C   UNL     1      43.632 -20.362   2.415  1.00  0.00     0.065 A 
HETATM   30  C   UNL     1      43.428 -18.989   2.442  1.00  0.00     0.037 A 
HETATM   31  C   UNL     1      43.461 -18.308   3.660  1.00  0.00     0.010 A 
BRANCH  29  32
HETATM   32  O   UNL     1      43.571 -20.987   1.207  1.00  0.00    -0.361 OA
HETATM   33  H   UNL     1      42.669 -21.327   1.075  1.00  0.00     0.217 HD
ENDBRANCH  29  32
ENDBRANCH  25  26
ENDBRANCH  23  25
ENDBRANCH   1  23
TORSDOF 9
ENDMDL
MODEL 9
REMARK VINA RESULT:      -8.0      3.890      7.648
REMARK  9 active torsions:
REMARK  status: ('A' for Active; 'I' for Inactive)
REMARK    1  A    between atoms: C_2  and  N_3 
REMARK    2  A    between atoms: C_2  and  C_23 
REMARK       I    between atoms: N_3  and  C_4 
REMARK       I    between atoms: C_4  and  N_5 
REMARK    3  A    between atoms: N_5  and  C_6 
REMARK    4  A    between atoms: C_6  and  C_7 
REMARK    5  A    between atoms: C_7  and  N_8 
REMARK    6  A    between atoms: C_7  and  C_14 
REMARK    7  A    between atoms: C_16  and  O_17 
REMARK    8  A    between atoms: C_23  and  C_24 
REMARK    9  A    between atoms: C_27  and  O_28 
ROOT
HETATM    1  N   UNL     1      39.210 -14.924  -0.577  1.00  0.00    -0.339 N 
HETATM    2  C   UNL     1      40.077 -15.220   0.412  1.00  0.00     0.316 C 
HETATM    3  N   UNL     1      41.231 -14.505   0.468  1.00  0.00    -0.341 N 
HETATM    4  O   UNL     1      39.802 -16.078   1.243  1.00  0.00    -0.248 OA
HETATM    5  H   UNL     1      38.405 -15.541  -0.567  1.00  0.00     0.164 HD
HETATM    6  H   UNL     1      41.473 -13.978  -0.360  1.00  0.00     0.164 HD
ENDROOT
BRANCH   3   7
HETATM    7  C   UNL     1      42.346 -14.958   1.299  1.00  0.00     0.162 C 
BRANCH   7   8
HETATM    8  C   UNL     1      42.015 -15.107   2.814  1.00  0.00     0.238 C 
BRANCH   8   9
HETATM    9  N   UNL     1      42.338 -13.828   3.590  1.00  0.00    -0.061 N 
HETATM   10  H   UNL     1      42.844 -14.139   4.431  1.00  0.00     0.280 HD
HETATM   11  C   UNL     1      41.136 -13.000   3.995  1.00  0.00     0.236 C 
HETATM   12  C   UNL     1      41.065 -11.924   2.935  1.00  0.00     0.029 C 
HETATM   13  C   UNL     1      42.518 -11.549   2.758  1.00  0.00     0.029 C 
HETATM   14  C   UNL     1      43.269 -12.869   2.847  1.00  0.00     0.236 C 
ENDBRANCH   8   9
BRANCH   8  15
HETATM   15  C   UNL     1      42.709 -16.351   3.359  1.00  0.00    -0.023 A 
HETATM   16  C   UNL     1      42.805 -16.530   4.755  1.00  0.00     0.046 A 
HETATM   17  C   UNL     1      43.428 -17.659   5.290  1.00  0.00     0.068 A 
HETATM   18  C   UNL     1      43.960 -18.617   4.427  1.00  0.00     0.037 A 
HETATM   19  C   UNL     1      43.870 -18.460   3.044  1.00  0.00     0.003 A 
HETATM   20  C   UNL     1      43.245 -17.335   2.511  1.00  0.00     0.009 A 
BRANCH  17  21
HETATM   21  O   UNL     1      43.584 -17.941   6.616  1.00  0.00    -0.356 OA
HETATM   22  C   UNL     1      43.837 -16.855   7.500  1.00  0.00     0.210 C 
ENDBRANCH  17  21
ENDBRANCH   8  15
ENDBRANCH   7   8
ENDBRANCH   3   7
BRANCH   1  23
HETATM   23  C   UNL     1      39.320 -14.009  -1.718  1.00  0.00     0.086 C 
HETATM   24  C   UNL     1      38.638 -14.614  -2.949  1.00  0.00     0.032 C 
BRANCH  23  25
HETATM   25  C   UNL     1      38.674 -12.640  -1.408  1.00  0.00     0.063 C 
BRANCH  25  26
HETATM   26  C   UNL     1      39.664 -11.566  -1.021  1.00  0.00    -0.056 A 
HETATM   27  C   UNL     1      40.930 -11.515  -1.624  1.00  0.00     0.010 A 
HETATM   28  C   UNL     1      41.834 -10.501  -1.294  1.00  0.00     0.037 A 
HETATM   29  C   UNL     1      41.474  -9.544  -0.352  1.00  0.00     0.065 A 
HETATM   30  C   UNL     1      40.231  -9.585   0.264  1.00  0.00     0.037 A 
HETATM   31  C   UNL     1      39.323 -10.590  -0.073  1.00  0.00     0.010 A 
BRANCH  29  32
HETATM   32  O   UNL     1      42.319  -8.532  -0.007  1.00  0.00    -0.361 OA
HETATM   33  H   UNL     1      42.877  -8.829   0.731  1.00  0.00     0.217 HD
ENDBRANCH  29  32
ENDBRANCH  25  26
ENDBRANCH  23  25
ENDBRANCH   1  23
TORSDOF 9
ENDMDL
MODEL 10
REMARK VINA RESULT:      -8.0      2.546      4.103
REMARK  9 active torsions:
REMARK  status: ('A' for Active; 'I' for Inactive)
REMARK    1  A    between atoms: C_2  and  N_3 
REMARK    2  A    between atoms: C_2  and  C_23 
REMARK       I    between atoms: N_3  and  C_4 
REMARK       I    between atoms: C_4  and  N_5 
REMARK    3  A    between atoms: N_5  and  C_6 
REMARK    4  A    between atoms: C_6  and  C_7 
REMARK    5  A    between atoms: C_7  and  N_8 
REMARK    6  A    between atoms: C_7  and  C_14 
REMARK    7  A    between atoms: C_16  and  O_17 
REMARK    8  A    between atoms: C_23  and  C_24 
REMARK    9  A    between atoms: C_27  and  O_28 
ROOT
HETATM    1  N   UNL     1      41.901 -16.332   6.424  1.00  0.00    -0.339 N 
HETATM    2  C   UNL     1      40.871 -15.468   6.326  1.00  0.00     0.316 C 
HETATM    3  N   UNL     1      41.001 -14.436   5.450  1.00  0.00    -0.341 N 
HETATM    4  O   UNL     1      39.850 -15.642   6.980  1.00  0.00    -0.248 OA
HETATM    5  H   UNL     1      41.734 -17.036   7.136  1.00  0.00     0.164 HD
HETATM    6  H   UNL     1      41.936 -14.246   5.117  1.00  0.00     0.164 HD
ENDROOT
BRANCH   3   7
HETATM    7  C   UNL     1      40.085 -13.297   5.504  1.00  0.00     0.162 C 
BRANCH   7   8
HETATM    8  C   UNL     1      40.625 -11.992   4.847  1.00  0.00     0.238 C 
BRANCH   8   9
HETATM    9  N   UNL     1      40.362 -11.969   3.339  1.00  0.00    -0.061 N 
HETATM   10  H   UNL     1      41.194 -12.396   2.911  1.00  0.00     0.280 HD
HETATM   11  C   UNL     1      40.133 -10.593   2.746  1.00  0.00     0.236 C 
HETATM   12  C   UNL     1      38.627 -10.484   2.659  1.00  0.00     0.029 C 
HETATM   13  C   UNL     1      38.232 -11.858   2.169  1.00  0.00     0.029 C 
HETATM   14  C   UNL     1      39.161 -12.811   2.906  1.00  0.00     0.236 C 
ENDBRANCH   8   9
BRANCH   8  15
HETATM   15  C   UNL     1      42.093 -11.813   5.220  1.00  0.00    -0.023 A 
HETATM   16  C   UNL     1      42.443 -11.657   6.578  1.00  0.00     0.046 A 
HETATM   17  C   UNL     1      43.778 -11.497   6.957  1.00  0.00     0.068 A 
HETATM   18  C   UNL     1      44.769 -11.492   5.977  1.00  0.00     0.037 A 
HETATM   19  C   UNL     1      44.442 -11.650   4.631  1.00  0.00     0.003 A 
HETATM   20  C   UNL     1      43.111 -11.813   4.252  1.00  0.00     0.009 A 
BRANCH  17  21
HETATM   21  O   UNL     1      44.239 -11.336   8.232  1.00  0.00    -0.356 OA
HETATM   22  C   UNL     1      45.522 -10.747   8.403  1.00  0.00     0.210 C 
ENDBRANCH  17  21
ENDBRANCH   8  15
ENDBRANCH   7   8
ENDBRANCH   3   7
BRANCH   1  23
HETATM   23  C   UNL     1      43.237 -16.318   5.819  1.00  0.00     0.086 C 
HETATM   24  C   UNL     1      44.123 -15.281   6.516  1.00  0.00     0.032 C 
BRANCH  23  25
HETATM   25  C   UNL     1      43.916 -17.703   5.915  1.00  0.00     0.063 C 
BRANCH  25  26
HETATM   26  C   UNL     1      43.751 -18.556   4.678  1.00  0.00    -0.056 A 
HETATM   27  C   UNL     1      43.361 -17.975   3.461  1.00  0.00     0.010 A 
HETATM   28  C   UNL     1      43.244 -18.756   2.308  1.00  0.00     0.037 A 
HETATM   29  C   UNL     1      43.507 -20.119   2.375  1.00  0.00     0.065 A 
HETATM   30  C   UNL     1      43.882 -20.713   3.572  1.00  0.00     0.037 A 
HETATM   31  C   UNL     1      44.010 -19.933   4.722  1.00  0.00     0.010 A 
BRANCH  29  32
HETATM   32  O   UNL     1      43.415 -20.917   1.274  1.00  0.00    -0.361 OA
HETATM   33  H   UNL     1      42.784 -20.518   0.650  1.00  0.00     0.217 HD
ENDBRANCH  29  32
ENDBRANCH  25  26
ENDBRANCH  23  25
ENDBRANCH   1  23
TORSDOF 9
ENDMDL
