MODEL 1
REMARK VINA RESULT:      -8.1      0.000      0.000
REMARK  9 active torsions:
REMARK  status: ('A' for Active; 'I' for Inactive)
REMARK    1  A    between atoms: C_3  and  C_4 
REMARK       I    between atoms: C_4  and  N_5 
REMARK    2  A    between atoms: N_5  and  N_6 
REMARK    3  A    between atoms: N_6  and  C_7 
REMARK    4  A    between atoms: C_7  and  N_8 
REMARK    5  A    between atoms: N_8  and  C_9 
REMARK    6  A    between atoms: C_9  and  C_10 
REMARK    7  A    between atoms: C_18  and  C_19 
REMARK    8  A    between atoms: C_19  and  O_20 
REMARK    9  A    between atoms: O_20  and  C_21 
ROOT
HETATM    1  C   UNL     1      43.842 -17.353   5.412  1.00  0.00     0.069 A 
HETATM    2  C   UNL     1      43.598 -16.894   4.116  1.00  0.00     0.038 A 
HETATM    3  C   UNL     1      43.532 -17.798   3.049  1.00  0.00     0.025 A 
HETATM    4  C   UNL     1      43.712 -19.167   3.271  1.00  0.00     0.044 A 
HETATM    5  C   UNL     1      43.643 -20.089   2.176  1.00  0.00     0.099 C 
HETATM    6  N   UNL     1      43.583 -20.830   1.283  1.00  0.00    -0.191 NA
HETATM    7  C   UNL     1      43.957 -19.627   4.566  1.00  0.00     0.025 A 
HETATM    8  C   UNL     1      44.020 -18.722   5.629  1.00  0.00     0.038 A 
ENDROOT
BRANCH   1   9
HETATM    9  O   UNL     1      43.926 -16.580   6.538  1.00  0.00    -0.347 OA
BRANCH   9  10
HETATM   10  C   UNL     1      42.694 -16.195   7.140  1.00  0.00     0.214 C 
BRANCH  10  11
HETATM   11  C   UNL     1      42.383 -14.763   6.782  1.00  0.00    -0.033 A 
HETATM   12  C   UNL     1      41.098 -14.407   6.335  1.00  0.00     0.026 A 
HETATM   13  C   UNL     1      40.839 -13.110   5.880  1.00  0.00     0.034 A 
HETATM   14  C   UNL     1      41.848 -12.139   5.970  1.00  0.00     0.017 A 
HETATM   15  C   UNL     1      43.108 -12.469   6.466  1.00  0.00     0.002 A 
HETATM   16  C   UNL     1      43.379 -13.778   6.859  1.00  0.00     0.009 A 
BRANCH  13  17
HETATM   17  C   UNL     1      39.525 -12.676   5.339  1.00  0.00     0.270 C 
HETATM   18  N   UNL     1      39.228 -12.728   3.993  1.00  0.00    -0.264 N 
HETATM   19  H   UNL     1      38.328 -12.327   3.733  1.00  0.00     0.190 HD
HETATM   20  O   UNL     1      38.683 -12.232   6.121  1.00  0.00    -0.266 OA
BRANCH  18  21
HETATM   21  N   UNL     1      40.112 -12.969   2.937  1.00  0.00    -0.274 N 
HETATM   22  H   UNL     1      40.621 -12.181   2.533  1.00  0.00     0.189 HD
BRANCH  21  23
HETATM   23  C   UNL     1      39.909 -14.039   2.098  1.00  0.00     0.186 C 
HETATM   24  S   UNL     1      40.083 -15.650   2.507  1.00  0.00    -0.040 SA
BRANCH  23  25
HETATM   25  N   UNL     1      39.592 -13.732   0.803  1.00  0.00    -0.364 N 
HETATM   26  H   UNL     1      40.027 -14.350   0.126  1.00  0.00     0.162 HD
BRANCH  25  27
HETATM   27  C   UNL     1      39.138 -12.432   0.320  1.00  0.00     0.154 C 
BRANCH  27  28
HETATM   28  C   UNL     1      39.033 -12.318  -1.207  1.00  0.00     0.139 C 
HETATM   29  O   UNL     1      37.964 -13.155  -1.697  1.00  0.00    -0.384 OA
HETATM   30  C   UNL     1      38.489 -13.977  -2.750  1.00  0.00     0.168 C 
HETATM   31  C   UNL     1      39.976 -14.079  -2.503  1.00  0.00     0.029 C 
HETATM   32  C   UNL     1      40.300 -12.712  -1.955  1.00  0.00     0.035 C 
ENDBRANCH  27  28
ENDBRANCH  25  27
ENDBRANCH  23  25
ENDBRANCH  21  23
ENDBRANCH  18  21
ENDBRANCH  13  17
ENDBRANCH  10  11
ENDBRANCH   9  10
ENDBRANCH   1   9
TORSDOF 9
ENDMDL
MODEL 2
REMARK VINA RESULT:      -7.9      4.754      5.924
REMARK  9 active torsions:
REMARK  status: ('A' for Active; 'I' for Inactive)
REMARK    1  A    between atoms: C_3  and  C_4 
REMARK       I    between atoms: C_4  and  N_5 
REMARK    2  A    between atoms: N_5  and  N_6 
REMARK    3  A    between atoms: N_6  and  C_7 
REMARK    4  A    between atoms: C_7  and  N_8 
REMARK    5  A    between atoms: N_8  and  C_9 
REMARK    6  A    between atoms: C_9  and  C_10 
REMARK    7  A    between atoms: C_18  and  C_19 
REMARK    8  A    between atoms: C_19  and  O_20 
REMARK    9  A    between atoms: O_20  and  C_21 
ROOT
HETATM    1  C   UNL     1      43.696 -16.995   5.183  1.00  0.00     0.069 A 
HETATM    2  C   UNL     1      43.400 -16.683   3.854  1.00  0.00     0.038 A 
HETATM    3  C   UNL     1      43.394 -17.687   2.878  1.00  0.00     0.025 A 
HETATM    4  C   UNL     1      43.686 -19.010   3.225  1.00  0.00     0.044 A 
HETATM    5  C   UNL     1      43.677 -20.035   2.223  1.00  0.00     0.099 C 
HETATM    6  N   UNL     1      43.666 -20.859   1.405  1.00  0.00    -0.191 NA
HETATM    7  C   UNL     1      43.983 -19.324   4.553  1.00  0.00     0.025 A 
HETATM    8  C   UNL     1      43.986 -18.319   5.524  1.00  0.00     0.038 A 
ENDROOT
BRANCH   1   9
HETATM    9  O   UNL     1      43.732 -16.114   6.229  1.00  0.00    -0.347 OA
BRANCH   9  10
HETATM   10  C   UNL     1      42.702 -15.131   6.269  1.00  0.00     0.214 C 
BRANCH  10  11
HETATM   11  C   UNL     1      43.290 -13.773   5.974  1.00  0.00    -0.033 A 
HETATM   12  C   UNL     1      44.108 -13.134   6.922  1.00  0.00     0.026 A 
HETATM   13  C   UNL     1      44.549 -11.823   6.710  1.00  0.00     0.034 A 
HETATM   14  C   UNL     1      44.251 -11.190   5.494  1.00  0.00     0.017 A 
HETATM   15  C   UNL     1      43.488 -11.838   4.524  1.00  0.00     0.002 A 
HETATM   16  C   UNL     1      42.998 -13.119   4.768  1.00  0.00     0.009 A 
BRANCH  13  17
HETATM   17  C   UNL     1      45.367 -11.063   7.690  1.00  0.00     0.270 C 
HETATM   18  N   UNL     1      44.871 -10.668   8.914  1.00  0.00    -0.264 N 
HETATM   19  H   UNL     1      45.497 -10.082   9.466  1.00  0.00     0.190 HD
HETATM   20  O   UNL     1      46.520 -10.756   7.383  1.00  0.00    -0.266 OA
BRANCH  18  21
HETATM   21  N   UNL     1      43.542 -10.708   9.347  1.00  0.00    -0.274 N 
HETATM   22  H   UNL     1      43.067 -11.612   9.388  1.00  0.00     0.189 HD
BRANCH  21  23
HETATM   23  C   UNL     1      42.727  -9.615   9.175  1.00  0.00     0.186 C 
HETATM   24  S   UNL     1      42.806  -8.189  10.045  1.00  0.00    -0.040 SA
BRANCH  23  25
HETATM   25  N   UNL     1      41.734  -9.749   8.245  1.00  0.00    -0.364 N 
HETATM   26  H   UNL     1      41.920 -10.472   7.559  1.00  0.00     0.162 HD
BRANCH  25  27
HETATM   27  C   UNL     1      40.761  -8.723   7.881  1.00  0.00     0.154 C 
BRANCH  27  28
HETATM   28  C   UNL     1      39.893  -9.068   6.663  1.00  0.00     0.139 C 
HETATM   29  O   UNL     1      38.694  -9.752   7.082  1.00  0.00    -0.384 OA
HETATM   30  C   UNL     1      38.575 -10.956   6.311  1.00  0.00     0.168 C 
HETATM   31  C   UNL     1      39.974 -11.308   5.862  1.00  0.00     0.029 C 
HETATM   32  C   UNL     1      40.583  -9.949   5.630  1.00  0.00     0.035 C 
ENDBRANCH  27  28
ENDBRANCH  25  27
ENDBRANCH  23  25
ENDBRANCH  21  23
ENDBRANCH  18  21
ENDBRANCH  13  17
ENDBRANCH  10  11
ENDBRANCH   9  10
ENDBRANCH   1   9
TORSDOF 9
ENDMDL
MODEL 3
REMARK VINA RESULT:      -7.8      5.093      7.845
REMARK  9 active torsions:
REMARK  status: ('A' for Active; 'I' for Inactive)
REMARK    1  A    between atoms: C_3  and  C_4 
REMARK       I    between atoms: C_4  and  N_5 
REMARK    2  A    between atoms: N_5  and  N_6 
REMARK    3  A    between atoms: N_6  and  C_7 
REMARK    4  A    between atoms: C_7  and  N_8 
REMARK    5  A    between atoms: N_8  and  C_9 
REMARK    6  A    between atoms: C_9  and  C_10 
REMARK    7  A    between atoms: C_18  and  C_19 
REMARK    8  A    between atoms: C_19  and  O_20 
REMARK    9  A    between atoms: O_20  and  C_21 
ROOT
HETATM    1  C   UNL     1      43.710 -17.032   5.132  1.00  0.00     0.069 A 
HETATM    2  C   UNL     1      43.326 -16.722   3.825  1.00  0.00     0.038 A 
HETATM    3  C   UNL     1      43.307 -17.718   2.842  1.00  0.00     0.025 A 
HETATM    4  C   UNL     1      43.673 -19.030   3.158  1.00  0.00     0.044 A 
HETATM    5  C   UNL     1      43.649 -20.047   2.148  1.00  0.00     0.099 C 
HETATM    6  N   UNL     1      43.626 -20.865   1.324  1.00  0.00    -0.191 NA
HETATM    7  C   UNL     1      44.057 -19.342   4.464  1.00  0.00     0.025 A 
HETATM    8  C   UNL     1      44.073 -18.345   5.443  1.00  0.00     0.038 A 
ENDROOT
BRANCH   1   9
HETATM    9  O   UNL     1      43.768 -16.158   6.184  1.00  0.00    -0.347 OA
BRANCH   9  10
HETATM   10  C   UNL     1      42.712 -15.207   6.280  1.00  0.00     0.214 C 
BRANCH  10  11
HETATM   11  C   UNL     1      43.248 -13.827   5.992  1.00  0.00    -0.033 A 
HETATM   12  C   UNL     1      44.038 -13.160   6.945  1.00  0.00     0.026 A 
HETATM   13  C   UNL     1      44.430 -11.833   6.739  1.00  0.00     0.034 A 
HETATM   14  C   UNL     1      44.112 -11.207   5.525  1.00  0.00     0.017 A 
HETATM   15  C   UNL     1      43.378 -11.881   4.549  1.00  0.00     0.002 A 
HETATM   16  C   UNL     1      42.937 -13.180   4.787  1.00  0.00     0.009 A 
BRANCH  13  17
HETATM   17  C   UNL     1      45.214 -11.045   7.726  1.00  0.00     0.270 C 
HETATM   18  N   UNL     1      44.643 -10.505   8.858  1.00  0.00    -0.264 N 
HETATM   19  H   UNL     1      45.262  -9.917   9.416  1.00  0.00     0.190 HD
HETATM   20  O   UNL     1      46.410 -10.849   7.506  1.00  0.00    -0.266 OA
BRANCH  18  21
HETATM   21  N   UNL     1      43.281 -10.412   9.163  1.00  0.00    -0.274 N 
HETATM   22  H   UNL     1      42.608 -10.380   8.395  1.00  0.00     0.189 HD
BRANCH  21  23
HETATM   23  C   UNL     1      42.875  -9.821  10.335  1.00  0.00     0.186 C 
HETATM   24  S   UNL     1      43.808  -8.830  11.306  1.00  0.00    -0.040 SA
BRANCH  23  25
HETATM   25  N   UNL     1      41.612 -10.131  10.756  1.00  0.00    -0.364 N 
HETATM   26  H   UNL     1      40.969 -10.322   9.994  1.00  0.00     0.162 HD
BRANCH  25  27
HETATM   27  C   UNL     1      41.026  -9.766  12.042  1.00  0.00     0.154 C 
BRANCH  27  28
HETATM   28  C   UNL     1      39.667  -9.058  11.948  1.00  0.00     0.139 C 
HETATM   29  O   UNL     1      39.159  -9.131  10.600  1.00  0.00    -0.384 OA
HETATM   30  C   UNL     1      38.805  -7.803  10.185  1.00  0.00     0.168 C 
HETATM   31  C   UNL     1      39.637  -6.864  11.026  1.00  0.00     0.029 C 
HETATM   32  C   UNL     1      39.696  -7.588  12.346  1.00  0.00     0.035 C 
ENDBRANCH  27  28
ENDBRANCH  25  27
ENDBRANCH  23  25
ENDBRANCH  21  23
ENDBRANCH  18  21
ENDBRANCH  13  17
ENDBRANCH  10  11
ENDBRANCH   9  10
ENDBRANCH   1   9
TORSDOF 9
ENDMDL
MODEL 4
REMARK VINA RESULT:      -7.8      5.776      9.225
REMARK  9 active torsions:
REMARK  status: ('A' for Active; 'I' for Inactive)
REMARK    1  A    between atoms: C_3  and  C_4 
REMARK       I    between atoms: C_4  and  N_5 
REMARK    2  A    between atoms: N_5  and  N_6 
REMARK    3  A    between atoms: N_6  and  C_7 
REMARK    4  A    between atoms: C_7  and  N_8 
REMARK    5  A    between atoms: N_8  and  C_9 
REMARK    6  A    between atoms: C_9  and  C_10 
REMARK    7  A    between atoms: C_18  and  C_19 
REMARK    8  A    between atoms: C_19  and  O_20 
REMARK    9  A    between atoms: O_20  and  C_21 
ROOT
HETATM    1  C   UNL     1      43.548 -16.334   4.586  1.00  0.00     0.069 A 
HETATM    2  C   UNL     1      42.926 -16.352   3.335  1.00  0.00     0.038 A 
HETATM    3  C   UNL     1      42.938 -17.517   2.560  1.00  0.00     0.025 A 
HETATM    4  C   UNL     1      43.573 -18.671   3.029  1.00  0.00     0.044 A 
HETATM    5  C   UNL     1      43.581 -19.863   2.232  1.00  0.00     0.099 C 
HETATM    6  N   UNL     1      43.581 -20.824   1.580  1.00  0.00    -0.191 NA
HETATM    7  C   UNL     1      44.195 -18.655   4.279  1.00  0.00     0.025 A 
HETATM    8  C   UNL     1      44.179 -17.490   5.051  1.00  0.00     0.038 A 
ENDROOT
BRANCH   1   9
HETATM    9  O   UNL     1      43.605 -15.267   5.442  1.00  0.00    -0.347 OA
BRANCH   9  10
HETATM   10  C   UNL     1      42.365 -14.651   5.776  1.00  0.00     0.214 C 
BRANCH  10  11
HETATM   11  C   UNL     1      42.581 -13.177   6.016  1.00  0.00    -0.033 A 
HETATM   12  C   UNL     1      43.657 -12.739   6.808  1.00  0.00     0.026 A 
HETATM   13  C   UNL     1      43.788 -11.387   7.140  1.00  0.00     0.034 A 
HETATM   14  C   UNL     1      42.894 -10.457   6.590  1.00  0.00     0.017 A 
HETATM   15  C   UNL     1      41.858 -10.877   5.756  1.00  0.00     0.002 A 
HETATM   16  C   UNL     1      41.695 -12.232   5.480  1.00  0.00     0.009 A 
BRANCH  13  17
HETATM   17  C   UNL     1      44.863 -10.857   8.020  1.00  0.00     0.270 C 
HETATM   18  N   UNL     1      44.692 -10.697   9.378  1.00  0.00    -0.264 N 
HETATM   19  H   UNL     1      45.469 -10.249   9.862  1.00  0.00     0.190 HD
HETATM   20  O   UNL     1      45.934 -10.528   7.508  1.00  0.00    -0.266 OA
BRANCH  18  21
HETATM   21  N   UNL     1      43.497 -10.784  10.101  1.00  0.00    -0.274 N 
HETATM   22  H   UNL     1      42.760 -11.401   9.756  1.00  0.00     0.189 HD
BRANCH  21  23
HETATM   23  C   UNL     1      43.077  -9.725  10.869  1.00  0.00     0.186 C 
HETATM   24  S   UNL     1      43.080  -8.119  10.407  1.00  0.00    -0.040 SA
BRANCH  23  25
HETATM   25  N   UNL     1      42.680 -10.030  12.142  1.00  0.00    -0.364 N 
HETATM   26  H   UNL     1      42.841 -11.000  12.393  1.00  0.00     0.162 HD
BRANCH  25  27
HETATM   27  C   UNL     1      41.690  -9.297  12.925  1.00  0.00     0.154 C 
BRANCH  27  28
HETATM   28  C   UNL     1      42.207  -8.758  14.266  1.00  0.00     0.139 C 
HETATM   29  O   UNL     1      41.109  -8.555  15.180  1.00  0.00    -0.384 OA
HETATM   30  C   UNL     1      41.200  -7.219  15.696  1.00  0.00     0.168 C 
HETATM   31  C   UNL     1      41.974  -6.424  14.671  1.00  0.00     0.029 C 
HETATM   32  C   UNL     1      42.964  -7.441  14.163  1.00  0.00     0.035 C 
ENDBRANCH  27  28
ENDBRANCH  25  27
ENDBRANCH  23  25
ENDBRANCH  21  23
ENDBRANCH  18  21
ENDBRANCH  13  17
ENDBRANCH  10  11
ENDBRANCH   9  10
ENDBRANCH   1   9
TORSDOF 9
ENDMDL
MODEL 5
REMARK VINA RESULT:      -7.8      4.686      8.091
REMARK  9 active torsions:
REMARK  status: ('A' for Active; 'I' for Inactive)
REMARK    1  A    between atoms: C_3  and  C_4 
REMARK       I    between atoms: C_4  and  N_5 
REMARK    2  A    between atoms: N_5  and  N_6 
REMARK    3  A    between atoms: N_6  and  C_7 
REMARK    4  A    between atoms: C_7  and  N_8 
REMARK    5  A    between atoms: N_8  and  C_9 
REMARK    6  A    between atoms: C_9  and  C_10 
REMARK    7  A    between atoms: C_18  and  C_19 
REMARK    8  A    between atoms: C_19  and  O_20 
REMARK    9  A    between atoms: O_20  and  C_21 
ROOT
HETATM    1  C   UNL     1      43.584 -16.500   4.614  1.00  0.00     0.069 A 
HETATM    2  C   UNL     1      42.951 -16.485   3.370  1.00  0.00     0.038 A 
HETATM    3  C   UNL     1      42.976 -17.623   2.553  1.00  0.00     0.025 A 
HETATM    4  C   UNL     1      43.634 -18.781   2.976  1.00  0.00     0.044 A 
HETATM    5  C   UNL     1      43.655 -19.944   2.138  1.00  0.00     0.099 C 
HETATM    6  N   UNL     1      43.665 -20.882   1.453  1.00  0.00    -0.191 NA
HETATM    7  C   UNL     1      44.267 -18.797   4.220  1.00  0.00     0.025 A 
HETATM    8  C   UNL     1      44.240 -17.661   5.033  1.00  0.00     0.038 A 
ENDROOT
BRANCH   1   9
HETATM    9  O   UNL     1      43.632 -15.463   5.507  1.00  0.00    -0.347 OA
BRANCH   9  10
HETATM   10  C   UNL     1      42.454 -14.671   5.625  1.00  0.00     0.214 C 
BRANCH  10  11
HETATM   11  C   UNL     1      42.818 -13.299   6.139  1.00  0.00    -0.033 A 
HETATM   12  C   UNL     1      41.938 -12.218   5.955  1.00  0.00     0.026 A 
HETATM   13  C   UNL     1      42.323 -10.922   6.312  1.00  0.00     0.034 A 
HETATM   14  C   UNL     1      43.557 -10.726   6.951  1.00  0.00     0.017 A 
HETATM   15  C   UNL     1      44.411 -11.802   7.189  1.00  0.00     0.002 A 
HETATM   16  C   UNL     1      44.049 -13.081   6.773  1.00  0.00     0.009 A 
BRANCH  13  17
HETATM   17  C   UNL     1      41.473  -9.722   6.095  1.00  0.00     0.270 C 
HETATM   18  N   UNL     1      40.677  -9.194   7.088  1.00  0.00    -0.264 N 
HETATM   19  H   UNL     1      40.078  -8.422   6.797  1.00  0.00     0.190 HD
HETATM   20  O   UNL     1      41.465  -9.201   4.979  1.00  0.00    -0.266 OA
BRANCH  18  21
HETATM   21  N   UNL     1      40.368  -9.767   8.326  1.00  0.00    -0.274 N 
HETATM   22  H   UNL     1      39.583 -10.419   8.382  1.00  0.00     0.189 HD
BRANCH  21  23
HETATM   23  C   UNL     1      40.675  -9.103   9.489  1.00  0.00     0.186 C 
HETATM   24  S   UNL     1      40.374  -7.489   9.804  1.00  0.00    -0.040 SA
BRANCH  23  25
HETATM   25  N   UNL     1      41.338  -9.833  10.437  1.00  0.00    -0.364 N 
HETATM   26  H   UNL     1      40.719 -10.351  11.052  1.00  0.00     0.162 HD
BRANCH  25  27
HETATM   27  C   UNL     1      42.691  -9.575  10.921  1.00  0.00     0.154 C 
BRANCH  27  28
HETATM   28  C   UNL     1      42.827  -9.537  12.449  1.00  0.00     0.139 C 
HETATM   29  O   UNL     1      41.582  -9.919  13.071  1.00  0.00    -0.384 OA
HETATM   30  C   UNL     1      41.235  -8.911  14.032  1.00  0.00     0.168 C 
HETATM   31  C   UNL     1      41.928  -7.646  13.581  1.00  0.00     0.029 C 
HETATM   32  C   UNL     1      43.218  -8.176  13.011  1.00  0.00     0.035 C 
ENDBRANCH  27  28
ENDBRANCH  25  27
ENDBRANCH  23  25
ENDBRANCH  21  23
ENDBRANCH  18  21
ENDBRANCH  13  17
ENDBRANCH  10  11
ENDBRANCH   9  10
ENDBRANCH   1   9
TORSDOF 9
ENDMDL
MODEL 6
REMARK VINA RESULT:      -7.8      3.476      8.314
REMARK  9 active torsions:
REMARK  status: ('A' for Active; 'I' for Inactive)
REMARK    1  A    between atoms: C_3  and  C_4 
REMARK       I    between atoms: C_4  and  N_5 
REMARK    2  A    between atoms: N_5  and  N_6 
REMARK    3  A    between atoms: N_6  and  C_7 
REMARK    4  A    between atoms: C_7  and  N_8 
REMARK    5  A    between atoms: N_8  and  C_9 
REMARK    6  A    between atoms: C_9  and  C_10 
REMARK    7  A    between atoms: C_18  and  C_19 
REMARK    8  A    between atoms: C_19  and  O_20 
REMARK    9  A    between atoms: O_20  and  C_21 
ROOT
HETATM    1  C   UNL     1      40.521 -14.452   0.345  1.00  0.00     0.069 A 
HETATM    2  C   UNL     1      40.957 -13.129   0.439  1.00  0.00     0.038 A 
HETATM    3  C   UNL     1      40.545 -12.182  -0.507  1.00  0.00     0.025 A 
HETATM    4  C   UNL     1      39.695 -12.554  -1.553  1.00  0.00     0.044 A 
HETATM    5  C   UNL     1      39.274 -11.581  -2.518  1.00  0.00     0.099 C 
HETATM    6  N   UNL     1      38.937 -10.786  -3.294  1.00  0.00    -0.191 NA
HETATM    7  C   UNL     1      39.259 -13.876  -1.649  1.00  0.00     0.025 A 
HETATM    8  C   UNL     1      39.671 -14.818  -0.702  1.00  0.00     0.038 A 
ENDROOT
BRANCH   1   9
HETATM    9  O   UNL     1      40.844 -15.470   1.201  1.00  0.00    -0.347 OA
BRANCH   9  10
HETATM   10  C   UNL     1      42.232 -15.728   1.388  1.00  0.00     0.214 C 
BRANCH  10  11
HETATM   11  C   UNL     1      42.462 -16.279   2.774  1.00  0.00    -0.033 A 
HETATM   12  C   UNL     1      41.797 -15.718   3.878  1.00  0.00     0.026 A 
HETATM   13  C   UNL     1      42.101 -16.137   5.177  1.00  0.00     0.034 A 
HETATM   14  C   UNL     1      43.003 -17.196   5.361  1.00  0.00     0.017 A 
HETATM   15  C   UNL     1      43.624 -17.797   4.267  1.00  0.00     0.002 A 
HETATM   16  C   UNL     1      43.364 -17.332   2.980  1.00  0.00     0.009 A 
BRANCH  13  17
HETATM   17  C   UNL     1      41.484 -15.551   6.396  1.00  0.00     0.270 C 
HETATM   18  N   UNL     1      42.110 -14.577   7.144  1.00  0.00    -0.264 N 
HETATM   19  H   UNL     1      41.627 -14.312   8.001  1.00  0.00     0.190 HD
HETATM   20  O   UNL     1      40.385 -15.971   6.759  1.00  0.00    -0.266 OA
BRANCH  18  21
HETATM   21  N   UNL     1      43.437 -14.145   7.038  1.00  0.00    -0.274 N 
HETATM   22  H   UNL     1      44.115 -14.472   7.728  1.00  0.00     0.189 HD
BRANCH  21  23
HETATM   23  C   UNL     1      43.724 -12.940   6.444  1.00  0.00     0.186 C 
HETATM   24  S   UNL     1      42.742 -12.120   5.368  1.00  0.00    -0.040 SA
BRANCH  23  25
HETATM   25  N   UNL     1      44.952 -12.410   6.729  1.00  0.00    -0.364 N 
HETATM   26  H   UNL     1      45.539 -13.027   7.281  1.00  0.00     0.162 HD
BRANCH  25  27
HETATM   27  C   UNL     1      45.287 -10.989   6.742  1.00  0.00     0.154 C 
BRANCH  27  28
HETATM   28  C   UNL     1      45.948 -10.500   8.038  1.00  0.00     0.139 C 
HETATM   29  O   UNL     1      45.300 -11.091   9.184  1.00  0.00    -0.384 OA
HETATM   30  C   UNL     1      44.949 -10.036  10.091  1.00  0.00     0.168 C 
HETATM   31  C   UNL     1      44.836  -8.783   9.254  1.00  0.00     0.029 C 
HETATM   32  C   UNL     1      45.919  -8.989   8.227  1.00  0.00     0.035 C 
ENDBRANCH  27  28
ENDBRANCH  25  27
ENDBRANCH  23  25
ENDBRANCH  21  23
ENDBRANCH  18  21
ENDBRANCH  13  17
ENDBRANCH  10  11
ENDBRANCH   9  10
ENDBRANCH   1   9
TORSDOF 9
ENDMDL
MODEL 7
REMARK VINA RESULT:      -7.7      4.490      7.554
REMARK  9 active torsions:
REMARK  status: ('A' for Active; 'I' for Inactive)
REMARK    1  A    between atoms: C_3  and  C_4 
REMARK       I    between atoms: C_4  and  N_5 
REMARK    2  A    between atoms: N_5  and  N_6 
REMARK    3  A    between atoms: N_6  and  C_7 
REMARK    4  A    between atoms: C_7  and  N_8 
REMARK    5  A    between atoms: N_8  and  C_9 
REMARK    6  A    between atoms: C_9  and  C_10 
REMARK    7  A    between atoms: C_18  and  C_19 
REMARK    8  A    between atoms: C_19  and  O_20 
REMARK    9  A    between atoms: O_20  and  C_21 
ROOT
HETATM    1  C   UNL     1      42.810 -15.341   3.104  1.00  0.00     0.069 A 
HETATM    2  C   UNL     1      42.932 -15.818   1.797  1.00  0.00     0.038 A 
HETATM    3  C   UNL     1      43.147 -17.181   1.561  1.00  0.00     0.025 A 
HETATM    4  C   UNL     1      43.242 -18.076   2.631  1.00  0.00     0.044 A 
HETATM    5  C   UNL     1      43.461 -19.471   2.385  1.00  0.00     0.099 C 
HETATM    6  N   UNL     1      43.636 -20.600   2.176  1.00  0.00    -0.191 NA
HETATM    7  C   UNL     1      43.121 -17.601   3.938  1.00  0.00     0.025 A 
HETATM    8  C   UNL     1      42.904 -16.240   4.169  1.00  0.00     0.038 A 
ENDROOT
BRANCH   1   9
HETATM    9  O   UNL     1      42.595 -14.040   3.470  1.00  0.00    -0.347 OA
BRANCH   9  10
HETATM   10  C   UNL     1      41.671 -13.822   4.532  1.00  0.00     0.214 C 
BRANCH  10  11
HETATM   11  C   UNL     1      42.273 -12.873   5.539  1.00  0.00    -0.033 A 
HETATM   12  C   UNL     1      41.667 -11.629   5.789  1.00  0.00     0.026 A 
HETATM   13  C   UNL     1      42.288 -10.693   6.623  1.00  0.00     0.034 A 
HETATM   14  C   UNL     1      43.471 -11.047   7.287  1.00  0.00     0.017 A 
HETATM   15  C   UNL     1      44.049 -12.300   7.089  1.00  0.00     0.002 A 
HETATM   16  C   UNL     1      43.459 -13.204   6.209  1.00  0.00     0.009 A 
BRANCH  13  17
HETATM   17  C   UNL     1      41.739  -9.337   6.888  1.00  0.00     0.270 C 
HETATM   18  N   UNL     1      41.181  -8.993   8.101  1.00  0.00    -0.264 N 
HETATM   19  H   UNL     1      40.765  -8.062   8.137  1.00  0.00     0.190 HD
HETATM   20  O   UNL     1      41.764  -8.504   5.982  1.00  0.00    -0.266 OA
BRANCH  18  21
HETATM   21  N   UNL     1      40.847  -9.847   9.157  1.00  0.00    -0.274 N 
HETATM   22  H   UNL     1      40.125 -10.554   9.006  1.00  0.00     0.189 HD
BRANCH  21  23
HETATM   23  C   UNL     1      41.014  -9.434  10.457  1.00  0.00     0.186 C 
HETATM   24  S   UNL     1      40.305  -8.092  11.157  1.00  0.00    -0.040 SA
BRANCH  23  25
HETATM   25  N   UNL     1      41.888 -10.169  11.210  1.00  0.00    -0.364 N 
HETATM   26  H   UNL     1      41.634 -10.214  12.191  1.00  0.00     0.162 HD
BRANCH  25  27
HETATM   27  C   UNL     1      43.280 -10.450  10.871  1.00  0.00     0.154 C 
BRANCH  27  28
HETATM   28  C   UNL     1      44.164  -9.206  10.713  1.00  0.00     0.139 C 
HETATM   29  O   UNL     1      43.660  -8.366   9.653  1.00  0.00    -0.384 OA
HETATM   30  C   UNL     1      44.744  -8.077   8.759  1.00  0.00     0.168 C 
HETATM   31  C   UNL     1      45.739  -9.202   8.928  1.00  0.00     0.029 C 
HETATM   32  C   UNL     1      45.623  -9.508  10.399  1.00  0.00     0.035 C 
ENDBRANCH  27  28
ENDBRANCH  25  27
ENDBRANCH  23  25
ENDBRANCH  21  23
ENDBRANCH  18  21
ENDBRANCH  13  17
ENDBRANCH  10  11
ENDBRANCH   9  10
ENDBRANCH   1   9
TORSDOF 9
ENDMDL
MODEL 8
REMARK VINA RESULT:      -7.6      4.557      7.939
REMARK  9 active torsions:
REMARK  status: ('A' for Active; 'I' for Inactive)
REMARK    1  A    between atoms: C_3  and  C_4 
REMARK       I    between atoms: C_4  and  N_5 
REMARK    2  A    between atoms: N_5  and  N_6 
REMARK    3  A    between atoms: N_6  and  C_7 
REMARK    4  A    between atoms: C_7  and  N_8 
REMARK    5  A    between atoms: N_8  and  C_9 
REMARK    6  A    between atoms: C_9  and  C_10 
REMARK    7  A    between atoms: C_18  and  C_19 
REMARK    8  A    between atoms: C_19  and  O_20 
REMARK    9  A    between atoms: O_20  and  C_21 
ROOT
HETATM    1  C   UNL     1      43.092 -15.408   3.249  1.00  0.00     0.069 A 
HETATM    2  C   UNL     1      43.049 -15.862   1.929  1.00  0.00     0.038 A 
HETATM    3  C   UNL     1      43.180 -17.228   1.649  1.00  0.00     0.025 A 
HETATM    4  C   UNL     1      43.356 -18.148   2.688  1.00  0.00     0.044 A 
HETATM    5  C   UNL     1      43.488 -19.545   2.397  1.00  0.00     0.099 C 
HETATM    6  N   UNL     1      43.592 -20.676   2.152  1.00  0.00    -0.191 NA
HETATM    7  C   UNL     1      43.399 -17.695   4.008  1.00  0.00     0.025 A 
HETATM    8  C   UNL     1      43.266 -16.331   4.283  1.00  0.00     0.038 A 
ENDROOT
BRANCH   1   9
HETATM    9  O   UNL     1      42.973 -14.107   3.657  1.00  0.00    -0.347 OA
BRANCH   9  10
HETATM   10  C   UNL     1      43.003 -13.876   5.062  1.00  0.00     0.214 C 
BRANCH  10  11
HETATM   11  C   UNL     1      41.871 -12.956   5.447  1.00  0.00    -0.033 A 
HETATM   12  C   UNL     1      42.143 -11.687   5.988  1.00  0.00     0.026 A 
HETATM   13  C   UNL     1      41.104 -10.881   6.466  1.00  0.00     0.034 A 
HETATM   14  C   UNL     1      39.778 -11.310   6.306  1.00  0.00     0.017 A 
HETATM   15  C   UNL     1      39.496 -12.543   5.719  1.00  0.00     0.002 A 
HETATM   16  C   UNL     1      40.539 -13.367   5.303  1.00  0.00     0.009 A 
BRANCH  13  17
HETATM   17  C   UNL     1      41.317  -9.556   7.103  1.00  0.00     0.270 C 
HETATM   18  N   UNL     1      42.168  -9.381   8.173  1.00  0.00    -0.264 N 
HETATM   19  H   UNL     1      42.170  -8.444   8.576  1.00  0.00     0.190 HD
HETATM   20  O   UNL     1      40.691  -8.587   6.671  1.00  0.00    -0.266 OA
BRANCH  18  21
HETATM   21  N   UNL     1      42.776 -10.374   8.947  1.00  0.00    -0.274 N 
HETATM   22  H   UNL     1      42.191 -10.944   9.561  1.00  0.00     0.189 HD
BRANCH  21  23
HETATM   23  C   UNL     1      44.090 -10.244   9.329  1.00  0.00     0.186 C 
HETATM   24  S   UNL     1      45.420 -10.407   8.330  1.00  0.00    -0.040 SA
BRANCH  23  25
HETATM   25  N   UNL     1      44.307 -10.018  10.660  1.00  0.00    -0.364 N 
HETATM   26  H   UNL     1      45.252  -9.713  10.868  1.00  0.00     0.162 HD
BRANCH  25  27
HETATM   27  C   UNL     1      43.538 -10.591  11.760  1.00  0.00     0.154 C 
BRANCH  27  28
HETATM   28  C   UNL     1      42.470  -9.659  12.348  1.00  0.00     0.139 C 
HETATM   29  O   UNL     1      41.441  -9.398  11.370  1.00  0.00    -0.384 OA
HETATM   30  C   UNL     1      41.264  -7.977  11.276  1.00  0.00     0.168 C 
HETATM   31  C   UNL     1      42.566  -7.361  11.733  1.00  0.00     0.029 C 
HETATM   32  C   UNL     1      43.003  -8.311  12.818  1.00  0.00     0.035 C 
ENDBRANCH  27  28
ENDBRANCH  25  27
ENDBRANCH  23  25
ENDBRANCH  21  23
ENDBRANCH  18  21
ENDBRANCH  13  17
ENDBRANCH  10  11
ENDBRANCH   9  10
ENDBRANCH   1   9
TORSDOF 9
ENDMDL
MODEL 9
REMARK VINA RESULT:      -7.6     10.273     13.919
REMARK  9 active torsions:
REMARK  status: ('A' for Active; 'I' for Inactive)
REMARK    1  A    between atoms: C_3  and  C_4 
REMARK       I    between atoms: C_4  and  N_5 
REMARK    2  A    between atoms: N_5  and  N_6 
REMARK    3  A    between atoms: N_6  and  C_7 
REMARK    4  A    between atoms: C_7  and  N_8 
REMARK    5  A    between atoms: N_8  and  C_9 
REMARK    6  A    between atoms: C_9  and  C_10 
REMARK    7  A    between atoms: C_18  and  C_19 
REMARK    8  A    between atoms: C_19  and  O_20 
REMARK    9  A    between atoms: O_20  and  C_21 
ROOT
HETATM    1  C   UNL     1      40.951  -6.627  17.855  1.00  0.00     0.069 A 
HETATM    2  C   UNL     1      40.256  -7.836  17.921  1.00  0.00     0.038 A 
HETATM    3  C   UNL     1      39.729  -8.281  19.140  1.00  0.00     0.025 A 
HETATM    4  C   UNL     1      39.896  -7.520  20.301  1.00  0.00     0.044 A 
HETATM    5  C   UNL     1      39.353  -7.978  21.546  1.00  0.00     0.099 C 
HETATM    6  N   UNL     1      38.909  -8.356  22.550  1.00  0.00    -0.191 NA
HETATM    7  C   UNL     1      40.591  -6.311  20.237  1.00  0.00     0.025 A 
HETATM    8  C   UNL     1      41.114  -5.869  19.018  1.00  0.00     0.038 A 
ENDROOT
BRANCH   1   9
HETATM    9  O   UNL     1      41.509  -6.078  16.733  1.00  0.00    -0.347 OA
BRANCH   9  10
HETATM   10  C   UNL     1      40.715  -6.100  15.551  1.00  0.00     0.214 C 
BRANCH  10  11
HETATM   11  C   UNL     1      41.192  -7.205  14.641  1.00  0.00    -0.033 A 
HETATM   12  C   UNL     1      40.275  -8.126  14.105  1.00  0.00     0.026 A 
HETATM   13  C   UNL     1      40.724  -9.227  13.367  1.00  0.00     0.034 A 
HETATM   14  C   UNL     1      42.092  -9.346  13.082  1.00  0.00     0.017 A 
HETATM   15  C   UNL     1      43.003  -8.406  13.562  1.00  0.00     0.002 A 
HETATM   16  C   UNL     1      42.556  -7.347  14.349  1.00  0.00     0.009 A 
BRANCH  13  17
HETATM   17  C   UNL     1      39.822 -10.272  12.819  1.00  0.00     0.270 C 
HETATM   18  N   UNL     1      39.255 -10.174  11.567  1.00  0.00    -0.264 N 
HETATM   19  H   UNL     1      38.590 -10.911  11.333  1.00  0.00     0.190 HD
HETATM   20  O   UNL     1      39.555 -11.248  13.523  1.00  0.00    -0.266 OA
BRANCH  18  21
HETATM   21  N   UNL     1      39.241  -9.057  10.725  1.00  0.00    -0.274 N 
HETATM   22  H   UNL     1      38.410  -8.462  10.713  1.00  0.00     0.189 HD
BRANCH  21  23
HETATM   23  C   UNL     1      39.995  -9.049   9.576  1.00  0.00     0.186 C 
HETATM   24  S   UNL     1      39.538  -9.691   8.102  1.00  0.00    -0.040 SA
BRANCH  23  25
HETATM   25  N   UNL     1      41.249  -8.516   9.687  1.00  0.00    -0.364 N 
HETATM   26  H   UNL     1      41.301  -7.545   9.398  1.00  0.00     0.162 HD
BRANCH  25  27
HETATM   27  C   UNL     1      42.498  -9.271   9.707  1.00  0.00     0.154 C 
BRANCH  27  28
HETATM   28  C   UNL     1      43.356  -9.120   8.442  1.00  0.00     0.139 C 
HETATM   29  O   UNL     1      43.789 -10.415   7.975  1.00  0.00    -0.384 OA
HETATM   30  C   UNL     1      45.211 -10.370   7.791  1.00  0.00     0.168 C 
HETATM   31  C   UNL     1      45.718  -9.272   8.697  1.00  0.00     0.029 C 
HETATM   32  C   UNL     1      44.601  -8.262   8.626  1.00  0.00     0.035 C 
ENDBRANCH  27  28
ENDBRANCH  25  27
ENDBRANCH  23  25
ENDBRANCH  21  23
ENDBRANCH  18  21
ENDBRANCH  13  17
ENDBRANCH  10  11
ENDBRANCH   9  10
ENDBRANCH   1   9
TORSDOF 9
ENDMDL
MODEL 10
REMARK VINA RESULT:      -7.5      2.513      3.336
REMARK  9 active torsions:
REMARK  status: ('A' for Active; 'I' for Inactive)
REMARK    1  A    between atoms: C_3  and  C_4 
REMARK       I    between atoms: C_4  and  N_5 
REMARK    2  A    between atoms: N_5  and  N_6 
REMARK    3  A    between atoms: N_6  and  C_7 
REMARK    4  A    between atoms: C_7  and  N_8 
REMARK    5  A    between atoms: N_8  and  C_9 
REMARK    6  A    between atoms: C_9  and  C_10 
REMARK    7  A    between atoms: C_18  and  C_19 
REMARK    8  A    between atoms: C_19  and  O_20 
REMARK    9  A    between atoms: O_20  and  C_21 
ROOT
HETATM    1  C   UNL     1      43.219 -15.762   3.849  1.00  0.00     0.069 A 
HETATM    2  C   UNL     1      42.967 -15.988   2.494  1.00  0.00     0.038 A 
HETATM    3  C   UNL     1      43.070 -17.279   1.964  1.00  0.00     0.025 A 
HETATM    4  C   UNL     1      43.427 -18.353   2.785  1.00  0.00     0.044 A 
HETATM    5  C   UNL     1      43.529 -19.674   2.238  1.00  0.00     0.099 C 
HETATM    6  N   UNL     1      43.609 -20.741   1.787  1.00  0.00    -0.191 NA
HETATM    7  C   UNL     1      43.679 -18.129   4.140  1.00  0.00     0.025 A 
HETATM    8  C   UNL     1      43.574 -16.839   4.666  1.00  0.00     0.038 A 
ENDROOT
BRANCH   1   9
HETATM    9  O   UNL     1      43.150 -14.556   4.492  1.00  0.00    -0.347 OA
BRANCH   9  10
HETATM   10  C   UNL     1      41.859 -14.138   4.926  1.00  0.00     0.214 C 
BRANCH  10  11
HETATM   11  C   UNL     1      41.454 -12.890   4.181  1.00  0.00    -0.033 A 
HETATM   12  C   UNL     1      40.277 -12.875   3.411  1.00  0.00     0.026 A 
HETATM   13  C   UNL     1      39.964 -11.767   2.617  1.00  0.00     0.034 A 
HETATM   14  C   UNL     1      40.784 -10.631   2.674  1.00  0.00     0.017 A 
HETATM   15  C   UNL     1      41.922 -10.616   3.478  1.00  0.00     0.002 A 
HETATM   16  C   UNL     1      42.263 -11.746   4.219  1.00  0.00     0.009 A 
BRANCH  13  17
HETATM   17  C   UNL     1      38.771 -11.701   1.733  1.00  0.00     0.270 C 
HETATM   18  N   UNL     1      38.534 -12.630   0.743  1.00  0.00    -0.264 N 
HETATM   19  H   UNL     1      37.729 -12.434   0.149  1.00  0.00     0.190 HD
HETATM   20  O   UNL     1      37.981 -10.767   1.879  1.00  0.00    -0.266 OA
BRANCH  18  21
HETATM   21  N   UNL     1      39.413 -13.610   0.268  1.00  0.00    -0.274 N 
HETATM   22  H   UNL     1      40.104 -14.001   0.911  1.00  0.00     0.189 HD
BRANCH  21  23
HETATM   23  C   UNL     1      39.748 -13.648  -1.064  1.00  0.00     0.186 C 
HETATM   24  S   UNL     1      38.833 -14.330  -2.285  1.00  0.00    -0.040 SA
BRANCH  23  25
HETATM   25  N   UNL     1      40.971 -13.127  -1.388  1.00  0.00    -0.364 N 
HETATM   26  H   UNL     1      41.737 -13.548  -0.874  1.00  0.00     0.162 HD
BRANCH  25  27
HETATM   27  C   UNL     1      41.209 -11.813  -1.977  1.00  0.00     0.154 C 
BRANCH  27  28
HETATM   28  C   UNL     1      41.140 -10.645  -0.984  1.00  0.00     0.139 C 
HETATM   29  O   UNL     1      39.801 -10.109  -0.935  1.00  0.00    -0.384 OA
HETATM   30  C   UNL     1      39.882  -8.690  -1.130  1.00  0.00     0.168 C 
HETATM   31  C   UNL     1      41.168  -8.441  -1.883  1.00  0.00     0.029 C 
HETATM   32  C   UNL     1      42.081  -9.491  -1.305  1.00  0.00     0.035 C 
ENDBRANCH  27  28
ENDBRANCH  25  27
ENDBRANCH  23  25
ENDBRANCH  21  23
ENDBRANCH  18  21
ENDBRANCH  13  17
ENDBRANCH  10  11
ENDBRANCH   9  10
ENDBRANCH   1   9
TORSDOF 9
ENDMDL
