MODEL 1
REMARK VINA RESULT:      -8.3      0.000      0.000
REMARK  8 active torsions:
REMARK  status: ('A' for Active; 'I' for Inactive)
REMARK    1  A    between atoms: C_4  and  C_5 
REMARK    2  A    between atoms: C_11  and  C_12 
REMARK    3  A    between atoms: C_12  and  C_13 
REMARK       I    between atoms: C_13  and  N_14 
REMARK    4  A    between atoms: N_14  and  C_15 
REMARK    5  A    between atoms: C_20  and  C_21 
REMARK       I    between atoms: C_21  and  N_22 
REMARK    6  A    between atoms: N_22  and  C_23 
REMARK    7  A    between atoms: C_23  and  C_24 
REMARK    8  A    between atoms: C_24  and  O_25 
ROOT
HETATM    1  C   UNL     1      43.534 -12.579   6.624  1.00  0.00     0.228 C 
HETATM    2  N   UNL     1      43.593 -11.236   6.949  1.00  0.00    -0.325 N 
HETATM    3  O   UNL     1      43.732 -13.519   7.391  1.00  0.00    -0.273 OA
HETATM    4  H   UNL     1      43.399 -10.579   6.190  1.00  0.00     0.169 HD
ENDROOT
BRANCH   2   5
HETATM    5  C   UNL     1      43.933 -10.642   8.187  1.00  0.00     0.057 A 
HETATM    6  C   UNL     1      45.293 -10.416   8.470  1.00  0.00     0.060 A 
HETATM    7 CL   UNL     1      46.528 -10.855   7.338  1.00  0.00    -0.082 Cl
HETATM    8  C   UNL     1      45.685  -9.824   9.671  1.00  0.00     0.027 A 
HETATM    9  C   UNL     1      44.721  -9.452  10.607  1.00  0.00     0.019 A 
HETATM   10  C   UNL     1      43.359  -9.672  10.352  1.00  0.00     0.034 A 
HETATM   11  C   UNL     1      42.977 -10.277   9.144  1.00  0.00     0.048 A 
BRANCH  10  12
HETATM   12  C   UNL     1      42.379  -9.269  11.408  1.00  0.00     0.251 C 
HETATM   13  N   UNL     1      41.854 -10.261  12.209  1.00  0.00    -0.355 N 
HETATM   14  H   UNL     1      41.938 -11.233  11.941  1.00  0.00     0.162 HD
HETATM   15  O   UNL     1      42.060  -8.089  11.526  1.00  0.00    -0.268 OA
BRANCH  13  16
HETATM   16  C   UNL     1      40.808  -9.982  13.178  1.00  0.00     0.149 C 
BRANCH  16  17
HETATM   17  C   UNL     1      39.452 -10.499  12.698  1.00  0.00     0.186 C 
BRANCH  17  18
HETATM   18  O   UNL     1      39.140 -11.697  13.421  1.00  0.00    -0.394 OA
HETATM   19  C   UNL     1      38.400 -12.611  12.624  1.00  0.00     0.201 C 
ENDBRANCH  17  18
ENDBRANCH  16  17
ENDBRANCH  13  16
ENDBRANCH  10  12
ENDBRANCH   2   5
BRANCH   1  20
HETATM   20  C   UNL     1      43.108 -12.832   5.186  1.00  0.00     0.165 C 
BRANCH  20  21
HETATM   21  C   UNL     1      42.606 -14.216   5.009  1.00  0.00     0.075 A 
HETATM   22  C   UNL     1      41.430 -14.794   5.431  1.00  0.00     0.077 A 
HETATM   23  C   UNL     1      40.242 -14.327   6.165  1.00  0.00     0.079 C 
HETATM   24  O   UNL     1      41.449 -16.104   5.050  1.00  0.00    -0.292 OA
HETATM   25  C   UNL     1      42.655 -16.272   4.411  1.00  0.00     0.204 A 
HETATM   26  N   UNL     1      43.376 -15.161   4.359  1.00  0.00    -0.224 NA
BRANCH  25  27
HETATM   27  C   UNL     1      43.091 -17.529   3.877  1.00  0.00     0.128 A 
HETATM   28  O   UNL     1      43.710 -18.493   4.636  1.00  0.00    -0.318 OA
HETATM   29  C   UNL     1      44.000 -19.538   3.823  1.00  0.00     0.142 A 
HETATM   30  C   UNL     1      43.579 -19.283   2.541  1.00  0.00     0.027 A 
HETATM   31  C   UNL     1      42.994 -17.994   2.574  1.00  0.00     0.043 A 
ENDBRANCH  25  27
ENDBRANCH  20  21
ENDBRANCH   1  20
TORSDOF 8
ENDMDL
MODEL 2
REMARK VINA RESULT:      -7.7      6.897     10.475
REMARK  8 active torsions:
REMARK  status: ('A' for Active; 'I' for Inactive)
REMARK    1  A    between atoms: C_4  and  C_5 
REMARK    2  A    between atoms: C_11  and  C_12 
REMARK    3  A    between atoms: C_12  and  C_13 
REMARK       I    between atoms: C_13  and  N_14 
REMARK    4  A    between atoms: N_14  and  C_15 
REMARK    5  A    between atoms: C_20  and  C_21 
REMARK       I    between atoms: C_21  and  N_22 
REMARK    6  A    between atoms: N_22  and  C_23 
REMARK    7  A    between atoms: C_23  and  C_24 
REMARK    8  A    between atoms: C_24  and  O_25 
ROOT
HETATM    1  C   UNL     1      40.106 -14.378  -0.905  1.00  0.00     0.228 C 
HETATM    2  N   UNL     1      40.980 -13.868   0.039  1.00  0.00    -0.325 N 
HETATM    3  O   UNL     1      39.305 -15.295  -0.729  1.00  0.00    -0.273 OA
HETATM    4  H   UNL     1      41.581 -13.102  -0.272  1.00  0.00     0.169 HD
ENDROOT
BRANCH   2   5
HETATM    5  C   UNL     1      41.189 -14.296   1.370  1.00  0.00     0.057 A 
HETATM    6  C   UNL     1      40.456 -13.671   2.397  1.00  0.00     0.060 A 
HETATM    7 CL   UNL     1      39.326 -12.406   2.049  1.00  0.00    -0.082 Cl
HETATM    8  C   UNL     1      40.615 -14.060   3.727  1.00  0.00     0.027 A 
HETATM    9  C   UNL     1      41.511 -15.078   4.049  1.00  0.00     0.019 A 
HETATM   10  C   UNL     1      42.259 -15.712   3.045  1.00  0.00     0.034 A 
HETATM   11  C   UNL     1      42.097 -15.306   1.711  1.00  0.00     0.048 A 
BRANCH  10  12
HETATM   12  C   UNL     1      43.219 -16.782   3.462  1.00  0.00     0.251 C 
HETATM   13  N   UNL     1      43.408 -17.844   2.604  1.00  0.00    -0.355 N 
HETATM   14  H   UNL     1      42.756 -18.015   1.850  1.00  0.00     0.162 HD
HETATM   15  O   UNL     1      43.794 -16.697   4.543  1.00  0.00    -0.268 OA
BRANCH  13  16
HETATM   16  C   UNL     1      44.226 -18.985   2.975  1.00  0.00     0.149 C 
BRANCH  16  17
HETATM   17  C   UNL     1      43.681 -20.280   2.374  1.00  0.00     0.186 C 
BRANCH  17  18
HETATM   18  O   UNL     1      43.832 -21.330   3.339  1.00  0.00    -0.394 OA
HETATM   19  C   UNL     1      44.069 -20.812   4.641  1.00  0.00     0.201 C 
ENDBRANCH  17  18
ENDBRANCH  16  17
ENDBRANCH  13  16
ENDBRANCH  10  12
ENDBRANCH   2   5
BRANCH   1  20
HETATM   20  C   UNL     1      40.152 -13.637  -2.232  1.00  0.00     0.165 C 
BRANCH  20  21
HETATM   21  C   UNL     1      40.122 -12.168  -2.028  1.00  0.00     0.075 A 
HETATM   22  C   UNL     1      39.069 -11.338  -1.715  1.00  0.00     0.077 A 
HETATM   23  C   UNL     1      37.633 -11.527  -1.447  1.00  0.00     0.079 C 
HETATM   24  O   UNL     1      39.545 -10.060  -1.669  1.00  0.00    -0.292 OA
HETATM   25  C   UNL     1      40.884 -10.167  -1.967  1.00  0.00     0.204 A 
HETATM   26  N   UNL     1      41.271 -11.417  -2.182  1.00  0.00    -0.224 NA
BRANCH  25  27
HETATM   27  C   UNL     1      41.760  -9.036  -2.056  1.00  0.00     0.128 A 
HETATM   28  O   UNL     1      42.763  -8.791  -1.149  1.00  0.00    -0.318 OA
HETATM   29  C   UNL     1      43.384  -7.643  -1.518  1.00  0.00     0.142 A 
HETATM   30  C   UNL     1      42.811  -7.130  -2.656  1.00  0.00     0.027 A 
HETATM   31  C   UNL     1      41.769  -8.023  -3.003  1.00  0.00     0.043 A 
ENDBRANCH  25  27
ENDBRANCH  20  21
ENDBRANCH   1  20
TORSDOF 8
ENDMDL
MODEL 3
REMARK VINA RESULT:      -7.6      2.931      9.897
REMARK  8 active torsions:
REMARK  status: ('A' for Active; 'I' for Inactive)
REMARK    1  A    between atoms: C_4  and  C_5 
REMARK    2  A    between atoms: C_11  and  C_12 
REMARK    3  A    between atoms: C_12  and  C_13 
REMARK       I    between atoms: C_13  and  N_14 
REMARK    4  A    between atoms: N_14  and  C_15 
REMARK    5  A    between atoms: C_20  and  C_21 
REMARK       I    between atoms: C_21  and  N_22 
REMARK    6  A    between atoms: N_22  and  C_23 
REMARK    7  A    between atoms: C_23  and  C_24 
REMARK    8  A    between atoms: C_24  and  O_25 
ROOT
HETATM    1  C   UNL     1      41.183 -11.746   5.304  1.00  0.00     0.228 C 
HETATM    2  N   UNL     1      41.715 -12.359   4.183  1.00  0.00    -0.325 N 
HETATM    3  O   UNL     1      40.430 -12.267   6.125  1.00  0.00    -0.273 OA
HETATM    4  H   UNL     1      42.328 -11.783   3.602  1.00  0.00     0.169 HD
ENDROOT
BRANCH   2   5
HETATM    5  C   UNL     1      41.489 -13.670   3.703  1.00  0.00     0.057 A 
HETATM    6  C   UNL     1      40.316 -13.920   2.966  1.00  0.00     0.060 A 
HETATM    7 CL   UNL     1      39.169 -12.660   2.653  1.00  0.00    -0.082 Cl
HETATM    8  C   UNL     1      40.047 -15.192   2.460  1.00  0.00     0.027 A 
HETATM    9  C   UNL     1      40.947 -16.232   2.686  1.00  0.00     0.019 A 
HETATM   10  C   UNL     1      42.120 -16.011   3.424  1.00  0.00     0.034 A 
HETATM   11  C   UNL     1      42.376 -14.729   3.936  1.00  0.00     0.048 A 
BRANCH  10  12
HETATM   12  C   UNL     1      43.031 -17.176   3.648  1.00  0.00     0.251 C 
HETATM   13  N   UNL     1      43.470 -17.870   2.541  1.00  0.00    -0.355 N 
HETATM   14  H   UNL     1      43.010 -17.752   1.648  1.00  0.00     0.162 HD
HETATM   15  O   UNL     1      43.350 -17.490   4.792  1.00  0.00    -0.268 OA
BRANCH  13  16
HETATM   16  C   UNL     1      44.258 -19.084   2.667  1.00  0.00     0.149 C 
BRANCH  16  17
HETATM   17  C   UNL     1      43.398 -20.330   2.457  1.00  0.00     0.186 C 
BRANCH  17  18
HETATM   18  O   UNL     1      43.913 -21.384   3.282  1.00  0.00    -0.394 OA
HETATM   19  C   UNL     1      43.890 -21.028   4.658  1.00  0.00     0.201 C 
ENDBRANCH  17  18
ENDBRANCH  16  17
ENDBRANCH  13  16
ENDBRANCH  10  12
ENDBRANCH   2   5
BRANCH   1  20
HETATM   20  C   UNL     1      41.681 -10.324   5.505  1.00  0.00     0.165 C 
BRANCH  20  21
HETATM   21  C   UNL     1      42.545 -10.221   6.706  1.00  0.00     0.075 A 
HETATM   22  C   UNL     1      43.811 -10.711   6.932  1.00  0.00     0.077 A 
HETATM   23  C   UNL     1      44.793 -11.472   6.141  1.00  0.00     0.079 C 
HETATM   24  O   UNL     1      44.163 -10.383   8.209  1.00  0.00    -0.292 OA
HETATM   25  C   UNL     1      43.080  -9.704   8.715  1.00  0.00     0.204 A 
HETATM   26  N   UNL     1      42.089  -9.580   7.842  1.00  0.00    -0.224 NA
BRANCH  25  27
HETATM   27  C   UNL     1      43.024  -9.204  10.057  1.00  0.00     0.128 A 
HETATM   28  O   UNL     1      41.861  -8.781  10.653  1.00  0.00    -0.318 OA
HETATM   29  C   UNL     1      42.165  -8.361  11.906  1.00  0.00     0.142 A 
HETATM   30  C   UNL     1      43.509  -8.503  12.148  1.00  0.00     0.027 A 
HETATM   31  C   UNL     1      44.062  -9.045  10.963  1.00  0.00     0.043 A 
ENDBRANCH  25  27
ENDBRANCH  20  21
ENDBRANCH   1  20
TORSDOF 8
ENDMDL
MODEL 4
REMARK VINA RESULT:      -7.6      5.702      9.134
REMARK  8 active torsions:
REMARK  status: ('A' for Active; 'I' for Inactive)
REMARK    1  A    between atoms: C_4  and  C_5 
REMARK    2  A    between atoms: C_11  and  C_12 
REMARK    3  A    between atoms: C_12  and  C_13 
REMARK       I    between atoms: C_13  and  N_14 
REMARK    4  A    between atoms: N_14  and  C_15 
REMARK    5  A    between atoms: C_20  and  C_21 
REMARK       I    between atoms: C_21  and  N_22 
REMARK    6  A    between atoms: N_22  and  C_23 
REMARK    7  A    between atoms: C_23  and  C_24 
REMARK    8  A    between atoms: C_24  and  O_25 
ROOT
HETATM    1  C   UNL     1      41.881 -13.550   3.720  1.00  0.00     0.228 C 
HETATM    2  N   UNL     1      42.149 -13.984   2.434  1.00  0.00    -0.325 N 
HETATM    3  O   UNL     1      40.860 -12.973   4.092  1.00  0.00    -0.273 OA
HETATM    4  H   UNL     1      43.048 -14.449   2.293  1.00  0.00     0.169 HD
ENDROOT
BRANCH   2   5
HETATM    5  C   UNL     1      41.362 -13.829   1.269  1.00  0.00     0.057 A 
HETATM    6  C   UNL     1      40.547 -14.903   0.864  1.00  0.00     0.060 A 
HETATM    7 CL   UNL     1      40.505 -16.383   1.761  1.00  0.00    -0.082 Cl
HETATM    8  C   UNL     1      39.743 -14.802  -0.272  1.00  0.00     0.027 A 
HETATM    9  C   UNL     1      39.746 -13.625  -1.020  1.00  0.00     0.019 A 
HETATM   10  C   UNL     1      40.554 -12.542  -0.641  1.00  0.00     0.034 A 
HETATM   11  C   UNL     1      41.365 -12.659   0.498  1.00  0.00     0.048 A 
BRANCH  10  12
HETATM   12  C   UNL     1      40.525 -11.318  -1.500  1.00  0.00     0.251 C 
HETATM   13  N   UNL     1      41.351 -10.270  -1.153  1.00  0.00    -0.355 N 
HETATM   14  H   UNL     1      41.772 -10.234  -0.234  1.00  0.00     0.162 HD
HETATM   15  O   UNL     1      39.771 -11.269  -2.468  1.00  0.00    -0.268 OA
BRANCH  13  16
HETATM   16  C   UNL     1      41.304  -8.999  -1.854  1.00  0.00     0.149 C 
BRANCH  16  17
HETATM   17  C   UNL     1      41.851  -7.865  -0.988  1.00  0.00     0.186 C 
BRANCH  17  18
HETATM   18  O   UNL     1      43.281  -7.862  -1.093  1.00  0.00    -0.394 OA
HETATM   19  C   UNL     1      43.751  -6.720  -1.796  1.00  0.00     0.201 C 
ENDBRANCH  17  18
ENDBRANCH  16  17
ENDBRANCH  13  16
ENDBRANCH  10  12
ENDBRANCH   2   5
BRANCH   1  20
HETATM   20  C   UNL     1      42.965 -13.923   4.719  1.00  0.00     0.165 C 
BRANCH  20  21
HETATM   21  C   UNL     1      43.018 -15.389   4.933  1.00  0.00     0.075 A 
HETATM   22  C   UNL     1      42.961 -16.118   6.099  1.00  0.00     0.077 A 
HETATM   23  C   UNL     1      42.815 -15.792   7.528  1.00  0.00     0.079 C 
HETATM   24  O   UNL     1      43.084 -17.437   5.773  1.00  0.00    -0.292 OA
HETATM   25  C   UNL     1      43.220 -17.455   4.405  1.00  0.00     0.204 A 
HETATM   26  N   UNL     1      43.179 -16.246   3.861  1.00  0.00    -0.224 NA
BRANCH  25  27
HETATM   27  C   UNL     1      43.408 -18.660   3.651  1.00  0.00     0.128 A 
HETATM   28  O   UNL     1      43.886 -19.824   4.203  1.00  0.00    -0.318 OA
HETATM   29  C   UNL     1      43.954 -20.753   3.218  1.00  0.00     0.142 A 
HETATM   30  C   UNL     1      43.526 -20.223   2.026  1.00  0.00     0.027 A 
HETATM   31  C   UNL     1      43.174 -18.880   2.302  1.00  0.00     0.043 A 
ENDBRANCH  25  27
ENDBRANCH  20  21
ENDBRANCH   1  20
TORSDOF 8
ENDMDL
MODEL 5
REMARK VINA RESULT:      -7.5      3.382      5.005
REMARK  8 active torsions:
REMARK  status: ('A' for Active; 'I' for Inactive)
REMARK    1  A    between atoms: C_4  and  C_5 
REMARK    2  A    between atoms: C_11  and  C_12 
REMARK    3  A    between atoms: C_12  and  C_13 
REMARK       I    between atoms: C_13  and  N_14 
REMARK    4  A    between atoms: N_14  and  C_15 
REMARK    5  A    between atoms: C_20  and  C_21 
REMARK       I    between atoms: C_21  and  N_22 
REMARK    6  A    between atoms: N_22  and  C_23 
REMARK    7  A    between atoms: C_23  and  C_24 
REMARK    8  A    between atoms: C_24  and  O_25 
ROOT
HETATM    1  C   UNL     1      40.778 -14.883   5.652  1.00  0.00     0.228 C 
HETATM    2  N   UNL     1      41.829 -14.119   5.177  1.00  0.00    -0.325 N 
HETATM    3  O   UNL     1      39.980 -14.552   6.527  1.00  0.00    -0.273 OA
HETATM    4  H   UNL     1      42.399 -14.544   4.443  1.00  0.00     0.169 HD
ENDROOT
BRANCH   2   5
HETATM    5  C   UNL     1      42.254 -12.840   5.604  1.00  0.00     0.057 A 
HETATM    6  C   UNL     1      41.902 -11.722   4.824  1.00  0.00     0.060 A 
HETATM    7 CL   UNL     1      40.976 -11.900   3.371  1.00  0.00    -0.082 Cl
HETATM    8  C   UNL     1      42.286 -10.436   5.203  1.00  0.00     0.027 A 
HETATM    9  C   UNL     1      43.029 -10.250   6.369  1.00  0.00     0.019 A 
HETATM   10  C   UNL     1      43.398 -11.348   7.160  1.00  0.00     0.034 A 
HETATM   11  C   UNL     1      43.014 -12.638   6.764  1.00  0.00     0.048 A 
BRANCH  10  12
HETATM   12  C   UNL     1      44.214 -11.080   8.386  1.00  0.00     0.251 C 
HETATM   13  N   UNL     1      43.542 -10.762   9.547  1.00  0.00    -0.355 N 
HETATM   14  H   UNL     1      42.569 -10.487   9.516  1.00  0.00     0.162 HD
HETATM   15  O   UNL     1      45.439 -11.134   8.327  1.00  0.00    -0.268 OA
BRANCH  13  16
HETATM   16  C   UNL     1      44.251 -10.369  10.752  1.00  0.00     0.149 C 
BRANCH  16  17
HETATM   17  C   UNL     1      43.853  -8.963  11.199  1.00  0.00     0.186 C 
BRANCH  17  18
HETATM   18  O   UNL     1      42.512  -9.009  11.707  1.00  0.00    -0.394 OA
HETATM   19  C   UNL     1      42.425  -9.810  12.878  1.00  0.00     0.201 C 
ENDBRANCH  17  18
ENDBRANCH  16  17
ENDBRANCH  13  16
ENDBRANCH  10  12
ENDBRANCH   2   5
BRANCH   1  20
HETATM   20  C   UNL     1      40.619 -16.208   4.923  1.00  0.00     0.165 C 
BRANCH  20  21
HETATM   21  C   UNL     1      40.940 -16.071   3.482  1.00  0.00     0.075 A 
HETATM   22  C   UNL     1      41.949 -16.641   2.739  1.00  0.00     0.077 A 
HETATM   23  C   UNL     1      43.051 -17.577   3.019  1.00  0.00     0.079 C 
HETATM   24  O   UNL     1      41.840 -16.176   1.461  1.00  0.00    -0.292 OA
HETATM   25  C   UNL     1      40.760 -15.325   1.482  1.00  0.00     0.204 A 
HETATM   26  N   UNL     1      40.188 -15.239   2.675  1.00  0.00    -0.224 NA
BRANCH  25  27
HETATM   27  C   UNL     1      40.317 -14.591   0.332  1.00  0.00     0.128 A 
HETATM   28  O   UNL     1      39.478 -15.120  -0.618  1.00  0.00    -0.318 OA
HETATM   29  C   UNL     1      39.274 -14.172  -1.566  1.00  0.00     0.142 A 
HETATM   30  C   UNL     1      39.962 -13.025  -1.255  1.00  0.00     0.027 A 
HETATM   31  C   UNL     1      40.631 -13.292  -0.036  1.00  0.00     0.043 A 
ENDBRANCH  25  27
ENDBRANCH  20  21
ENDBRANCH   1  20
TORSDOF 8
ENDMDL
MODEL 6
REMARK VINA RESULT:      -7.4      5.391      8.579
REMARK  8 active torsions:
REMARK  status: ('A' for Active; 'I' for Inactive)
REMARK    1  A    between atoms: C_4  and  C_5 
REMARK    2  A    between atoms: C_11  and  C_12 
REMARK    3  A    between atoms: C_12  and  C_13 
REMARK       I    between atoms: C_13  and  N_14 
REMARK    4  A    between atoms: N_14  and  C_15 
REMARK    5  A    between atoms: C_20  and  C_21 
REMARK       I    between atoms: C_21  and  N_22 
REMARK    6  A    between atoms: N_22  and  C_23 
REMARK    7  A    between atoms: C_23  and  C_24 
REMARK    8  A    between atoms: C_24  and  O_25 
ROOT
HETATM    1  C   UNL     1      41.610 -13.588   4.439  1.00  0.00     0.228 C 
HETATM    2  N   UNL     1      41.532 -12.424   3.696  1.00  0.00    -0.325 N 
HETATM    3  O   UNL     1      40.663 -14.296   4.778  1.00  0.00    -0.273 OA
HETATM    4  H   UNL     1      42.419 -11.954   3.499  1.00  0.00     0.169 HD
ENDROOT
BRANCH   2   5
HETATM    5  C   UNL     1      40.380 -11.764   3.208  1.00  0.00     0.057 A 
HETATM    6  C   UNL     1      39.751 -10.815   4.036  1.00  0.00     0.060 A 
HETATM    7 CL   UNL     1      40.361 -10.461   5.617  1.00  0.00    -0.082 Cl
HETATM    8  C   UNL     1      38.618 -10.128   3.602  1.00  0.00     0.027 A 
HETATM    9  C   UNL     1      38.097 -10.381   2.333  1.00  0.00     0.019 A 
HETATM   10  C   UNL     1      38.702 -11.326   1.491  1.00  0.00     0.034 A 
HETATM   11  C   UNL     1      39.836 -12.019   1.943  1.00  0.00     0.048 A 
BRANCH  10  12
HETATM   12  C   UNL     1      38.079 -11.566   0.152  1.00  0.00     0.251 C 
HETATM   13  N   UNL     1      38.390 -12.740  -0.500  1.00  0.00    -0.355 N 
HETATM   14  H   UNL     1      39.182 -13.295  -0.203  1.00  0.00     0.162 HD
HETATM   15  O   UNL     1      37.331 -10.721  -0.333  1.00  0.00    -0.268 OA
BRANCH  13  16
HETATM   16  C   UNL     1      37.931 -13.004  -1.853  1.00  0.00     0.149 C 
BRANCH  16  17
HETATM   17  C   UNL     1      39.029 -12.724  -2.878  1.00  0.00     0.186 C 
BRANCH  17  18
HETATM   18  O   UNL     1      39.277 -13.926  -3.619  1.00  0.00    -0.394 OA
HETATM   19  C   UNL     1      38.162 -14.806  -3.575  1.00  0.00     0.201 C 
ENDBRANCH  17  18
ENDBRANCH  16  17
ENDBRANCH  13  16
ENDBRANCH  10  12
ENDBRANCH   2   5
BRANCH   1  20
HETATM   20  C   UNL     1      43.038 -14.000   4.764  1.00  0.00     0.165 C 
BRANCH  20  21
HETATM   21  C   UNL     1      43.142 -15.466   4.965  1.00  0.00     0.075 A 
HETATM   22  C   UNL     1      43.208 -16.199   6.128  1.00  0.00     0.077 A 
HETATM   23  C   UNL     1      43.185 -15.881   7.566  1.00  0.00     0.079 C 
HETATM   24  O   UNL     1      43.330 -17.513   5.786  1.00  0.00    -0.292 OA
HETATM   25  C   UNL     1      43.341 -17.525   4.411  1.00  0.00     0.204 A 
HETATM   26  N   UNL     1      43.224 -16.315   3.880  1.00  0.00    -0.224 NA
BRANCH  25  27
HETATM   27  C   UNL     1      43.487 -18.723   3.637  1.00  0.00     0.128 A 
HETATM   28  O   UNL     1      43.912 -19.915   4.172  1.00  0.00    -0.318 OA
HETATM   29  C   UNL     1      43.951 -20.828   3.171  1.00  0.00     0.142 A 
HETATM   30  C   UNL     1      43.556 -20.261   1.985  1.00  0.00     0.027 A 
HETATM   31  C   UNL     1      43.256 -18.910   2.282  1.00  0.00     0.043 A 
ENDBRANCH  25  27
ENDBRANCH  20  21
ENDBRANCH   1  20
TORSDOF 8
ENDMDL
MODEL 7
REMARK VINA RESULT:      -7.3      5.597      8.652
REMARK  8 active torsions:
REMARK  status: ('A' for Active; 'I' for Inactive)
REMARK    1  A    between atoms: C_4  and  C_5 
REMARK    2  A    between atoms: C_11  and  C_12 
REMARK    3  A    between atoms: C_12  and  C_13 
REMARK       I    between atoms: C_13  and  N_14 
REMARK    4  A    between atoms: N_14  and  C_15 
REMARK    5  A    between atoms: C_20  and  C_21 
REMARK       I    between atoms: C_21  and  N_22 
REMARK    6  A    between atoms: N_22  and  C_23 
REMARK    7  A    between atoms: C_23  and  C_24 
REMARK    8  A    between atoms: C_24  and  O_25 
ROOT
HETATM    1  C   UNL     1      41.368 -13.742   4.497  1.00  0.00     0.228 C 
HETATM    2  N   UNL     1      41.384 -12.555   3.785  1.00  0.00    -0.325 N 
HETATM    3  O   UNL     1      40.372 -14.412   4.763  1.00  0.00    -0.273 OA
HETATM    4  H   UNL     1      42.301 -12.124   3.650  1.00  0.00     0.169 HD
ENDROOT
BRANCH   2   5
HETATM    5  C   UNL     1      40.293 -11.828   3.257  1.00  0.00     0.057 A 
HETATM    6  C   UNL     1      39.673 -10.863   4.072  1.00  0.00     0.060 A 
HETATM    7 CL   UNL     1      40.225 -10.568   5.687  1.00  0.00    -0.082 Cl
HETATM    8  C   UNL     1      38.599 -10.109   3.599  1.00  0.00     0.027 A 
HETATM    9  C   UNL     1      38.128 -10.313   2.302  1.00  0.00     0.019 A 
HETATM   10  C   UNL     1      38.723 -11.275   1.472  1.00  0.00     0.034 A 
HETATM   11  C   UNL     1      39.798 -12.033   1.962  1.00  0.00     0.048 A 
BRANCH  10  12
HETATM   12  C   UNL     1      38.154 -11.458   0.100  1.00  0.00     0.251 C 
HETATM   13  N   UNL     1      38.319 -12.686  -0.504  1.00  0.00    -0.355 N 
HETATM   14  H   UNL     1      38.995 -13.347  -0.144  1.00  0.00     0.162 HD
HETATM   15  O   UNL     1      37.578 -10.524  -0.451  1.00  0.00    -0.268 OA
BRANCH  13  16
HETATM   16  C   UNL     1      37.907 -12.919  -1.878  1.00  0.00     0.149 C 
BRANCH  16  17
HETATM   17  C   UNL     1      39.067 -12.702  -2.850  1.00  0.00     0.186 C 
BRANCH  17  18
HETATM   18  O   UNL     1      39.213 -13.880  -3.654  1.00  0.00    -0.394 OA
HETATM   19  C   UNL     1      38.360 -14.926  -3.209  1.00  0.00     0.201 C 
ENDBRANCH  17  18
ENDBRANCH  16  17
ENDBRANCH  13  16
ENDBRANCH  10  12
ENDBRANCH   2   5
BRANCH   1  20
HETATM   20  C   UNL     1      42.755 -14.230   4.885  1.00  0.00     0.165 C 
BRANCH  20  21
HETATM   21  C   UNL     1      43.118 -15.463   4.145  1.00  0.00     0.075 A 
HETATM   22  C   UNL     1      43.326 -15.660   2.798  1.00  0.00     0.077 A 
HETATM   23  C   UNL     1      43.302 -14.802   1.601  1.00  0.00     0.079 C 
HETATM   24  O   UNL     1      43.605 -16.982   2.609  1.00  0.00    -0.292 OA
HETATM   25  C   UNL     1      43.548 -17.542   3.863  1.00  0.00     0.204 A 
HETATM   26  N   UNL     1      43.264 -16.662   4.814  1.00  0.00    -0.224 NA
BRANCH  25  27
HETATM   27  C   UNL     1      43.752 -18.940   4.108  1.00  0.00     0.128 A 
HETATM   28  O   UNL     1      43.988 -19.456   5.360  1.00  0.00    -0.318 OA
HETATM   29  C   UNL     1      44.149 -20.796   5.232  1.00  0.00     0.142 A 
HETATM   30  C   UNL     1      44.020 -21.174   3.918  1.00  0.00     0.027 A 
HETATM   31  C   UNL     1      43.764 -19.984   3.195  1.00  0.00     0.043 A 
ENDBRANCH  25  27
ENDBRANCH  20  21
ENDBRANCH   1  20
TORSDOF 8
ENDMDL
MODEL 8
REMARK VINA RESULT:      -7.2      2.044      2.506
REMARK  8 active torsions:
REMARK  status: ('A' for Active; 'I' for Inactive)
REMARK    1  A    between atoms: C_4  and  C_5 
REMARK    2  A    between atoms: C_11  and  C_12 
REMARK    3  A    between atoms: C_12  and  C_13 
REMARK       I    between atoms: C_13  and  N_14 
REMARK    4  A    between atoms: N_14  and  C_15 
REMARK    5  A    between atoms: C_20  and  C_21 
REMARK       I    between atoms: C_21  and  N_22 
REMARK    6  A    between atoms: N_22  and  C_23 
REMARK    7  A    between atoms: C_23  and  C_24 
REMARK    8  A    between atoms: C_24  and  O_25 
ROOT
HETATM    1  C   UNL     1      42.818 -10.777   4.322  1.00  0.00     0.228 C 
HETATM    2  N   UNL     1      43.670 -11.407   5.212  1.00  0.00    -0.325 N 
HETATM    3  O   UNL     1      42.290  -9.678   4.481  1.00  0.00    -0.273 OA
HETATM    4  H   UNL     1      44.025 -12.322   4.925  1.00  0.00     0.169 HD
ENDROOT
BRANCH   2   5
HETATM    5  C   UNL     1      44.084 -10.976   6.493  1.00  0.00     0.057 A 
HETATM    6  C   UNL     1      45.460 -10.980   6.789  1.00  0.00     0.060 A 
HETATM    7 CL   UNL     1      46.626 -11.504   5.621  1.00  0.00    -0.082 Cl
HETATM    8  C   UNL     1      45.925 -10.556   8.034  1.00  0.00     0.027 A 
HETATM    9  C   UNL     1      45.019 -10.123   9.001  1.00  0.00     0.019 A 
HETATM   10  C   UNL     1      43.642 -10.115   8.734  1.00  0.00     0.034 A 
HETATM   11  C   UNL     1      43.185 -10.553   7.481  1.00  0.00     0.048 A 
BRANCH  10  12
HETATM   12  C   UNL     1      42.723  -9.659   9.823  1.00  0.00     0.251 C 
HETATM   13  N   UNL     1      42.713 -10.381  10.998  1.00  0.00    -0.355 N 
HETATM   14  H   UNL     1      43.120 -11.306  11.033  1.00  0.00     0.162 HD
HETATM   15  O   UNL     1      42.003  -8.680   9.645  1.00  0.00    -0.268 OA
BRANCH  13  16
HETATM   16  C   UNL     1      41.769 -10.087  12.063  1.00  0.00     0.149 C 
BRANCH  16  17
HETATM   17  C   UNL     1      42.384  -9.158  13.110  1.00  0.00     0.186 C 
BRANCH  17  18
HETATM   18  O   UNL     1      41.451  -8.107  13.390  1.00  0.00    -0.394 OA
HETATM   19  C   UNL     1      41.832  -6.889  12.765  1.00  0.00     0.201 C 
ENDBRANCH  17  18
ENDBRANCH  16  17
ENDBRANCH  13  16
ENDBRANCH  10  12
ENDBRANCH   2   5
BRANCH   1  20
HETATM   20  C   UNL     1      42.626 -11.547   3.025  1.00  0.00     0.165 C 
BRANCH  20  21
HETATM   21  C   UNL     1      42.213 -12.947   3.286  1.00  0.00     0.075 A 
HETATM   22  C   UNL     1      41.015 -13.448   3.742  1.00  0.00     0.077 A 
HETATM   23  C   UNL     1      39.716 -12.866   4.120  1.00  0.00     0.079 C 
HETATM   24  O   UNL     1      41.143 -14.802   3.850  1.00  0.00    -0.292 OA
HETATM   25  C   UNL     1      42.433 -15.071   3.457  1.00  0.00     0.204 A 
HETATM   26  N   UNL     1      43.107 -13.985   3.104  1.00  0.00    -0.224 NA
BRANCH  25  27
HETATM   27  C   UNL     1      42.993 -16.391   3.453  1.00  0.00     0.128 A 
HETATM   28  O   UNL     1      43.700 -16.909   4.511  1.00  0.00    -0.318 OA
HETATM   29  C   UNL     1      44.095 -18.161   4.172  1.00  0.00     0.142 A 
HETATM   30  C   UNL     1      43.656 -18.479   2.910  1.00  0.00     0.027 A 
HETATM   31  C   UNL     1      42.948 -17.345   2.448  1.00  0.00     0.043 A 
ENDBRANCH  25  27
ENDBRANCH  20  21
ENDBRANCH   1  20
TORSDOF 8
ENDMDL
MODEL 9
REMARK VINA RESULT:      -7.2      1.824      2.405
REMARK  8 active torsions:
REMARK  status: ('A' for Active; 'I' for Inactive)
REMARK    1  A    between atoms: C_4  and  C_5 
REMARK    2  A    between atoms: C_11  and  C_12 
REMARK    3  A    between atoms: C_12  and  C_13 
REMARK       I    between atoms: C_13  and  N_14 
REMARK    4  A    between atoms: N_14  and  C_15 
REMARK    5  A    between atoms: C_20  and  C_21 
REMARK       I    between atoms: C_21  and  N_22 
REMARK    6  A    between atoms: N_22  and  C_23 
REMARK    7  A    between atoms: C_23  and  C_24 
REMARK    8  A    between atoms: C_24  and  O_25 
ROOT
HETATM    1  C   UNL     1      42.685 -10.398   6.194  1.00  0.00     0.228 C 
HETATM    2  N   UNL     1      43.519 -11.027   7.102  1.00  0.00    -0.325 N 
HETATM    3  O   UNL     1      42.188  -9.281   6.322  1.00  0.00    -0.273 OA
HETATM    4  H   UNL     1      43.848 -11.959   6.840  1.00  0.00     0.169 HD
ENDROOT
BRANCH   2   5
HETATM    5  C   UNL     1      43.944 -10.573   8.371  1.00  0.00     0.057 A 
HETATM    6  C   UNL     1      45.316 -10.329   8.570  1.00  0.00     0.060 A 
HETATM    7 CL   UNL     1      46.464 -10.581   7.298  1.00  0.00    -0.082 Cl
HETATM    8  C   UNL     1      45.790  -9.870   9.799  1.00  0.00     0.027 A 
HETATM    9  C   UNL     1      44.897  -9.651  10.848  1.00  0.00     0.019 A 
HETATM   10  C   UNL     1      43.526  -9.893  10.677  1.00  0.00     0.034 A 
HETATM   11  C   UNL     1      43.062 -10.363   9.439  1.00  0.00     0.048 A 
BRANCH  10  12
HETATM   12  C   UNL     1      42.627  -9.658  11.850  1.00  0.00     0.251 C 
HETATM   13  N   UNL     1      41.425 -10.332  11.882  1.00  0.00    -0.355 N 
HETATM   14  H   UNL     1      41.062 -10.772  11.046  1.00  0.00     0.162 HD
HETATM   15  O   UNL     1      42.967  -8.875  12.733  1.00  0.00    -0.268 OA
BRANCH  13  16
HETATM   16  C   UNL     1      40.437 -10.077  12.917  1.00  0.00     0.149 C 
BRANCH  16  17
HETATM   17  C   UNL     1      39.457  -8.983  12.493  1.00  0.00     0.186 C 
BRANCH  17  18
HETATM   18  O   UNL     1      39.731  -7.804  13.261  1.00  0.00    -0.394 OA
HETATM   19  C   UNL     1      40.187  -6.739  12.437  1.00  0.00     0.201 C 
ENDBRANCH  17  18
ENDBRANCH  16  17
ENDBRANCH  13  16
ENDBRANCH  10  12
ENDBRANCH   2   5
BRANCH   1  20
HETATM   20  C   UNL     1      42.472 -11.197   4.918  1.00  0.00     0.165 C 
BRANCH  20  21
HETATM   21  C   UNL     1      42.029 -12.581   5.218  1.00  0.00     0.075 A 
HETATM   22  C   UNL     1      40.769 -13.071   5.477  1.00  0.00     0.077 A 
HETATM   23  C   UNL     1      39.416 -12.493   5.546  1.00  0.00     0.079 C 
HETATM   24  O   UNL     1      40.886 -14.408   5.726  1.00  0.00    -0.292 OA
HETATM   25  C   UNL     1      42.230 -14.676   5.614  1.00  0.00     0.204 A 
HETATM   26  N   UNL     1      42.950 -13.606   5.303  1.00  0.00    -0.224 NA
BRANCH  25  27
HETATM   27  C   UNL     1      42.792 -15.977   5.834  1.00  0.00     0.128 A 
HETATM   28  O   UNL     1      43.510 -16.655   4.879  1.00  0.00    -0.318 OA
HETATM   29  C   UNL     1      43.878 -17.848   5.407  1.00  0.00     0.142 A 
HETATM   30  C   UNL     1      43.417 -17.968   6.695  1.00  0.00     0.027 A 
HETATM   31  C   UNL     1      42.721 -16.767   6.971  1.00  0.00     0.043 A 
ENDBRANCH  25  27
ENDBRANCH  20  21
ENDBRANCH   1  20
TORSDOF 8
ENDMDL
MODEL 10
REMARK VINA RESULT:      -7.2      3.667     10.024
REMARK  8 active torsions:
REMARK  status: ('A' for Active; 'I' for Inactive)
REMARK    1  A    between atoms: C_4  and  C_5 
REMARK    2  A    between atoms: C_11  and  C_12 
REMARK    3  A    between atoms: C_12  and  C_13 
REMARK       I    between atoms: C_13  and  N_14 
REMARK    4  A    between atoms: N_14  and  C_15 
REMARK    5  A    between atoms: C_20  and  C_21 
REMARK       I    between atoms: C_21  and  N_22 
REMARK    6  A    between atoms: N_22  and  C_23 
REMARK    7  A    between atoms: C_23  and  C_24 
REMARK    8  A    between atoms: C_24  and  O_25 
ROOT
HETATM    1  C   UNL     1      42.834 -11.222   4.855  1.00  0.00     0.228 C 
HETATM    2  N   UNL     1      41.904 -12.217   5.100  1.00  0.00    -0.325 N 
HETATM    3  O   UNL     1      43.721 -11.255   4.004  1.00  0.00    -0.273 OA
HETATM    4  H   UNL     1      41.230 -12.030   5.846  1.00  0.00     0.169 HD
ENDROOT
BRANCH   2   5
HETATM    5  C   UNL     1      41.785 -13.485   4.485  1.00  0.00     0.057 A 
HETATM    6  C   UNL     1      42.363 -14.597   5.127  1.00  0.00     0.060 A 
HETATM    7 CL   UNL     1      43.205 -14.425   6.630  1.00  0.00    -0.082 Cl
HETATM    8  C   UNL     1      42.268 -15.872   4.571  1.00  0.00     0.027 A 
HETATM    9  C   UNL     1      41.594 -16.053   3.364  1.00  0.00     0.019 A 
HETATM   10  C   UNL     1      41.015 -14.961   2.701  1.00  0.00     0.034 A 
HETATM   11  C   UNL     1      41.125 -13.681   3.265  1.00  0.00     0.048 A 
BRANCH  10  12
HETATM   12  C   UNL     1      40.326 -15.222   1.398  1.00  0.00     0.251 C 
HETATM   13  N   UNL     1      40.429 -14.262   0.414  1.00  0.00    -0.355 N 
HETATM   14  H   UNL     1      40.745 -13.329   0.641  1.00  0.00     0.162 HD
HETATM   15  O   UNL     1      39.686 -16.259   1.244  1.00  0.00    -0.268 OA
BRANCH  13  16
HETATM   16  C   UNL     1      39.696 -14.373  -0.835  1.00  0.00     0.149 C 
BRANCH  16  17
HETATM   17  C   UNL     1      40.243 -13.409  -1.888  1.00  0.00     0.186 C 
BRANCH  17  18
HETATM   18  O   UNL     1      39.885 -13.902  -3.186  1.00  0.00    -0.394 OA
HETATM   19  C   UNL     1      38.630 -14.568  -3.164  1.00  0.00     0.201 C 
ENDBRANCH  17  18
ENDBRANCH  16  17
ENDBRANCH  13  16
ENDBRANCH  10  12
ENDBRANCH   2   5
BRANCH   1  20
HETATM   20  C   UNL     1      42.627  -9.981   5.709  1.00  0.00     0.165 C 
BRANCH  20  21
HETATM   21  C   UNL     1      43.208 -10.157   7.063  1.00  0.00     0.075 A 
HETATM   22  C   UNL     1      44.337 -10.837   7.462  1.00  0.00     0.077 A 
HETATM   23  C   UNL     1      45.389 -11.607   6.778  1.00  0.00     0.079 C 
HETATM   24  O   UNL     1      44.427 -10.733   8.819  1.00  0.00    -0.292 OA
HETATM   25  C   UNL     1      43.332  -9.991   9.195  1.00  0.00     0.204 A 
HETATM   26  N   UNL     1      42.578  -9.621   8.168  1.00  0.00    -0.224 NA
BRANCH  25  27
HETATM   27  C   UNL     1      43.029  -9.674  10.560  1.00  0.00     0.128 A 
HETATM   28  O   UNL     1      41.860 -10.050  11.176  1.00  0.00    -0.318 OA
HETATM   29  C   UNL     1      41.892  -9.579  12.447  1.00  0.00     0.142 A 
HETATM   30  C   UNL     1      43.064  -8.902  12.681  1.00  0.00     0.027 A 
HETATM   31  C   UNL     1      43.795  -8.963  11.471  1.00  0.00     0.043 A 
ENDBRANCH  25  27
ENDBRANCH  20  21
ENDBRANCH   1  20
TORSDOF 8
ENDMDL
