MODEL 1
REMARK VINA RESULT:      -7.2      0.000      0.000
REMARK  4 active torsions:
REMARK  status: ('A' for Active; 'I' for Inactive)
REMARK    1  A    between atoms: S_2  and  N_3 
REMARK    2  A    between atoms: N_3  and  N_4 
REMARK    3  A    between atoms: C_10  and  C_11 
REMARK    4  A    between atoms: C_12  and  O_13 
ROOT
HETATM    1  N   UNL     1      41.015 -14.122   3.487  1.00  0.00    -0.241 N 
HETATM    2  C   UNL     1      41.628 -14.983   2.594  1.00  0.00     0.272 C 
HETATM    3  O   UNL     1      41.378 -14.964   1.390  1.00  0.00    -0.266 OA
HETATM    4  C   UNL     1      42.475 -16.031   3.187  1.00  0.00     0.054 A 
HETATM    5  C   UNL     1      42.335 -16.273   4.560  1.00  0.00     0.026 A 
HETATM    6  N   UNL     1      41.484 -15.485   5.381  1.00  0.00    -0.265 NA
HETATM    7  C   UNL     1      41.365 -14.081   4.911  1.00  0.00     0.219 C 
HETATM    8  C   UNL     1      43.257 -16.860   2.379  1.00  0.00     0.019 A 
HETATM    9  C   UNL     1      43.901 -17.958   2.946  1.00  0.00     0.001 A 
HETATM   10  C   UNL     1      43.736 -18.237   4.303  1.00  0.00     0.002 A 
HETATM   11  C   UNL     1      42.942 -17.408   5.102  1.00  0.00     0.024 A 
HETATM   12  H   UNL     1      40.546 -15.893   5.328  1.00  0.00     0.130 HD
ENDROOT
BRANCH   7  13
HETATM   13  C   UNL     1      42.627 -13.273   5.237  1.00  0.00     0.014 A 
HETATM   14  C   UNL     1      43.290 -13.353   6.474  1.00  0.00     0.075 A 
HETATM   15  C   UNL     1      44.401 -12.562   6.769  1.00  0.00     0.037 A 
HETATM   16  C   UNL     1      44.867 -11.640   5.838  1.00  0.00     0.003 A 
HETATM   17  C   UNL     1      44.216 -11.510   4.618  1.00  0.00     0.001 A 
HETATM   18  C   UNL     1      43.109 -12.314   4.323  1.00  0.00     0.013 A 
BRANCH  14  19
HETATM   19  O   UNL     1      42.895 -14.201   7.474  1.00  0.00    -0.360 OA
HETATM   20  H   UNL     1      41.940 -14.375   7.346  1.00  0.00     0.217 HD
ENDBRANCH  14  19
ENDBRANCH   7  13
BRANCH   1  21
HETATM   21  N   UNL     1      39.614 -13.774   3.119  1.00  0.00    -0.123 NA
HETATM   22  H   UNL     1      39.260 -14.351   2.342  1.00  0.00     0.165 HD
BRANCH  21  23
HETATM   23  S   UNL     1      39.184 -12.150   2.895  1.00  0.00     0.222 S 
HETATM   24  C   UNL     1      40.544 -11.573   1.899  1.00  0.00     0.181 C 
HETATM   25  O   UNL     1      39.224 -11.478   4.174  1.00  0.00    -0.210 OA
HETATM   26  O   UNL     1      37.995 -12.146   2.072  1.00  0.00    -0.210 OA
ENDBRANCH  21  23
ENDBRANCH   1  21
TORSDOF 4
ENDMDL
MODEL 2
REMARK VINA RESULT:      -7.1      2.987      5.649
REMARK  4 active torsions:
REMARK  status: ('A' for Active; 'I' for Inactive)
REMARK    1  A    between atoms: S_2  and  N_3 
REMARK    2  A    between atoms: N_3  and  N_4 
REMARK    3  A    between atoms: C_10  and  C_11 
REMARK    4  A    between atoms: C_12  and  O_13 
ROOT
HETATM    1  N   UNL     1      41.035 -11.785   1.832  1.00  0.00    -0.241 N 
HETATM    2  C   UNL     1      41.375 -11.335   0.569  1.00  0.00     0.272 C 
HETATM    3  O   UNL     1      42.027 -10.307   0.395  1.00  0.00    -0.266 OA
HETATM    4  C   UNL     1      40.774 -12.065  -0.559  1.00  0.00     0.054 A 
HETATM    5  C   UNL     1      39.693 -12.909  -0.278  1.00  0.00     0.026 A 
HETATM    6  N   UNL     1      39.238 -13.136   1.050  1.00  0.00    -0.265 NA
HETATM    7  C   UNL     1      40.328 -13.051   2.055  1.00  0.00     0.219 C 
HETATM    8  C   UNL     1      41.162 -11.793  -1.873  1.00  0.00     0.019 A 
HETATM    9  C   UNL     1      40.450 -12.362  -2.928  1.00  0.00     0.001 A 
HETATM   10  C   UNL     1      39.342 -13.169  -2.664  1.00  0.00     0.002 A 
HETATM   11  C   UNL     1      38.956 -13.427  -1.345  1.00  0.00     0.024 A 
HETATM   12  H   UNL     1      38.572 -12.391   1.275  1.00  0.00     0.130 HD
ENDROOT
BRANCH   7  13
HETATM   13  C   UNL     1      41.220 -14.296   2.020  1.00  0.00     0.014 A 
HETATM   14  C   UNL     1      40.742 -15.590   2.298  1.00  0.00     0.075 A 
HETATM   15  C   UNL     1      41.588 -16.700   2.319  1.00  0.00     0.037 A 
HETATM   16  C   UNL     1      42.951 -16.544   2.090  1.00  0.00     0.003 A 
HETATM   17  C   UNL     1      43.463 -15.276   1.846  1.00  0.00     0.001 A 
HETATM   18  C   UNL     1      42.609 -14.168   1.815  1.00  0.00     0.013 A 
BRANCH  14  19
HETATM   19  O   UNL     1      39.427 -15.852   2.570  1.00  0.00    -0.360 OA
HETATM   20  H   UNL     1      38.948 -15.848   1.715  1.00  0.00     0.217 HD
ENDBRANCH  14  19
ENDBRANCH   7  13
BRANCH   1  21
HETATM   21  N   UNL     1      40.801 -10.691   2.816  1.00  0.00    -0.123 NA
HETATM   22  H   UNL     1      40.537  -9.805   2.360  1.00  0.00     0.165 HD
BRANCH  21  23
HETATM   23  S   UNL     1      41.936 -10.409   4.044  1.00  0.00     0.222 S 
HETATM   24  C   UNL     1      41.384 -11.561   5.287  1.00  0.00     0.181 C 
HETATM   25  O   UNL     1      41.757  -9.064   4.541  1.00  0.00    -0.210 OA
HETATM   26  O   UNL     1      43.211 -10.871   3.544  1.00  0.00    -0.210 OA
ENDBRANCH  21  23
ENDBRANCH   1  21
TORSDOF 4
ENDMDL
MODEL 3
REMARK VINA RESULT:      -7.1      1.249      1.394
REMARK  4 active torsions:
REMARK  status: ('A' for Active; 'I' for Inactive)
REMARK    1  A    between atoms: S_2  and  N_3 
REMARK    2  A    between atoms: N_3  and  N_4 
REMARK    3  A    between atoms: C_10  and  C_11 
REMARK    4  A    between atoms: C_12  and  O_13 
ROOT
HETATM    1  N   UNL     1      41.378 -14.512   2.923  1.00  0.00    -0.241 N 
HETATM    2  C   UNL     1      42.152 -15.544   2.422  1.00  0.00     0.272 C 
HETATM    3  O   UNL     1      42.197 -15.806   1.221  1.00  0.00    -0.266 OA
HETATM    4  C   UNL     1      42.792 -16.414   3.423  1.00  0.00     0.054 A 
HETATM    5  C   UNL     1      42.320 -16.337   4.740  1.00  0.00     0.026 A 
HETATM    6  N   UNL     1      41.329 -15.397   5.132  1.00  0.00    -0.265 NA
HETATM    7  C   UNL     1      41.381 -14.140   4.342  1.00  0.00     0.219 C 
HETATM    8  C   UNL     1      43.710 -17.393   3.036  1.00  0.00     0.019 A 
HETATM    9  C   UNL     1      44.158 -18.320   3.974  1.00  0.00     0.001 A 
HETATM   10  C   UNL     1      43.663 -18.284   5.279  1.00  0.00     0.002 A 
HETATM   11  C   UNL     1      42.735 -17.307   5.655  1.00  0.00     0.024 A 
HETATM   12  H   UNL     1      40.416 -15.822   4.948  1.00  0.00     0.130 HD
ENDROOT
BRANCH   7  13
HETATM   13  C   UNL     1      42.559 -13.258   4.770  1.00  0.00     0.014 A 
HETATM   14  C   UNL     1      42.954 -13.105   6.111  1.00  0.00     0.075 A 
HETATM   15  C   UNL     1      43.991 -12.248   6.481  1.00  0.00     0.037 A 
HETATM   16  C   UNL     1      44.650 -11.492   5.517  1.00  0.00     0.003 A 
HETATM   17  C   UNL     1      44.263 -11.593   4.187  1.00  0.00     0.001 A 
HETATM   18  C   UNL     1      43.230 -12.461   3.819  1.00  0.00     0.013 A 
BRANCH  14  19
HETATM   19  O   UNL     1      42.353 -13.774   7.143  1.00  0.00    -0.360 OA
HETATM   20  H   UNL     1      42.607 -14.717   7.063  1.00  0.00     0.217 HD
ENDBRANCH  14  19
ENDBRANCH   7  13
BRANCH   1  21
HETATM   21  N   UNL     1      40.120 -14.282   2.160  1.00  0.00    -0.123 NA
HETATM   22  H   UNL     1      39.738 -15.153   1.764  1.00  0.00     0.165 HD
BRANCH  21  23
HETATM   23  S   UNL     1      40.048 -13.031   1.017  1.00  0.00     0.222 S 
HETATM   24  C   UNL     1      39.743 -13.954  -0.476  1.00  0.00     0.181 C 
HETATM   25  O   UNL     1      41.350 -12.412   0.925  1.00  0.00    -0.210 OA
HETATM   26  O   UNL     1      38.861 -12.263   1.317  1.00  0.00    -0.210 OA
ENDBRANCH  21  23
ENDBRANCH   1  21
TORSDOF 4
ENDMDL
MODEL 4
REMARK VINA RESULT:      -7.1     15.395     16.861
REMARK  4 active torsions:
REMARK  status: ('A' for Active; 'I' for Inactive)
REMARK    1  A    between atoms: S_2  and  N_3 
REMARK    2  A    between atoms: N_3  and  N_4 
REMARK    3  A    between atoms: C_10  and  C_11 
REMARK    4  A    between atoms: C_12  and  O_13 
ROOT
HETATM    1  N   UNL     1      45.277 -29.600   2.327  1.00  0.00    -0.241 N 
HETATM    2  C   UNL     1      45.841 -30.509   3.205  1.00  0.00     0.272 C 
HETATM    3  O   UNL     1      45.160 -31.306   3.848  1.00  0.00    -0.266 OA
HETATM    4  C   UNL     1      47.285 -30.361   3.448  1.00  0.00     0.054 A 
HETATM    5  C   UNL     1      47.885 -29.159   3.049  1.00  0.00     0.026 A 
HETATM    6  N   UNL     1      47.166 -28.151   2.353  1.00  0.00    -0.265 NA
HETATM    7  C   UNL     1      46.085 -28.701   1.495  1.00  0.00     0.219 C 
HETATM    8  C   UNL     1      47.985 -31.310   4.196  1.00  0.00     0.019 A 
HETATM    9  C   UNL     1      49.304 -31.052   4.566  1.00  0.00     0.001 A 
HETATM   10  C   UNL     1      49.901 -29.841   4.215  1.00  0.00     0.002 A 
HETATM   11  C   UNL     1      49.189 -28.892   3.474  1.00  0.00     0.024 A 
HETATM   12  H   UNL     1      46.711 -27.561   3.055  1.00  0.00     0.130 HD
ENDROOT
BRANCH   7  13
HETATM   13  C   UNL     1      46.651 -29.343   0.224  1.00  0.00     0.014 A 
HETATM   14  C   UNL     1      47.625 -28.724  -0.579  1.00  0.00     0.075 A 
HETATM   15  C   UNL     1      48.080 -29.302  -1.765  1.00  0.00     0.037 A 
HETATM   16  C   UNL     1      47.549 -30.511  -2.201  1.00  0.00     0.003 A 
HETATM   17  C   UNL     1      46.561 -31.134  -1.450  1.00  0.00     0.001 A 
HETATM   18  C   UNL     1      46.115 -30.556  -0.257  1.00  0.00     0.013 A 
BRANCH  14  19
HETATM   19  O   UNL     1      48.191 -27.518  -0.262  1.00  0.00    -0.360 OA
HETATM   20  H   UNL     1      47.874 -26.868  -0.922  1.00  0.00     0.217 HD
ENDBRANCH  14  19
ENDBRANCH   7  13
BRANCH   1  21
HETATM   21  N   UNL     1      43.932 -29.115   2.747  1.00  0.00    -0.123 NA
HETATM   22  H   UNL     1      43.827 -29.096   3.772  1.00  0.00     0.165 HD
BRANCH  21  23
HETATM   23  S   UNL     1      42.543 -29.761   2.020  1.00  0.00     0.222 S 
HETATM   24  C   UNL     1      41.595 -30.226   3.455  1.00  0.00     0.181 C 
HETATM   25  O   UNL     1      42.911 -30.957   1.297  1.00  0.00    -0.210 OA
HETATM   26  O   UNL     1      41.864 -28.661   1.373  1.00  0.00    -0.210 OA
ENDBRANCH  21  23
ENDBRANCH   1  21
TORSDOF 4
ENDMDL
MODEL 5
REMARK VINA RESULT:      -6.9      2.246      2.949
REMARK  4 active torsions:
REMARK  status: ('A' for Active; 'I' for Inactive)
REMARK    1  A    between atoms: S_2  and  N_3 
REMARK    2  A    between atoms: N_3  and  N_4 
REMARK    3  A    between atoms: C_10  and  C_11 
REMARK    4  A    between atoms: C_12  and  O_13 
ROOT
HETATM    1  N   UNL     1      42.865 -11.957   3.576  1.00  0.00    -0.241 N 
HETATM    2  C   UNL     1      42.974 -13.327   3.416  1.00  0.00     0.272 C 
HETATM    3  O   UNL     1      43.430 -13.831   2.392  1.00  0.00    -0.266 OA
HETATM    4  C   UNL     1      42.365 -14.150   4.474  1.00  0.00     0.054 A 
HETATM    5  C   UNL     1      41.472 -13.518   5.349  1.00  0.00     0.026 A 
HETATM    6  N   UNL     1      41.223 -12.121   5.292  1.00  0.00    -0.265 NA
HETATM    7  C   UNL     1      42.399 -11.342   4.824  1.00  0.00     0.219 C 
HETATM    8  C   UNL     1      42.544 -15.536   4.492  1.00  0.00     0.019 A 
HETATM    9  C   UNL     1      41.809 -16.308   5.390  1.00  0.00     0.001 A 
HETATM   10  C   UNL     1      40.883 -15.698   6.237  1.00  0.00     0.002 A 
HETATM   11  C   UNL     1      40.703 -14.311   6.204  1.00  0.00     0.024 A 
HETATM   12  H   UNL     1      40.479 -11.971   4.604  1.00  0.00     0.130 HD
ENDROOT
BRANCH   7  13
HETATM   13  C   UNL     1      43.466 -11.229   5.919  1.00  0.00     0.014 A 
HETATM   14  C   UNL     1      43.180 -10.797   7.226  1.00  0.00     0.075 A 
HETATM   15  C   UNL     1      44.180 -10.643   8.187  1.00  0.00     0.037 A 
HETATM   16  C   UNL     1      45.508 -10.893   7.859  1.00  0.00     0.003 A 
HETATM   17  C   UNL     1      45.831 -11.289   6.568  1.00  0.00     0.001 A 
HETATM   18  C   UNL     1      44.824 -11.451   5.610  1.00  0.00     0.013 A 
BRANCH  14  19
HETATM   19  O   UNL     1      41.914 -10.492   7.647  1.00  0.00    -0.360 OA
HETATM   20  H   UNL     1      41.967  -9.646   8.138  1.00  0.00     0.217 HD
ENDBRANCH  14  19
ENDBRANCH   7  13
BRANCH   1  21
HETATM   21  N   UNL     1      42.581 -11.226   2.310  1.00  0.00    -0.123 NA
HETATM   22  H   UNL     1      42.870 -10.238   2.356  1.00  0.00     0.165 HD
BRANCH  21  23
HETATM   23  S   UNL     1      41.054 -11.363   1.585  1.00  0.00     0.222 S 
HETATM   24  C   UNL     1      40.840  -9.720   0.931  1.00  0.00     0.181 C 
HETATM   25  O   UNL     1      40.069 -11.586   2.619  1.00  0.00    -0.210 OA
HETATM   26  O   UNL     1      41.204 -12.272   0.471  1.00  0.00    -0.210 OA
ENDBRANCH  21  23
ENDBRANCH   1  21
TORSDOF 4
ENDMDL
MODEL 6
REMARK VINA RESULT:      -6.8      2.835      4.407
REMARK  4 active torsions:
REMARK  status: ('A' for Active; 'I' for Inactive)
REMARK    1  A    between atoms: S_2  and  N_3 
REMARK    2  A    between atoms: N_3  and  N_4 
REMARK    3  A    between atoms: C_10  and  C_11 
REMARK    4  A    between atoms: C_12  and  O_13 
ROOT
HETATM    1  N   UNL     1      41.266 -11.968   5.854  1.00  0.00    -0.241 N 
HETATM    2  C   UNL     1      41.710 -11.541   4.615  1.00  0.00     0.272 C 
HETATM    3  O   UNL     1      42.308 -10.477   4.465  1.00  0.00    -0.266 OA
HETATM    4  C   UNL     1      41.285 -12.353   3.463  1.00  0.00     0.054 A 
HETATM    5  C   UNL     1      40.237 -13.260   3.666  1.00  0.00     0.026 A 
HETATM    6  N   UNL     1      39.658 -13.469   4.947  1.00  0.00    -0.265 NA
HETATM    7  C   UNL     1      40.625 -13.271   6.057  1.00  0.00     0.219 C 
HETATM    8  C   UNL     1      41.793 -12.103   2.186  1.00  0.00     0.019 A 
HETATM    9  C   UNL     1      41.238 -12.759   1.089  1.00  0.00     0.001 A 
HETATM   10  C   UNL     1      40.164 -13.632   1.270  1.00  0.00     0.002 A 
HETATM   11  C   UNL     1      39.655 -13.868   2.551  1.00  0.00     0.024 A 
HETATM   12  H   UNL     1      38.923 -12.766   5.068  1.00  0.00     0.130 HD
ENDROOT
BRANCH   7  13
HETATM   13  C   UNL     1      41.596 -14.451   6.171  1.00  0.00     0.014 A 
HETATM   14  C   UNL     1      41.176 -15.793   6.167  1.00  0.00     0.075 A 
HETATM   15  C   UNL     1      42.074 -16.848   6.334  1.00  0.00     0.037 A 
HETATM   16  C   UNL     1      43.425 -16.589   6.538  1.00  0.00     0.003 A 
HETATM   17  C   UNL     1      43.871 -15.274   6.581  1.00  0.00     0.001 A 
HETATM   18  C   UNL     1      42.968 -14.220   6.403  1.00  0.00     0.013 A 
BRANCH  14  19
HETATM   19  O   UNL     1      39.867 -16.160   6.007  1.00  0.00    -0.360 OA
HETATM   20  H   UNL     1      39.392 -15.902   6.824  1.00  0.00     0.217 HD
ENDBRANCH  14  19
ENDBRANCH   7  13
BRANCH   1  21
HETATM   21  N   UNL     1      40.856 -10.857   6.759  1.00  0.00    -0.123 NA
HETATM   22  H   UNL     1      41.234 -10.969   7.711  1.00  0.00     0.165 HD
BRANCH  21  23
HETATM   23  S   UNL     1      39.229 -10.383   6.820  1.00  0.00     0.222 S 
HETATM   24  C   UNL     1      39.397  -8.641   7.156  1.00  0.00     0.181 C 
HETATM   25  O   UNL     1      38.603 -11.019   7.956  1.00  0.00    -0.210 OA
HETATM   26  O   UNL     1      38.703 -10.531   5.482  1.00  0.00    -0.210 OA
ENDBRANCH  21  23
ENDBRANCH   1  21
TORSDOF 4
ENDMDL
MODEL 7
REMARK VINA RESULT:      -6.7      2.691      4.994
REMARK  4 active torsions:
REMARK  status: ('A' for Active; 'I' for Inactive)
REMARK    1  A    between atoms: S_2  and  N_3 
REMARK    2  A    between atoms: N_3  and  N_4 
REMARK    3  A    between atoms: C_10  and  C_11 
REMARK    4  A    between atoms: C_12  and  O_13 
ROOT
HETATM    1  N   UNL     1      41.675 -12.666   4.994  1.00  0.00    -0.241 N 
HETATM    2  C   UNL     1      41.526 -14.042   4.981  1.00  0.00     0.272 C 
HETATM    3  O   UNL     1      41.140 -14.667   5.967  1.00  0.00    -0.266 OA
HETATM    4  C   UNL     1      42.007 -14.731   3.773  1.00  0.00     0.054 A 
HETATM    5  C   UNL     1      42.845 -14.012   2.911  1.00  0.00     0.026 A 
HETATM    6  N   UNL     1      43.154 -12.642   3.130  1.00  0.00    -0.265 NA
HETATM    7  C   UNL     1      42.055 -11.902   3.801  1.00  0.00     0.219 C 
HETATM    8  C   UNL     1      41.772 -16.096   3.588  1.00  0.00     0.019 A 
HETATM    9  C   UNL     1      42.395 -16.760   2.532  1.00  0.00     0.001 A 
HETATM   10  C   UNL     1      43.268 -16.066   1.692  1.00  0.00     0.002 A 
HETATM   11  C   UNL     1      43.505 -14.703   1.892  1.00  0.00     0.024 A 
HETATM   12  H   UNL     1      43.960 -12.608   3.761  1.00  0.00     0.130 HD
ENDROOT
BRANCH   7  13
HETATM   13  C   UNL     1      40.903 -11.612   2.834  1.00  0.00     0.014 A 
HETATM   14  C   UNL     1      41.043 -10.793   1.699  1.00  0.00     0.075 A 
HETATM   15  C   UNL     1      39.963 -10.494   0.867  1.00  0.00     0.037 A 
HETATM   16  C   UNL     1      38.696 -10.986   1.164  1.00  0.00     0.003 A 
HETATM   17  C   UNL     1      38.515 -11.771   2.295  1.00  0.00     0.001 A 
HETATM   18  C   UNL     1      39.603 -12.076   3.121  1.00  0.00     0.013 A 
BRANCH  14  19
HETATM   19  O   UNL     1      42.235 -10.229   1.333  1.00  0.00    -0.360 OA
HETATM   20  H   UNL     1      42.797 -10.947   0.975  1.00  0.00     0.217 HD
ENDBRANCH  14  19
ENDBRANCH   7  13
BRANCH   1  21
HETATM   21  N   UNL     1      42.097 -12.122   6.316  1.00  0.00    -0.123 NA
HETATM   22  H   UNL     1      41.749 -11.164   6.472  1.00  0.00     0.165 HD
BRANCH  21  23
HETATM   23  S   UNL     1      43.717 -12.250   6.798  1.00  0.00     0.222 S 
HETATM   24  C   UNL     1      43.817 -10.940   8.002  1.00  0.00     0.181 C 
HETATM   25  O   UNL     1      44.563 -11.918   5.675  1.00  0.00    -0.210 OA
HETATM   26  O   UNL     1      43.842 -13.509   7.498  1.00  0.00    -0.210 OA
ENDBRANCH  21  23
ENDBRANCH   1  21
TORSDOF 4
ENDMDL
MODEL 8
REMARK VINA RESULT:      -6.6      3.098      4.753
REMARK  4 active torsions:
REMARK  status: ('A' for Active; 'I' for Inactive)
REMARK    1  A    between atoms: S_2  and  N_3 
REMARK    2  A    between atoms: N_3  and  N_4 
REMARK    3  A    between atoms: C_10  and  C_11 
REMARK    4  A    between atoms: C_12  and  O_13 
ROOT
HETATM    1  N   UNL     1      41.964 -14.973   5.379  1.00  0.00    -0.241 N 
HETATM    2  C   UNL     1      40.962 -15.565   4.630  1.00  0.00     0.272 C 
HETATM    3  O   UNL     1      40.255 -16.466   5.079  1.00  0.00    -0.266 OA
HETATM    4  C   UNL     1      40.896 -15.170   3.214  1.00  0.00     0.054 A 
HETATM    5  C   UNL     1      42.009 -14.509   2.677  1.00  0.00     0.026 A 
HETATM    6  N   UNL     1      43.126 -14.144   3.475  1.00  0.00    -0.265 NA
HETATM    7  C   UNL     1      42.758 -13.844   4.882  1.00  0.00     0.219 C 
HETATM    8  C   UNL     1      39.839 -15.589   2.403  1.00  0.00     0.019 A 
HETATM    9  C   UNL     1      39.895 -15.358   1.030  1.00  0.00     0.001 A 
HETATM   10  C   UNL     1      41.017 -14.741   0.474  1.00  0.00     0.002 A 
HETATM   11  C   UNL     1      42.076 -14.334   1.292  1.00  0.00     0.024 A 
HETATM   12  H   UNL     1      43.758 -14.949   3.501  1.00  0.00     0.130 HD
ENDROOT
BRANCH   7  13
HETATM   13  C   UNL     1      42.073 -12.478   5.003  1.00  0.00     0.014 A 
HETATM   14  C   UNL     1      42.633 -11.292   4.495  1.00  0.00     0.075 A 
HETATM   15  C   UNL     1      42.019 -10.052   4.672  1.00  0.00     0.037 A 
HETATM   16  C   UNL     1      40.833  -9.956   5.391  1.00  0.00     0.003 A 
HETATM   17  C   UNL     1      40.269 -11.103   5.936  1.00  0.00     0.001 A 
HETATM   18  C   UNL     1      40.883 -12.346   5.747  1.00  0.00     0.013 A 
BRANCH  14  19
HETATM   19  O   UNL     1      43.813 -11.267   3.801  1.00  0.00    -0.360 OA
HETATM   20  H   UNL     1      44.388 -11.962   4.183  1.00  0.00     0.217 HD
ENDBRANCH  14  19
ENDBRANCH   7  13
BRANCH   1  21
HETATM   21  N   UNL     1      42.625 -15.902   6.337  1.00  0.00    -0.123 NA
HETATM   22  H   UNL     1      42.838 -15.448   7.238  1.00  0.00     0.165 HD
BRANCH  21  23
HETATM   23  S   UNL     1      43.938 -16.844   5.823  1.00  0.00     0.222 S 
HETATM   24  C   UNL     1      43.503 -18.432   6.502  1.00  0.00     0.181 C 
HETATM   25  O   UNL     1      45.135 -16.368   6.480  1.00  0.00    -0.210 OA
HETATM   26  O   UNL     1      43.846 -16.933   4.383  1.00  0.00    -0.210 OA
ENDBRANCH  21  23
ENDBRANCH   1  21
TORSDOF 4
ENDMDL
MODEL 9
REMARK VINA RESULT:      -6.6      2.790      4.711
REMARK  4 active torsions:
REMARK  status: ('A' for Active; 'I' for Inactive)
REMARK    1  A    between atoms: S_2  and  N_3 
REMARK    2  A    between atoms: N_3  and  N_4 
REMARK    3  A    between atoms: C_10  and  C_11 
REMARK    4  A    between atoms: C_12  and  O_13 
ROOT
HETATM    1  N   UNL     1      40.412 -12.190   5.502  1.00  0.00    -0.241 N 
HETATM    2  C   UNL     1      40.243 -13.561   5.599  1.00  0.00     0.272 C 
HETATM    3  O   UNL     1      39.551 -14.073   6.477  1.00  0.00    -0.266 OA
HETATM    4  C   UNL     1      41.066 -14.378   4.693  1.00  0.00     0.054 A 
HETATM    5  C   UNL     1      42.151 -13.751   4.066  1.00  0.00     0.026 A 
HETATM    6  N   UNL     1      42.406 -12.361   4.212  1.00  0.00    -0.265 NA
HETATM    7  C   UNL     1      41.168 -11.564   4.412  1.00  0.00     0.219 C 
HETATM    8  C   UNL     1      40.871 -15.758   4.601  1.00  0.00     0.019 A 
HETATM    9  C   UNL     1      41.781 -16.531   3.880  1.00  0.00     0.001 A 
HETATM   10  C   UNL     1      42.891 -15.926   3.287  1.00  0.00     0.002 A 
HETATM   11  C   UNL     1      43.083 -14.546   3.395  1.00  0.00     0.024 A 
HETATM   12  H   UNL     1      42.971 -12.242   5.059  1.00  0.00     0.130 HD
ENDROOT
BRANCH   7  13
HETATM   13  C   UNL     1      40.388 -11.405   3.102  1.00  0.00     0.014 A 
HETATM   14  C   UNL     1      40.948 -10.845   1.940  1.00  0.00     0.075 A 
HETATM   15  C   UNL     1      40.199 -10.654   0.778  1.00  0.00     0.037 A 
HETATM   16  C   UNL     1      38.851 -10.994   0.753  1.00  0.00     0.003 A 
HETATM   17  C   UNL     1      38.257 -11.519   1.893  1.00  0.00     0.001 A 
HETATM   18  C   UNL     1      39.015 -11.717   3.053  1.00  0.00     0.013 A 
BRANCH  14  19
HETATM   19  O   UNL     1      42.255 -10.444   1.865  1.00  0.00    -0.360 OA
HETATM   20  H   UNL     1      42.410 -10.132   0.949  1.00  0.00     0.217 HD
ENDBRANCH  14  19
ENDBRANCH   7  13
BRANCH   1  21
HETATM   21  N   UNL     1      40.406 -11.491   6.817  1.00  0.00    -0.123 NA
HETATM   22  H   UNL     1      40.648 -12.121   7.596  1.00  0.00     0.165 HD
BRANCH  21  23
HETATM   23  S   UNL     1      39.091 -10.507   7.238  1.00  0.00     0.222 S 
HETATM   24  C   UNL     1      39.872  -8.908   7.309  1.00  0.00     0.181 C 
HETATM   25  O   UNL     1      38.647 -10.869   8.565  1.00  0.00    -0.210 OA
HETATM   26  O   UNL     1      38.189 -10.514   6.108  1.00  0.00    -0.210 OA
ENDBRANCH  21  23
ENDBRANCH   1  21
TORSDOF 4
ENDMDL
MODEL 10
REMARK VINA RESULT:      -6.5     15.820     17.649
REMARK  4 active torsions:
REMARK  status: ('A' for Active; 'I' for Inactive)
REMARK    1  A    between atoms: S_2  and  N_3 
REMARK    2  A    between atoms: N_3  and  N_4 
REMARK    3  A    between atoms: C_10  and  C_11 
REMARK    4  A    between atoms: C_12  and  O_13 
ROOT
HETATM    1  N   UNL     1      47.216 -29.262   0.366  1.00  0.00    -0.241 N 
HETATM    2  C   UNL     1      46.372 -28.829   1.374  1.00  0.00     0.272 C 
HETATM    3  O   UNL     1      46.688 -27.927   2.148  1.00  0.00    -0.266 OA
HETATM    4  C   UNL     1      45.144 -29.616   1.570  1.00  0.00     0.054 A 
HETATM    5  C   UNL     1      45.088 -30.881   0.972  1.00  0.00     0.026 A 
HETATM    6  N   UNL     1      46.125 -31.364   0.129  1.00  0.00    -0.265 NA
HETATM    7  C   UNL     1      46.819 -30.280  -0.613  1.00  0.00     0.219 C 
HETATM    8  C   UNL     1      44.154 -29.185   2.455  1.00  0.00     0.019 A 
HETATM    9  C   UNL     1      43.092 -30.036   2.761  1.00  0.00     0.001 A 
HETATM   10  C   UNL     1      43.045 -31.316   2.207  1.00  0.00     0.002 A 
HETATM   11  C   UNL     1      44.048 -31.743   1.330  1.00  0.00     0.024 A 
HETATM   12  H   UNL     1      46.827 -31.804   0.731  1.00  0.00     0.130 HD
ENDROOT
BRANCH   7  13
HETATM   13  C   UNL     1      45.960 -29.755  -1.768  1.00  0.00     0.014 A 
HETATM   14  C   UNL     1      45.207 -30.596  -2.607  1.00  0.00     0.075 A 
HETATM   15  C   UNL     1      44.482 -30.099  -3.692  1.00  0.00     0.037 A 
HETATM   16  C   UNL     1      44.512 -28.740  -3.987  1.00  0.00     0.003 A 
HETATM   17  C   UNL     1      45.273 -27.885  -3.200  1.00  0.00     0.001 A 
HETATM   18  C   UNL     1      45.989 -28.387  -2.108  1.00  0.00     0.013 A 
BRANCH  14  19
HETATM   19  O   UNL     1      45.135 -31.951  -2.428  1.00  0.00    -0.360 OA
HETATM   20  H   UNL     1      44.246 -32.147  -2.066  1.00  0.00     0.217 HD
ENDBRANCH  14  19
ENDBRANCH   7  13
BRANCH   1  21
HETATM   21  N   UNL     1      48.662 -29.183   0.719  1.00  0.00    -0.123 NA
HETATM   22  H   UNL     1      49.266 -29.165  -0.116  1.00  0.00     0.165 HD
BRANCH  21  23
HETATM   23  S   UNL     1      49.299 -30.230   1.890  1.00  0.00     0.222 S 
HETATM   24  C   UNL     1      50.850 -30.677   1.137  1.00  0.00     0.181 C 
HETATM   25  O   UNL     1      48.461 -31.405   1.965  1.00  0.00    -0.210 OA
HETATM   26  O   UNL     1      49.584 -29.424   3.056  1.00  0.00    -0.210 OA
ENDBRANCH  21  23
ENDBRANCH   1  21
TORSDOF 4
ENDMDL
