MODEL 1
REMARK VINA RESULT:      -9.0      0.000      0.000
REMARK  8 active torsions:
REMARK  status: ('A' for Active; 'I' for Inactive)
REMARK    1  A    between atoms: C_4  and  S_5 
REMARK    2  A    between atoms: S_5  and  C_6 
REMARK    3  A    between atoms: C_6  and  C_7 
REMARK       I    between atoms: C_7  and  N_8 
REMARK    4  A    between atoms: N_8  and  C_9 
REMARK    5  A    between atoms: C_10  and  O_11 
REMARK    6  A    between atoms: C_22  and  C_23 
REMARK    7  A    between atoms: C_29  and  C_30 
REMARK       I    between atoms: C_30  and  N_31 
REMARK    8  A    between atoms: N_31  and  C_32 
ROOT
HETATM    1  C   UNL     1      44.673 -12.243   6.753  1.00  0.00     0.069 C 
HETATM    2  C   UNL     1      43.221 -12.006   6.418  1.00  0.00     0.019 C 
HETATM    3  N   UNL     1      42.727 -10.747   6.731  1.00  0.00    -0.353 N 
HETATM    4  C   UNL     1      41.375 -10.458   6.836  1.00  0.00     0.088 C 
HETATM    5  C   UNL     1      40.475 -11.279   6.244  1.00  0.00     0.069 C 
HETATM    6  C   UNL     1      39.063 -11.089   6.327  1.00  0.00     0.099 C 
HETATM    7  N   UNL     1      37.908 -11.005   6.381  1.00  0.00    -0.192 NA
HETATM    8  C   UNL     1      40.956 -12.533   5.514  1.00  0.00     0.106 C 
HETATM    9  C   UNL     1      42.392 -12.926   5.866  1.00  0.00     0.046 C 
HETATM   10  H   UNL     1      43.334 -10.136   7.273  1.00  0.00     0.166 HD
ENDROOT
BRANCH   4  11
HETATM   11  S   UNL     1      40.853  -9.111   7.840  1.00  0.00    -0.102 SA
BRANCH  11  12
HETATM   12  C   UNL     1      41.750  -7.809   6.941  1.00  0.00     0.184 C 
BRANCH  12  13
HETATM   13  C   UNL     1      42.108  -6.623   7.816  1.00  0.00     0.231 C 
HETATM   14  N   UNL     1      42.827  -6.841   8.963  1.00  0.00    -0.324 N 
HETATM   15  H   UNL     1      42.644  -6.159   9.695  1.00  0.00     0.169 HD
HETATM   16  O   UNL     1      41.628  -5.506   7.615  1.00  0.00    -0.272 OA
BRANCH  14  17
HETATM   17  C   UNL     1      43.706  -7.882   9.304  1.00  0.00     0.070 A 
HETATM   18  C   UNL     1      43.496  -8.560  10.519  1.00  0.00     0.095 A 
HETATM   19  C   UNL     1      44.387  -9.559  10.921  1.00  0.00     0.041 A 
HETATM   20  C   UNL     1      45.482  -9.885  10.116  1.00  0.00     0.026 A 
HETATM   21  C   UNL     1      45.689  -9.205   8.920  1.00  0.00     0.036 A 
HETATM   22 CL   UNL     1      47.056  -9.585   7.945  1.00  0.00    -0.084 Cl
HETATM   23  C   UNL     1      44.813  -8.203   8.512  1.00  0.00     0.056 A 
BRANCH  18  24
HETATM   24  O   UNL     1      42.393  -8.179  11.244  1.00  0.00    -0.354 OA
HETATM   25  C   UNL     1      41.547  -9.243  11.675  1.00  0.00     0.210 C 
ENDBRANCH  18  24
ENDBRANCH  14  17
ENDBRANCH  12  13
ENDBRANCH  11  12
ENDBRANCH   4  11
BRANCH   8  26
HETATM   26  C   UNL     1      40.732 -12.392   4.005  1.00  0.00    -0.044 A 
HETATM   27  C   UNL     1      39.921 -13.291   3.290  1.00  0.00     0.008 A 
HETATM   28  C   UNL     1      39.735 -13.142   1.916  1.00  0.00     0.001 A 
HETATM   29  C   UNL     1      40.367 -12.106   1.232  1.00  0.00     0.000 A 
HETATM   30  C   UNL     1      41.191 -11.221   1.922  1.00  0.00     0.001 A 
HETATM   31  C   UNL     1      41.375 -11.361   3.298  1.00  0.00     0.008 A 
ENDBRANCH   8  26
BRANCH   9  32
HETATM   32  C   UNL     1      42.777 -14.378   5.830  1.00  0.00     0.255 C 
HETATM   33  N   UNL     1      43.260 -14.818   4.617  1.00  0.00    -0.323 N 
HETATM   34  H   UNL     1      43.464 -14.128   3.907  1.00  0.00     0.169 HD
HETATM   35  O   UNL     1      42.565 -15.081   6.814  1.00  0.00    -0.268 OA
BRANCH  33  36
HETATM   36  C   UNL     1      43.464 -16.157   4.213  1.00  0.00     0.035 A 
HETATM   37  C   UNL     1      44.110 -17.123   4.987  1.00  0.00     0.029 A 
HETATM   38  C   UNL     1      44.232 -18.438   4.527  1.00  0.00     0.002 A 
HETATM   39  C   UNL     1      43.703 -18.802   3.292  1.00  0.00     0.000 A 
HETATM   40  C   UNL     1      43.060 -17.847   2.508  1.00  0.00     0.002 A 
HETATM   41  C   UNL     1      42.948 -16.530   2.964  1.00  0.00     0.029 A 
ENDBRANCH  33  36
ENDBRANCH   9  32
TORSDOF 8
ENDMDL
MODEL 2
REMARK VINA RESULT:      -8.9      2.563      4.068
REMARK  8 active torsions:
REMARK  status: ('A' for Active; 'I' for Inactive)
REMARK    1  A    between atoms: C_4  and  S_5 
REMARK    2  A    between atoms: S_5  and  C_6 
REMARK    3  A    between atoms: C_6  and  C_7 
REMARK       I    between atoms: C_7  and  N_8 
REMARK    4  A    between atoms: N_8  and  C_9 
REMARK    5  A    between atoms: C_10  and  O_11 
REMARK    6  A    between atoms: C_22  and  C_23 
REMARK    7  A    between atoms: C_29  and  C_30 
REMARK       I    between atoms: C_30  and  N_31 
REMARK    8  A    between atoms: N_31  and  C_32 
ROOT
HETATM    1  C   UNL     1      44.072 -11.733   3.334  1.00  0.00     0.069 C 
HETATM    2  C   UNL     1      42.689 -11.741   2.732  1.00  0.00     0.019 C 
HETATM    3  N   UNL     1      41.978 -10.552   2.835  1.00  0.00    -0.353 N 
HETATM    4  C   UNL     1      40.603 -10.465   2.677  1.00  0.00     0.088 C 
HETATM    5  C   UNL     1      39.949 -11.451   2.019  1.00  0.00     0.069 C 
HETATM    6  C   UNL     1      38.533 -11.472   1.838  1.00  0.00     0.099 C 
HETATM    7  N   UNL     1      37.387 -11.560   1.683  1.00  0.00    -0.192 NA
HETATM    8  C   UNL     1      40.723 -12.665   1.505  1.00  0.00     0.106 C 
HETATM    9  C   UNL     1      42.109 -12.811   2.135  1.00  0.00     0.046 C 
HETATM   10  H   UNL     1      42.385  -9.821   3.414  1.00  0.00     0.166 HD
ENDROOT
BRANCH   4  11
HETATM   11  S   UNL     1      39.726  -9.147   3.444  1.00  0.00    -0.102 SA
BRANCH  11  12
HETATM   12  C   UNL     1      41.120  -8.492   4.410  1.00  0.00     0.184 C 
BRANCH  12  13
HETATM   13  C   UNL     1      40.777  -8.269   5.870  1.00  0.00     0.231 C 
HETATM   14  N   UNL     1      41.037  -9.270   6.770  1.00  0.00    -0.324 N 
HETATM   15  H   UNL     1      40.410  -9.272   7.571  1.00  0.00     0.169 HD
HETATM   16  O   UNL     1      40.122  -7.292   6.236  1.00  0.00    -0.272 OA
BRANCH  14  17
HETATM   17  C   UNL     1      41.971 -10.319   6.724  1.00  0.00     0.070 A 
HETATM   18  C   UNL     1      41.519 -11.596   6.346  1.00  0.00     0.095 A 
HETATM   19  C   UNL     1      42.407 -12.676   6.349  1.00  0.00     0.041 A 
HETATM   20  C   UNL     1      43.739 -12.486   6.722  1.00  0.00     0.026 A 
HETATM   21  C   UNL     1      44.178 -11.221   7.103  1.00  0.00     0.036 A 
HETATM   22 CL   UNL     1      45.812 -10.994   7.594  1.00  0.00    -0.084 Cl
HETATM   23  C   UNL     1      43.302 -10.139   7.112  1.00  0.00     0.056 A 
BRANCH  18  24
HETATM   24  O   UNL     1      40.196 -11.692   5.989  1.00  0.00    -0.354 OA
HETATM   25  C   UNL     1      39.811 -12.929   5.394  1.00  0.00     0.210 C 
ENDBRANCH  18  24
ENDBRANCH  14  17
ENDBRANCH  12  13
ENDBRANCH  11  12
ENDBRANCH   4  11
BRANCH   8  26
HETATM   26  C   UNL     1      40.764 -12.663  -0.027  1.00  0.00    -0.044 A 
HETATM   27  C   UNL     1      41.265 -11.569  -0.752  1.00  0.00     0.008 A 
HETATM   28  C   UNL     1      41.290 -11.590  -2.147  1.00  0.00     0.001 A 
HETATM   29  C   UNL     1      40.801 -12.696  -2.838  1.00  0.00     0.000 A 
HETATM   30  C   UNL     1      40.281 -13.780  -2.135  1.00  0.00     0.001 A 
HETATM   31  C   UNL     1      40.261 -13.766  -0.740  1.00  0.00     0.008 A 
ENDBRANCH   8  26
BRANCH   9  32
HETATM   32  C   UNL     1      42.689 -14.188   2.304  1.00  0.00     0.255 C 
HETATM   33  N   UNL     1      42.311 -14.835   3.460  1.00  0.00    -0.323 N 
HETATM   34  H   UNL     1      41.575 -14.424   4.018  1.00  0.00     0.169 HD
HETATM   35  O   UNL     1      43.501 -14.603   1.483  1.00  0.00    -0.268 OA
BRANCH  33  36
HETATM   36  C   UNL     1      42.877 -16.011   4.005  1.00  0.00     0.035 A 
HETATM   37  C   UNL     1      42.923 -17.240   3.346  1.00  0.00     0.029 A 
HETATM   38  C   UNL     1      43.539 -18.344   3.942  1.00  0.00     0.002 A 
HETATM   39  C   UNL     1      44.122 -18.228   5.201  1.00  0.00     0.000 A 
HETATM   40  C   UNL     1      44.079 -17.008   5.871  1.00  0.00     0.002 A 
HETATM   41  C   UNL     1      43.453 -15.907   5.278  1.00  0.00     0.029 A 
ENDBRANCH  33  36
ENDBRANCH   9  32
TORSDOF 8
ENDMDL
MODEL 3
REMARK VINA RESULT:      -8.9      2.127      3.364
REMARK  8 active torsions:
REMARK  status: ('A' for Active; 'I' for Inactive)
REMARK    1  A    between atoms: C_4  and  S_5 
REMARK    2  A    between atoms: S_5  and  C_6 
REMARK    3  A    between atoms: C_6  and  C_7 
REMARK       I    between atoms: C_7  and  N_8 
REMARK    4  A    between atoms: N_8  and  C_9 
REMARK    5  A    between atoms: C_10  and  O_11 
REMARK    6  A    between atoms: C_22  and  C_23 
REMARK    7  A    between atoms: C_29  and  C_30 
REMARK       I    between atoms: C_30  and  N_31 
REMARK    8  A    between atoms: N_31  and  C_32 
ROOT
HETATM    1  C   UNL     1      40.288 -15.218   6.284  1.00  0.00     0.069 C 
HETATM    2  C   UNL     1      40.780 -13.816   6.022  1.00  0.00     0.019 C 
HETATM    3  N   UNL     1      40.078 -12.801   6.657  1.00  0.00    -0.353 N 
HETATM    4  C   UNL     1      40.139 -11.469   6.273  1.00  0.00     0.088 C 
HETATM    5  C   UNL     1      41.188 -11.043   5.531  1.00  0.00     0.069 C 
HETATM    6  C   UNL     1      41.322  -9.704   5.054  1.00  0.00     0.099 C 
HETATM    7  N   UNL     1      41.474  -8.641   4.615  1.00  0.00    -0.192 NA
HETATM    8  C   UNL     1      42.260 -12.038   5.087  1.00  0.00     0.106 C 
HETATM    9  C   UNL     1      41.821 -13.498   5.213  1.00  0.00     0.046 C 
HETATM   10  H   UNL     1      39.219 -13.064   7.136  1.00  0.00     0.166 HD
ENDROOT
BRANCH   4  11
HETATM   11  S   UNL     1      38.793 -10.399   6.645  1.00  0.00    -0.102 SA
BRANCH  11  12
HETATM   12  C   UNL     1      39.394  -9.853   8.272  1.00  0.00     0.184 C 
BRANCH  12  13
HETATM   13  C   UNL     1      39.324  -8.349   8.456  1.00  0.00     0.231 C 
HETATM   14  N   UNL     1      40.173  -7.752   9.352  1.00  0.00    -0.324 N 
HETATM   15  H   UNL     1      39.801  -6.900   9.762  1.00  0.00     0.169 HD
HETATM   16  O   UNL     1      38.418  -7.680   7.955  1.00  0.00    -0.272 OA
BRANCH  14  17
HETATM   17  C   UNL     1      41.425  -8.167   9.836  1.00  0.00     0.070 A 
HETATM   18  C   UNL     1      41.496  -8.681  11.144  1.00  0.00     0.095 A 
HETATM   19  C   UNL     1      42.734  -9.045  11.682  1.00  0.00     0.041 A 
HETATM   20  C   UNL     1      43.897  -8.901  10.921  1.00  0.00     0.026 A 
HETATM   21  C   UNL     1      43.821  -8.384   9.631  1.00  0.00     0.036 A 
HETATM   22 CL   UNL     1      45.258  -8.177   8.706  1.00  0.00    -0.084 Cl
HETATM   23  C   UNL     1      42.595  -8.011   9.087  1.00  0.00     0.056 A 
BRANCH  18  24
HETATM   24  O   UNL     1      40.304  -8.794  11.818  1.00  0.00    -0.354 OA
HETATM   25  C   UNL     1      39.992 -10.100  12.296  1.00  0.00     0.210 C 
ENDBRANCH  18  24
ENDBRANCH  14  17
ENDBRANCH  12  13
ENDBRANCH  11  12
ENDBRANCH   4  11
BRANCH   8  26
HETATM   26  C   UNL     1      43.584 -11.753   5.804  1.00  0.00    -0.044 A 
HETATM   27  C   UNL     1      43.662 -11.658   7.203  1.00  0.00     0.008 A 
HETATM   28  C   UNL     1      44.879 -11.395   7.832  1.00  0.00     0.001 A 
HETATM   29  C   UNL     1      46.032 -11.206   7.073  1.00  0.00     0.000 A 
HETATM   30  C   UNL     1      45.968 -11.276   5.684  1.00  0.00     0.001 A 
HETATM   31  C   UNL     1      44.754 -11.545   5.051  1.00  0.00     0.008 A 
ENDBRANCH   8  26
BRANCH   9  32
HETATM   32  C   UNL     1      42.380 -14.510   4.253  1.00  0.00     0.255 C 
HETATM   33  N   UNL     1      42.310 -15.817   4.686  1.00  0.00    -0.323 N 
HETATM   34  H   UNL     1      41.767 -16.016   5.515  1.00  0.00     0.169 HD
HETATM   35  O   UNL     1      42.924 -14.126   3.222  1.00  0.00    -0.268 OA
BRANCH  33  36
HETATM   36  C   UNL     1      42.963 -16.938   4.126  1.00  0.00     0.035 A 
HETATM   37  C   UNL     1      43.975 -17.658   4.764  1.00  0.00     0.029 A 
HETATM   38  C   UNL     1      44.540 -18.784   4.154  1.00  0.00     0.002 A 
HETATM   39  C   UNL     1      44.092 -19.203   2.904  1.00  0.00     0.000 A 
HETATM   40  C   UNL     1      43.087 -18.491   2.256  1.00  0.00     0.002 A 
HETATM   41  C   UNL     1      42.530 -17.360   2.862  1.00  0.00     0.029 A 
ENDBRANCH  33  36
ENDBRANCH   9  32
TORSDOF 8
ENDMDL
MODEL 4
REMARK VINA RESULT:      -8.8      2.849      4.226
REMARK  8 active torsions:
REMARK  status: ('A' for Active; 'I' for Inactive)
REMARK    1  A    between atoms: C_4  and  S_5 
REMARK    2  A    between atoms: S_5  and  C_6 
REMARK    3  A    between atoms: C_6  and  C_7 
REMARK       I    between atoms: C_7  and  N_8 
REMARK    4  A    between atoms: N_8  and  C_9 
REMARK    5  A    between atoms: C_10  and  O_11 
REMARK    6  A    between atoms: C_22  and  C_23 
REMARK    7  A    between atoms: C_29  and  C_30 
REMARK       I    between atoms: C_30  and  N_31 
REMARK    8  A    between atoms: N_31  and  C_32 
ROOT
HETATM    1  C   UNL     1      40.227 -14.825   6.258  1.00  0.00     0.069 C 
HETATM    2  C   UNL     1      40.769 -13.436   6.033  1.00  0.00     0.019 C 
HETATM    3  N   UNL     1      40.062 -12.406   6.639  1.00  0.00    -0.353 N 
HETATM    4  C   UNL     1      40.178 -11.074   6.270  1.00  0.00     0.088 C 
HETATM    5  C   UNL     1      41.276 -10.670   5.587  1.00  0.00     0.069 C 
HETATM    6  C   UNL     1      41.470  -9.333   5.129  1.00  0.00     0.099 C 
HETATM    7  N   UNL     1      41.673  -8.272   4.707  1.00  0.00    -0.192 NA
HETATM    8  C   UNL     1      42.343 -11.692   5.191  1.00  0.00     0.106 C 
HETATM    9  C   UNL     1      41.859 -13.140   5.282  1.00  0.00     0.046 C 
HETATM   10  H   UNL     1      39.173 -12.649   7.071  1.00  0.00     0.166 HD
ENDROOT
BRANCH   4  11
HETATM   11  S   UNL     1      38.844  -9.970   6.580  1.00  0.00    -0.102 SA
BRANCH  11  12
HETATM   12  C   UNL     1      39.486  -9.286   8.138  1.00  0.00     0.184 C 
BRANCH  12  13
HETATM   13  C   UNL     1      39.121 -10.125   9.349  1.00  0.00     0.231 C 
HETATM   14  N   UNL     1      39.822  -9.945  10.513  1.00  0.00    -0.324 N 
HETATM   15  H   UNL     1      39.871 -10.778  11.093  1.00  0.00     0.169 HD
HETATM   16  O   UNL     1      38.337 -11.071   9.264  1.00  0.00    -0.272 OA
BRANCH  14  17
HETATM   17  C   UNL     1      40.533  -8.828  10.986  1.00  0.00     0.070 A 
HETATM   18  C   UNL     1      41.927  -8.944  11.141  1.00  0.00     0.095 A 
HETATM   19  C   UNL     1      42.658  -7.876  11.669  1.00  0.00     0.041 A 
HETATM   20  C   UNL     1      42.007  -6.696  12.036  1.00  0.00     0.026 A 
HETATM   21  C   UNL     1      40.627  -6.591  11.888  1.00  0.00     0.036 A 
HETATM   22 CL   UNL     1      39.822  -5.148  12.371  1.00  0.00    -0.084 Cl
HETATM   23  C   UNL     1      39.886  -7.651  11.371  1.00  0.00     0.056 A 
BRANCH  18  24
HETATM   24  O   UNL     1      42.486 -10.137  10.750  1.00  0.00    -0.354 OA
HETATM   25  C   UNL     1      43.563 -10.602  11.558  1.00  0.00     0.210 C 
ENDBRANCH  18  24
ENDBRANCH  14  17
ENDBRANCH  12  13
ENDBRANCH  11  12
ENDBRANCH   4  11
BRANCH   8  26
HETATM   26  C   UNL     1      43.635 -11.447   5.978  1.00  0.00    -0.044 A 
HETATM   27  C   UNL     1      43.618 -11.125   7.346  1.00  0.00     0.008 A 
HETATM   28  C   UNL     1      44.808 -10.904   8.040  1.00  0.00     0.001 A 
HETATM   29  C   UNL     1      46.030 -10.986   7.376  1.00  0.00     0.000 A 
HETATM   30  C   UNL     1      46.062 -11.283   6.016  1.00  0.00     0.001 A 
HETATM   31  C   UNL     1      44.875 -11.511   5.319  1.00  0.00     0.008 A 
ENDBRANCH   8  26
BRANCH   9  32
HETATM   32  C   UNL     1      42.440 -14.161   4.344  1.00  0.00     0.255 C 
HETATM   33  N   UNL     1      42.303 -15.468   4.757  1.00  0.00    -0.323 N 
HETATM   34  H   UNL     1      41.707 -15.657   5.551  1.00  0.00     0.169 HD
HETATM   35  O   UNL     1      43.055 -13.783   3.352  1.00  0.00    -0.268 OA
BRANCH  33  36
HETATM   36  C   UNL     1      42.952 -16.605   4.223  1.00  0.00     0.035 A 
HETATM   37  C   UNL     1      43.938 -17.334   4.890  1.00  0.00     0.029 A 
HETATM   38  C   UNL     1      44.499 -18.473   4.304  1.00  0.00     0.002 A 
HETATM   39  C   UNL     1      44.074 -18.898   3.049  1.00  0.00     0.000 A 
HETATM   40  C   UNL     1      43.094 -18.178   2.371  1.00  0.00     0.002 A 
HETATM   41  C   UNL     1      42.541 -17.033   2.953  1.00  0.00     0.029 A 
ENDBRANCH  33  36
ENDBRANCH   9  32
TORSDOF 8
ENDMDL
MODEL 5
REMARK VINA RESULT:      -8.6      2.980      5.196
REMARK  8 active torsions:
REMARK  status: ('A' for Active; 'I' for Inactive)
REMARK    1  A    between atoms: C_4  and  S_5 
REMARK    2  A    between atoms: S_5  and  C_6 
REMARK    3  A    between atoms: C_6  and  C_7 
REMARK       I    between atoms: C_7  and  N_8 
REMARK    4  A    between atoms: N_8  and  C_9 
REMARK    5  A    between atoms: C_10  and  O_11 
REMARK    6  A    between atoms: C_22  and  C_23 
REMARK    7  A    between atoms: C_29  and  C_30 
REMARK       I    between atoms: C_30  and  N_31 
REMARK    8  A    between atoms: N_31  and  C_32 
ROOT
HETATM    1  C   UNL     1      38.876 -11.076   3.680  1.00  0.00     0.069 C 
HETATM    2  C   UNL     1      40.343 -11.424   3.727  1.00  0.00     0.019 C 
HETATM    3  N   UNL     1      40.970 -11.231   4.951  1.00  0.00    -0.353 N 
HETATM    4  C   UNL     1      42.346 -11.147   5.103  1.00  0.00     0.088 C 
HETATM    5  C   UNL     1      43.150 -11.651   4.137  1.00  0.00     0.069 C 
HETATM    6  C   UNL     1      44.575 -11.578   4.182  1.00  0.00     0.099 C 
HETATM    7  N   UNL     1      45.733 -11.526   4.147  1.00  0.00    -0.192 NA
HETATM    8  C   UNL     1      42.535 -12.258   2.876  1.00  0.00     0.106 C 
HETATM    9  C   UNL     1      41.067 -11.879   2.675  1.00  0.00     0.046 C 
HETATM   10  H   UNL     1      40.434 -10.754   5.673  1.00  0.00     0.166 HD
ENDROOT
BRANCH   4  11
HETATM   11  S   UNL     1      43.012 -10.275   6.478  1.00  0.00    -0.102 SA
BRANCH  11  12
HETATM   12  C   UNL     1      41.653  -9.081   6.658  1.00  0.00     0.184 C 
BRANCH  12  13
HETATM   13  C   UNL     1      42.134  -7.673   6.952  1.00  0.00     0.231 C 
HETATM   14  N   UNL     1      42.414  -7.328   8.249  1.00  0.00    -0.324 N 
HETATM   15  H   UNL     1      42.278  -6.340   8.446  1.00  0.00     0.169 HD
HETATM   16  O   UNL     1      42.116  -6.793   6.090  1.00  0.00    -0.272 OA
BRANCH  14  17
HETATM   17  C   UNL     1      42.783  -8.125   9.345  1.00  0.00     0.070 A 
HETATM   18  C   UNL     1      44.135  -8.491   9.477  1.00  0.00     0.095 A 
HETATM   19  C   UNL     1      44.528  -9.336  10.519  1.00  0.00     0.041 A 
HETATM   20  C   UNL     1      43.581  -9.811  11.430  1.00  0.00     0.026 A 
HETATM   21  C   UNL     1      42.244  -9.452  11.289  1.00  0.00     0.036 A 
HETATM   22 CL   UNL     1      41.072 -10.064  12.392  1.00  0.00    -0.084 Cl
HETATM   23  C   UNL     1      41.838  -8.618  10.250  1.00  0.00     0.056 A 
BRANCH  18  24
HETATM   24  O   UNL     1      44.999  -7.975   8.542  1.00  0.00    -0.354 OA
HETATM   25  C   UNL     1      46.025  -8.860   8.102  1.00  0.00     0.210 C 
ENDBRANCH  18  24
ENDBRANCH  14  17
ENDBRANCH  12  13
ENDBRANCH  11  12
ENDBRANCH   4  11
BRANCH   8  26
HETATM   26  C   UNL     1      42.766 -13.773   2.845  1.00  0.00    -0.044 A 
HETATM   27  C   UNL     1      43.248 -14.424   1.697  1.00  0.00     0.008 A 
HETATM   28  C   UNL     1      43.448 -15.804   1.693  1.00  0.00     0.001 A 
HETATM   29  C   UNL     1      43.154 -16.557   2.828  1.00  0.00     0.000 A 
HETATM   30  C   UNL     1      42.655 -15.930   3.966  1.00  0.00     0.001 A 
HETATM   31  C   UNL     1      42.460 -14.548   3.977  1.00  0.00     0.008 A 
ENDBRANCH   8  26
BRANCH   9  32
HETATM   32  C   UNL     1      40.529 -11.775   1.275  1.00  0.00     0.255 C 
HETATM   33  N   UNL     1      39.820 -12.876   0.846  1.00  0.00    -0.323 N 
HETATM   34  H   UNL     1      39.584 -13.586   1.526  1.00  0.00     0.169 HD
HETATM   35  O   UNL     1      40.814 -10.797   0.592  1.00  0.00    -0.268 OA
BRANCH  33  36
HETATM   36  C   UNL     1      39.416 -13.170  -0.476  1.00  0.00     0.035 A 
HETATM   37  C   UNL     1      40.030 -14.120  -1.294  1.00  0.00     0.029 A 
HETATM   38  C   UNL     1      39.538 -14.377  -2.578  1.00  0.00     0.002 A 
HETATM   39  C   UNL     1      38.422 -13.693  -3.053  1.00  0.00     0.000 A 
HETATM   40  C   UNL     1      37.803 -12.741  -2.248  1.00  0.00     0.002 A 
HETATM   41  C   UNL     1      38.302 -12.476  -0.969  1.00  0.00     0.029 A 
ENDBRANCH  33  36
ENDBRANCH   9  32
TORSDOF 8
ENDMDL
MODEL 6
REMARK VINA RESULT:      -8.6      2.079      2.970
REMARK  8 active torsions:
REMARK  status: ('A' for Active; 'I' for Inactive)
REMARK    1  A    between atoms: C_4  and  S_5 
REMARK    2  A    between atoms: S_5  and  C_6 
REMARK    3  A    between atoms: C_6  and  C_7 
REMARK       I    between atoms: C_7  and  N_8 
REMARK    4  A    between atoms: N_8  and  C_9 
REMARK    5  A    between atoms: C_10  and  O_11 
REMARK    6  A    between atoms: C_22  and  C_23 
REMARK    7  A    between atoms: C_29  and  C_30 
REMARK       I    between atoms: C_30  and  N_31 
REMARK    8  A    between atoms: N_31  and  C_32 
ROOT
HETATM    1  C   UNL     1      44.619 -12.788   6.704  1.00  0.00     0.069 C 
HETATM    2  C   UNL     1      43.236 -12.293   6.363  1.00  0.00     0.019 C 
HETATM    3  N   UNL     1      42.941 -10.997   6.766  1.00  0.00    -0.353 N 
HETATM    4  C   UNL     1      41.651 -10.500   6.869  1.00  0.00     0.088 C 
HETATM    5  C   UNL     1      40.649 -11.117   6.198  1.00  0.00     0.069 C 
HETATM    6  C   UNL     1      39.284 -10.707   6.271  1.00  0.00     0.099 C 
HETATM    7  N   UNL     1      38.156 -10.441   6.311  1.00  0.00    -0.192 NA
HETATM    8  C   UNL     1      40.943 -12.376   5.381  1.00  0.00     0.106 C 
HETATM    9  C   UNL     1      42.286 -13.022   5.726  1.00  0.00     0.046 C 
HETATM   10  H   UNL     1      43.622 -10.535   7.365  1.00  0.00     0.166 HD
ENDROOT
BRANCH   4  11
HETATM   11  S   UNL     1      41.322  -9.165   7.966  1.00  0.00    -0.102 SA
BRANCH  11  12
HETATM   12  C   UNL     1      43.014  -8.995   8.613  1.00  0.00     0.184 C 
BRANCH  12  13
HETATM   13  C   UNL     1      43.274  -9.865   9.828  1.00  0.00     0.231 C 
HETATM   14  N   UNL     1      43.046  -9.344  11.075  1.00  0.00    -0.324 N 
HETATM   15  H   UNL     1      43.635  -9.746  11.800  1.00  0.00     0.169 HD
HETATM   16  O   UNL     1      43.842 -10.954   9.730  1.00  0.00    -0.272 OA
BRANCH  14  17
HETATM   17  C   UNL     1      42.191  -8.308  11.488  1.00  0.00     0.070 A 
HETATM   18  C   UNL     1      40.876  -8.639  11.862  1.00  0.00     0.095 A 
HETATM   19  C   UNL     1      39.979  -7.629  12.218  1.00  0.00     0.041 A 
HETATM   20  C   UNL     1      40.389  -6.293  12.205  1.00  0.00     0.026 A 
HETATM   21  C   UNL     1      41.688  -5.971  11.825  1.00  0.00     0.036 A 
HETATM   22 CL   UNL     1      42.182  -4.323  11.779  1.00  0.00    -0.084 Cl
HETATM   23  C   UNL     1      42.589  -6.968  11.461  1.00  0.00     0.056 A 
BRANCH  18  24
HETATM   24  O   UNL     1      40.560  -9.977  11.852  1.00  0.00    -0.354 OA
HETATM   25  C   UNL     1      39.834 -10.443  12.987  1.00  0.00     0.210 C 
ENDBRANCH  18  24
ENDBRANCH  14  17
ENDBRANCH  12  13
ENDBRANCH  11  12
ENDBRANCH   4  11
BRANCH   8  26
HETATM   26  C   UNL     1      40.791 -12.088   3.884  1.00  0.00    -0.044 A 
HETATM   27  C   UNL     1      41.638 -11.189   3.213  1.00  0.00     0.008 A 
HETATM   28  C   UNL     1      41.477 -10.943   1.849  1.00  0.00     0.001 A 
HETATM   29  C   UNL     1      40.459 -11.575   1.140  1.00  0.00     0.000 A 
HETATM   30  C   UNL     1      39.597 -12.452   1.794  1.00  0.00     0.001 A 
HETATM   31  C   UNL     1      39.759 -12.707   3.156  1.00  0.00     0.008 A 
ENDBRANCH   8  26
BRANCH   9  32
HETATM   32  C   UNL     1      42.434 -14.511   5.584  1.00  0.00     0.255 C 
HETATM   33  N   UNL     1      43.155 -14.917   4.483  1.00  0.00    -0.323 N 
HETATM   34  H   UNL     1      43.652 -14.214   3.953  1.00  0.00     0.169 HD
HETATM   35  O   UNL     1      41.853 -15.251   6.372  1.00  0.00    -0.268 OA
BRANCH  33  36
HETATM   36  C   UNL     1      43.249 -16.226   3.957  1.00  0.00     0.035 A 
HETATM   37  C   UNL     1      42.635 -16.646   2.776  1.00  0.00     0.029 A 
HETATM   38  C   UNL     1      42.815 -17.951   2.306  1.00  0.00     0.002 A 
HETATM   39  C   UNL     1      43.617 -18.846   3.009  1.00  0.00     0.000 A 
HETATM   40  C   UNL     1      44.231 -18.440   4.191  1.00  0.00     0.002 A 
HETATM   41  C   UNL     1      44.042 -17.139   4.666  1.00  0.00     0.029 A 
ENDBRANCH  33  36
ENDBRANCH   9  32
TORSDOF 8
ENDMDL
MODEL 7
REMARK VINA RESULT:      -8.6      2.418      3.347
REMARK  8 active torsions:
REMARK  status: ('A' for Active; 'I' for Inactive)
REMARK    1  A    between atoms: C_4  and  S_5 
REMARK    2  A    between atoms: S_5  and  C_6 
REMARK    3  A    between atoms: C_6  and  C_7 
REMARK       I    between atoms: C_7  and  N_8 
REMARK    4  A    between atoms: N_8  and  C_9 
REMARK    5  A    between atoms: C_10  and  O_11 
REMARK    6  A    between atoms: C_22  and  C_23 
REMARK    7  A    between atoms: C_29  and  C_30 
REMARK       I    between atoms: C_30  and  N_31 
REMARK    8  A    between atoms: N_31  and  C_32 
ROOT
HETATM    1  C   UNL     1      44.064 -11.703   3.799  1.00  0.00     0.069 C 
HETATM    2  C   UNL     1      42.706 -11.669   3.142  1.00  0.00     0.019 C 
HETATM    3  N   UNL     1      41.923 -10.560   3.431  1.00  0.00    -0.353 N 
HETATM    4  C   UNL     1      40.552 -10.515   3.228  1.00  0.00     0.088 C 
HETATM    5  C   UNL     1      39.981 -11.392   2.368  1.00  0.00     0.069 C 
HETATM    6  C   UNL     1      38.577 -11.452   2.121  1.00  0.00     0.099 C 
HETATM    7  N   UNL     1      37.445 -11.568   1.899  1.00  0.00    -0.192 NA
HETATM    8  C   UNL     1      40.844 -12.446   1.674  1.00  0.00     0.106 C 
HETATM    9  C   UNL     1      42.213 -12.636   2.330  1.00  0.00     0.046 C 
HETATM   10  H   UNL     1      42.265  -9.931   4.154  1.00  0.00     0.166 HD
ENDROOT
BRANCH   4  11
HETATM   11  S   UNL     1      39.571  -9.412   4.186  1.00  0.00    -0.102 SA
BRANCH  11  12
HETATM   12  C   UNL     1      40.766  -9.176   5.536  1.00  0.00     0.184 C 
BRANCH  12  13
HETATM   13  C   UNL     1      40.180  -9.469   6.904  1.00  0.00     0.231 C 
HETATM   14  N   UNL     1      41.026  -9.820   7.924  1.00  0.00    -0.324 N 
HETATM   15  H   UNL     1      40.596 -10.421   8.623  1.00  0.00     0.169 HD
HETATM   16  O   UNL     1      38.964  -9.566   7.077  1.00  0.00    -0.272 OA
BRANCH  14  17
HETATM   17  C   UNL     1      42.391  -9.543   8.113  1.00  0.00     0.070 A 
HETATM   18  C   UNL     1      42.744  -8.338   8.747  1.00  0.00     0.095 A 
HETATM   19  C   UNL     1      44.092  -7.999   8.895  1.00  0.00     0.041 A 
HETATM   20  C   UNL     1      45.085  -8.858   8.418  1.00  0.00     0.026 A 
HETATM   21  C   UNL     1      44.729 -10.045   7.784  1.00  0.00     0.036 A 
HETATM   22 CL   UNL     1      45.953 -11.087   7.168  1.00  0.00    -0.084 Cl
HETATM   23  C   UNL     1      43.390 -10.390   7.623  1.00  0.00     0.056 A 
BRANCH  18  24
HETATM   24  O   UNL     1      41.704  -7.557   9.190  1.00  0.00    -0.354 OA
HETATM   25  C   UNL     1      41.853  -7.026  10.504  1.00  0.00     0.210 C 
ENDBRANCH  18  24
ENDBRANCH  14  17
ENDBRANCH  12  13
ENDBRANCH  11  12
ENDBRANCH   4  11
BRANCH   8  26
HETATM   26  C   UNL     1      40.941 -12.153   0.173  1.00  0.00    -0.044 A 
HETATM   27  C   UNL     1      41.370 -10.906  -0.311  1.00  0.00     0.008 A 
HETATM   28  C   UNL     1      41.447 -10.663  -1.683  1.00  0.00     0.001 A 
HETATM   29  C   UNL     1      41.082 -11.655  -2.590  1.00  0.00     0.000 A 
HETATM   30  C   UNL     1      40.634 -12.889  -2.126  1.00  0.00     0.001 A 
HETATM   31  C   UNL     1      40.561 -13.139  -0.755  1.00  0.00     0.008 A 
ENDBRANCH   8  26
BRANCH   9  32
HETATM   32  C   UNL     1      42.867 -13.988   2.266  1.00  0.00     0.255 C 
HETATM   33  N   UNL     1      42.376 -14.910   3.165  1.00  0.00    -0.323 N 
HETATM   34  H   UNL     1      41.536 -14.675   3.677  1.00  0.00     0.169 HD
HETATM   35  O   UNL     1      43.820 -14.160   1.513  1.00  0.00    -0.268 OA
BRANCH  33  36
HETATM   36  C   UNL     1      42.945 -16.158   3.507  1.00  0.00     0.035 A 
HETATM   37  C   UNL     1      42.950 -17.275   2.670  1.00  0.00     0.029 A 
HETATM   38  C   UNL     1      43.574 -18.461   3.072  1.00  0.00     0.002 A 
HETATM   39  C   UNL     1      44.204 -18.538   4.311  1.00  0.00     0.000 A 
HETATM   40  C   UNL     1      44.203 -17.432   5.156  1.00  0.00     0.002 A 
HETATM   41  C   UNL     1      43.570 -16.250   4.758  1.00  0.00     0.029 A 
ENDBRANCH  33  36
ENDBRANCH   9  32
TORSDOF 8
ENDMDL
MODEL 8
REMARK VINA RESULT:      -8.5      2.397      2.967
REMARK  8 active torsions:
REMARK  status: ('A' for Active; 'I' for Inactive)
REMARK    1  A    between atoms: C_4  and  S_5 
REMARK    2  A    between atoms: S_5  and  C_6 
REMARK    3  A    between atoms: C_6  and  C_7 
REMARK       I    between atoms: C_7  and  N_8 
REMARK    4  A    between atoms: N_8  and  C_9 
REMARK    5  A    between atoms: C_10  and  O_11 
REMARK    6  A    between atoms: C_22  and  C_23 
REMARK    7  A    between atoms: C_29  and  C_30 
REMARK       I    between atoms: C_30  and  N_31 
REMARK    8  A    between atoms: N_31  and  C_32 
ROOT
HETATM    1  C   UNL     1      44.396 -12.155   6.736  1.00  0.00     0.069 C 
HETATM    2  C   UNL     1      43.035 -11.703   6.268  1.00  0.00     0.019 C 
HETATM    3  N   UNL     1      42.702 -10.387   6.560  1.00  0.00    -0.353 N 
HETATM    4  C   UNL     1      41.403  -9.902   6.540  1.00  0.00     0.088 C 
HETATM    5  C   UNL     1      40.456 -10.576   5.845  1.00  0.00     0.069 C 
HETATM    6  C   UNL     1      39.086 -10.180   5.795  1.00  0.00     0.099 C 
HETATM    7  N   UNL     1      37.956  -9.927   5.738  1.00  0.00    -0.192 NA
HETATM    8  C   UNL     1      40.818 -11.882   5.137  1.00  0.00     0.106 C 
HETATM    9  C   UNL     1      42.139 -12.486   5.617  1.00  0.00     0.046 C 
HETATM   10  H   UNL     1      43.335  -9.877   7.172  1.00  0.00     0.166 HD
ENDROOT
BRANCH   4  11
HETATM   11  S   UNL     1      40.988  -8.501   7.519  1.00  0.00    -0.102 SA
BRANCH  11  12
HETATM   12  C   UNL     1      41.342  -9.254   9.136  1.00  0.00     0.184 C 
BRANCH  12  13
HETATM   13  C   UNL     1      40.105  -9.413  10.000  1.00  0.00     0.231 C 
HETATM   14  N   UNL     1      40.199  -9.155  11.343  1.00  0.00    -0.324 N 
HETATM   15  H   UNL     1      39.544  -9.688  11.908  1.00  0.00     0.169 HD
HETATM   16  O   UNL     1      39.075  -9.928   9.561  1.00  0.00    -0.272 OA
BRANCH  14  17
HETATM   17  C   UNL     1      41.094  -8.336  12.053  1.00  0.00     0.070 A 
HETATM   18  C   UNL     1      42.188  -8.946  12.694  1.00  0.00     0.095 A 
HETATM   19  C   UNL     1      43.062  -8.172  13.463  1.00  0.00     0.041 A 
HETATM   20  C   UNL     1      42.852  -6.797  13.589  1.00  0.00     0.026 A 
HETATM   21  C   UNL     1      41.763  -6.201  12.959  1.00  0.00     0.036 A 
HETATM   22 CL   UNL     1      41.487  -4.512  13.143  1.00  0.00    -0.084 Cl
HETATM   23  C   UNL     1      40.880  -6.962  12.198  1.00  0.00     0.056 A 
BRANCH  18  24
HETATM   24  O   UNL     1      42.322 -10.301  12.512  1.00  0.00    -0.354 OA
HETATM   25  C   UNL     1      43.499 -10.712  11.823  1.00  0.00     0.210 C 
ENDBRANCH  18  24
ENDBRANCH  14  17
ENDBRANCH  12  13
ENDBRANCH  11  12
ENDBRANCH   4  11
BRANCH   8  26
HETATM   26  C   UNL     1      40.768 -11.697   3.617  1.00  0.00    -0.044 A 
HETATM   27  C   UNL     1      39.819 -12.362   2.822  1.00  0.00     0.008 A 
HETATM   28  C   UNL     1      39.795 -12.179   1.439  1.00  0.00     0.001 A 
HETATM   29  C   UNL     1      40.728 -11.344   0.828  1.00  0.00     0.000 A 
HETATM   30  C   UNL     1      41.689 -10.695   1.599  1.00  0.00     0.001 A 
HETATM   31  C   UNL     1      41.712 -10.870   2.983  1.00  0.00     0.008 A 
ENDBRANCH   8  26
BRANCH   9  32
HETATM   32  C   UNL     1      42.309 -13.979   5.587  1.00  0.00     0.255 C 
HETATM   33  N   UNL     1      43.038 -14.455   4.519  1.00  0.00    -0.323 N 
HETATM   34  H   UNL     1      43.525 -13.786   3.937  1.00  0.00     0.169 HD
HETATM   35  O   UNL     1      41.738 -14.666   6.427  1.00  0.00    -0.268 OA
BRANCH  33  36
HETATM   36  C   UNL     1      43.152 -15.798   4.093  1.00  0.00     0.035 A 
HETATM   37  C   UNL     1      42.590 -16.302   2.919  1.00  0.00     0.029 A 
HETATM   38  C   UNL     1      42.788 -17.637   2.551  1.00  0.00     0.002 A 
HETATM   39  C   UNL     1      43.555 -18.479   3.351  1.00  0.00     0.000 A 
HETATM   40  C   UNL     1      44.117 -17.990   4.527  1.00  0.00     0.002 A 
HETATM   41  C   UNL     1      43.911 -16.658   4.899  1.00  0.00     0.029 A 
ENDBRANCH  33  36
ENDBRANCH   9  32
TORSDOF 8
ENDMDL
MODEL 9
REMARK VINA RESULT:      -8.4      3.296      5.586
REMARK  8 active torsions:
REMARK  status: ('A' for Active; 'I' for Inactive)
REMARK    1  A    between atoms: C_4  and  S_5 
REMARK    2  A    between atoms: S_5  and  C_6 
REMARK    3  A    between atoms: C_6  and  C_7 
REMARK       I    between atoms: C_7  and  N_8 
REMARK    4  A    between atoms: N_8  and  C_9 
REMARK    5  A    between atoms: C_10  and  O_11 
REMARK    6  A    between atoms: C_22  and  C_23 
REMARK    7  A    between atoms: C_29  and  C_30 
REMARK       I    between atoms: C_30  and  N_31 
REMARK    8  A    between atoms: N_31  and  C_32 
ROOT
HETATM    1  C   UNL     1      38.324 -11.578   2.927  1.00  0.00     0.069 C 
HETATM    2  C   UNL     1      39.788 -11.796   3.215  1.00  0.00     0.019 C 
HETATM    3  N   UNL     1      40.199 -11.507   4.510  1.00  0.00    -0.353 N 
HETATM    4  C   UNL     1      41.523 -11.299   4.866  1.00  0.00     0.088 C 
HETATM    5  C   UNL     1      42.506 -11.766   4.060  1.00  0.00     0.069 C 
HETATM    6  C   UNL     1      43.896 -11.570   4.319  1.00  0.00     0.099 C 
HETATM    7  N   UNL     1      45.037 -11.420   4.460  1.00  0.00    -0.192 NA
HETATM    8  C   UNL     1      42.146 -12.469   2.751  1.00  0.00     0.106 C 
HETATM    9  C   UNL     1      40.702 -12.225   2.309  1.00  0.00     0.046 C 
HETATM   10  H   UNL     1      39.521 -11.052   5.117  1.00  0.00     0.166 HD
ENDROOT
BRANCH   4  11
HETATM   11  S   UNL     1      41.895 -10.325   6.283  1.00  0.00    -0.102 SA
BRANCH  11  12
HETATM   12  C   UNL     1      40.272  -9.516   6.422  1.00  0.00     0.184 C 
BRANCH  12  13
HETATM   13  C   UNL     1      39.345 -10.212   7.400  1.00  0.00     0.231 C 
HETATM   14  N   UNL     1      39.588 -10.089   8.743  1.00  0.00    -0.324 N 
HETATM   15  H   UNL     1      39.271 -10.885   9.291  1.00  0.00     0.169 HD
HETATM   16  O   UNL     1      38.492 -11.016   7.019  1.00  0.00    -0.272 OA
BRANCH  14  17
HETATM   17  C   UNL     1      40.261  -9.084   9.460  1.00  0.00     0.070 A 
HETATM   18  C   UNL     1      39.675  -7.807   9.525  1.00  0.00     0.095 A 
HETATM   19  C   UNL     1      40.345  -6.767  10.175  1.00  0.00     0.041 A 
HETATM   20  C   UNL     1      41.593  -6.997  10.761  1.00  0.00     0.026 A 
HETATM   21  C   UNL     1      42.171  -8.261  10.685  1.00  0.00     0.036 A 
HETATM   22 CL   UNL     1      43.722  -8.535  11.380  1.00  0.00    -0.084 Cl
HETATM   23  C   UNL     1      41.517  -9.303  10.034  1.00  0.00     0.056 A 
BRANCH  18  24
HETATM   24  O   UNL     1      38.445  -7.671   8.927  1.00  0.00    -0.354 OA
HETATM   25  C   UNL     1      38.337  -6.606   7.986  1.00  0.00     0.210 C 
ENDBRANCH  18  24
ENDBRANCH  14  17
ENDBRANCH  12  13
ENDBRANCH  11  12
ENDBRANCH   4  11
BRANCH   8  26
HETATM   26  C   UNL     1      42.498 -13.958   2.829  1.00  0.00    -0.044 A 
HETATM   27  C   UNL     1      42.274 -14.711   3.995  1.00  0.00     0.008 A 
HETATM   28  C   UNL     1      42.606 -16.066   4.042  1.00  0.00     0.001 A 
HETATM   29  C   UNL     1      43.181 -16.683   2.934  1.00  0.00     0.000 A 
HETATM   30  C   UNL     1      43.430 -15.946   1.779  1.00  0.00     0.001 A 
HETATM   31  C   UNL     1      43.093 -14.593   1.725  1.00  0.00     0.008 A 
ENDBRANCH   8  26
BRANCH   9  32
HETATM   32  C   UNL     1      40.383 -12.218   0.840  1.00  0.00     0.255 C 
HETATM   33  N   UNL     1      39.340 -13.039   0.473  1.00  0.00    -0.323 N 
HETATM   34  H   UNL     1      38.778 -13.453   1.204  1.00  0.00     0.169 HD
HETATM   35  O   UNL     1      41.096 -11.579   0.073  1.00  0.00    -0.268 OA
BRANCH  33  36
HETATM   36  C   UNL     1      38.978 -13.426  -0.838  1.00  0.00     0.035 A 
HETATM   37  C   UNL     1      39.588 -14.459  -1.550  1.00  0.00     0.029 A 
HETATM   38  C   UNL     1      39.139 -14.804  -2.829  1.00  0.00     0.002 A 
HETATM   39  C   UNL     1      38.069 -14.123  -3.405  1.00  0.00     0.000 A 
HETATM   40  C   UNL     1      37.455 -13.088  -2.706  1.00  0.00     0.002 A 
HETATM   41  C   UNL     1      37.911 -12.737  -1.432  1.00  0.00     0.029 A 
ENDBRANCH  33  36
ENDBRANCH   9  32
TORSDOF 8
ENDMDL
MODEL 10
REMARK VINA RESULT:      -8.4      2.879      8.984
REMARK  8 active torsions:
REMARK  status: ('A' for Active; 'I' for Inactive)
REMARK    1  A    between atoms: C_4  and  S_5 
REMARK    2  A    between atoms: S_5  and  C_6 
REMARK    3  A    between atoms: C_6  and  C_7 
REMARK       I    between atoms: C_7  and  N_8 
REMARK    4  A    between atoms: N_8  and  C_9 
REMARK    5  A    between atoms: C_10  and  O_11 
REMARK    6  A    between atoms: C_22  and  C_23 
REMARK    7  A    between atoms: C_29  and  C_30 
REMARK       I    between atoms: C_30  and  N_31 
REMARK    8  A    between atoms: N_31  and  C_32 
ROOT
HETATM    1  C   UNL     1      40.284  -8.079   5.481  1.00  0.00     0.069 C 
HETATM    2  C   UNL     1      41.210  -9.175   5.947  1.00  0.00     0.019 C 
HETATM    3  N   UNL     1      42.007  -9.749   4.966  1.00  0.00    -0.353 N 
HETATM    4  C   UNL     1      42.639 -10.975   5.111  1.00  0.00     0.088 C 
HETATM    5  C   UNL     1      42.839 -11.473   6.355  1.00  0.00     0.069 C 
HETATM    6  C   UNL     1      43.443 -12.740   6.608  1.00  0.00     0.099 C 
HETATM    7  N   UNL     1      43.901 -13.772   6.877  1.00  0.00    -0.192 NA
HETATM    8  C   UNL     1      42.324 -10.704   7.573  1.00  0.00     0.106 C 
HETATM    9  C   UNL     1      41.292  -9.631   7.221  1.00  0.00     0.046 C 
HETATM   10  H   UNL     1      41.815  -9.484   4.002  1.00  0.00     0.166 HD
ENDROOT
BRANCH   4  11
HETATM   11  S   UNL     1      43.047 -11.914   3.681  1.00  0.00    -0.102 SA
BRANCH  11  12
HETATM   12  C   UNL     1      41.345 -12.172   3.097  1.00  0.00     0.184 C 
BRANCH  12  13
HETATM   13  C   UNL     1      40.443 -12.786   4.152  1.00  0.00     0.231 C 
HETATM   14  N   UNL     1      40.320 -14.151   4.203  1.00  0.00    -0.324 N 
HETATM   15  H   UNL     1      39.424 -14.466   4.565  1.00  0.00     0.169 HD
HETATM   16  O   UNL     1      39.695 -12.093   4.843  1.00  0.00    -0.272 OA
BRANCH  14  17
HETATM   17  C   UNL     1      41.196 -15.162   3.772  1.00  0.00     0.070 A 
HETATM   18  C   UNL     1      40.913 -15.813   2.557  1.00  0.00     0.095 A 
HETATM   19  C   UNL     1      41.726 -16.867   2.128  1.00  0.00     0.041 A 
HETATM   20  C   UNL     1      42.818 -17.268   2.902  1.00  0.00     0.026 A 
HETATM   21  C   UNL     1      43.087 -16.624   4.106  1.00  0.00     0.036 A 
HETATM   22 CL   UNL     1      44.413 -17.141   5.075  1.00  0.00    -0.084 Cl
HETATM   23  C   UNL     1      42.280 -15.579   4.549  1.00  0.00     0.056 A 
BRANCH  18  24
HETATM   24  O   UNL     1      39.824 -15.351   1.858  1.00  0.00    -0.354 OA
HETATM   25  C   UNL     1      40.067 -15.026   0.492  1.00  0.00     0.210 C 
ENDBRANCH  18  24
ENDBRANCH  14  17
ENDBRANCH  12  13
ENDBRANCH  11  12
ENDBRANCH   4  11
BRANCH   8  26
HETATM   26  C   UNL     1      43.497 -10.154   8.392  1.00  0.00    -0.044 A 
HETATM   27  C   UNL     1      44.523  -9.399   7.799  1.00  0.00     0.008 A 
HETATM   28  C   UNL     1      45.581  -8.910   8.566  1.00  0.00     0.001 A 
HETATM   29  C   UNL     1      45.639  -9.183   9.931  1.00  0.00     0.000 A 
HETATM   30  C   UNL     1      44.642  -9.948  10.529  1.00  0.00     0.001 A 
HETATM   31  C   UNL     1      43.578 -10.433   9.768  1.00  0.00     0.008 A 
ENDBRANCH   8  26
BRANCH   9  32
HETATM   32  C   UNL     1      40.228  -9.290   8.225  1.00  0.00     0.255 C 
HETATM   33  N   UNL     1      40.629  -8.426   9.221  1.00  0.00    -0.323 N 
HETATM   34  H   UNL     1      41.527  -7.973   9.125  1.00  0.00     0.169 HD
HETATM   35  O   UNL     1      39.136  -9.846   8.157  1.00  0.00    -0.268 OA
BRANCH  33  36
HETATM   36  C   UNL     1      39.942  -8.124  10.419  1.00  0.00     0.035 A 
HETATM   37  C   UNL     1      40.180  -8.753  11.642  1.00  0.00     0.029 A 
HETATM   38  C   UNL     1      39.482  -8.364  12.790  1.00  0.00     0.002 A 
HETATM   39  C   UNL     1      38.545  -7.336  12.727  1.00  0.00     0.000 A 
HETATM   40  C   UNL     1      38.295  -6.704  11.512  1.00  0.00     0.002 A 
HETATM   41  C   UNL     1      38.986  -7.101  10.363  1.00  0.00     0.029 A 
ENDBRANCH  33  36
ENDBRANCH   9  32
TORSDOF 8
ENDMDL
