MODEL 1
REMARK VINA RESULT:      -9.4      0.000      0.000
REMARK  8 active torsions:
REMARK  status: ('A' for Active; 'I' for Inactive)
REMARK    1  A    between atoms: C_4  and  O_5 
REMARK    2  A    between atoms: O_5  and  C_6 
REMARK    3  A    between atoms: C_8  and  C_9 
REMARK    4  A    between atoms: C_9  and  N_10 
REMARK    5  A    between atoms: C_9  and  C_14 
REMARK       I    between atoms: N_10  and  C_11 
REMARK       I    between atoms: C_11  and  N_12 
REMARK    6  A    between atoms: C_14  and  C_15 
REMARK       I    between atoms: C_15  and  N_16 
REMARK    7  A    between atoms: N_16  and  N_17 
REMARK       I    between atoms: N_17  and  C_18 
REMARK    8  A    between atoms: C_18  and  C_19 
ROOT
HETATM    1  C   UNL     1      42.703 -12.124   5.966  1.00  0.00     0.127 C 
ENDROOT
BRANCH   1   2
HETATM    2  C   UNL     1      42.186 -13.484   5.508  1.00  0.00    -0.032 A 
HETATM    3  C   UNL     1      42.816 -14.189   4.465  1.00  0.00     0.046 A 
HETATM    4  C   UNL     1      42.387 -15.465   4.086  1.00  0.00     0.076 A 
HETATM    5  C   UNL     1      41.348 -16.088   4.772  1.00  0.00     0.037 A 
HETATM    6  C   UNL     1      40.723 -15.418   5.820  1.00  0.00     0.003 A 
HETATM    7  C   UNL     1      41.144 -14.136   6.190  1.00  0.00     0.009 A 
BRANCH   4   8
HETATM    8  O   UNL     1      43.105 -16.084   3.088  1.00  0.00    -0.311 OA
BRANCH   8   9
HETATM    9  C   UNL     1      43.323 -17.439   3.191  1.00  0.00     0.076 A 
HETATM   10  C   UNL     1      42.977 -18.349   2.191  1.00  0.00     0.037 A 
HETATM   11  C   UNL     1      43.270 -19.704   2.353  1.00  0.00     0.003 A 
HETATM   12  C   UNL     1      43.927 -20.144   3.504  1.00  0.00     0.000 A 
HETATM   13  C   UNL     1      44.298 -19.230   4.490  1.00  0.00     0.003 A 
HETATM   14  C   UNL     1      44.001 -17.876   4.331  1.00  0.00     0.037 A 
ENDBRANCH   8   9
ENDBRANCH   4   8
ENDBRANCH   1   2
BRANCH   1  15
HETATM   15  N   UNL     1      44.041 -11.763   5.474  1.00  0.00    -0.339 N 
HETATM   16  C   UNL     1      45.100 -11.481   6.267  1.00  0.00     0.292 C 
HETATM   17  N   UNL     1      46.214 -11.166   5.566  1.00  0.00    -0.254 NA
HETATM   18  O   UNL     1      45.099 -11.505   7.486  1.00  0.00    -0.254 OA
HETATM   19  H   UNL     1      46.390 -11.709   4.734  1.00  0.00     0.128 HD
HETATM   20  H   UNL     1      47.027 -11.060   6.164  1.00  0.00     0.128 HD
HETATM   21  H   UNL     1      44.079 -11.329   4.563  1.00  0.00     0.164 HD
ENDBRANCH   1  15
BRANCH   1  22
HETATM   22  C   UNL     1      41.740 -10.923   5.991  1.00  0.00     0.134 C 
BRANCH  22  23
HETATM   23  C   UNL     1      41.653 -10.037   7.219  1.00  0.00     0.238 C 
HETATM   24  N   UNL     1      42.436 -10.388   8.284  1.00  0.00    -0.267 N 
HETATM   25  H   UNL     1      43.280 -10.965   8.193  1.00  0.00     0.190 HD
HETATM   26  O   UNL     1      40.824  -9.124   7.279  1.00  0.00    -0.272 OA
BRANCH  24  27
HETATM   27  N   UNL     1      42.299  -9.694   9.487  1.00  0.00    -0.262 N 
HETATM   28  C   UNL     1      43.053 -10.093  10.573  1.00  0.00     0.288 C 
HETATM   29  O   UNL     1      43.953 -10.927  10.525  1.00  0.00    -0.264 OA
HETATM   30  H   UNL     1      41.470  -9.112   9.618  1.00  0.00     0.190 HD
BRANCH  28  31
HETATM   31  C   UNL     1      42.681  -9.431  11.859  1.00  0.00     0.125 A 
HETATM   32  N   UNL     1      41.600  -9.935  12.517  1.00  0.00    -0.255 NA
HETATM   33  C   UNL     1      41.282  -9.341  13.687  1.00  0.00     0.117 A 
HETATM   34  C   UNL     1      41.980  -8.269  14.226  1.00  0.00     0.019 A 
HETATM   35  C   UNL     1      43.078  -7.774  13.528  1.00  0.00     0.004 A 
HETATM   36  C   UNL     1      43.441  -8.363  12.323  1.00  0.00     0.037 A 
ENDBRANCH  28  31
ENDBRANCH  24  27
ENDBRANCH  22  23
ENDBRANCH   1  22
TORSDOF 8
ENDMDL
MODEL 2
REMARK VINA RESULT:      -9.3      1.648      2.165
REMARK  8 active torsions:
REMARK  status: ('A' for Active; 'I' for Inactive)
REMARK    1  A    between atoms: C_4  and  O_5 
REMARK    2  A    between atoms: O_5  and  C_6 
REMARK    3  A    between atoms: C_8  and  C_9 
REMARK    4  A    between atoms: C_9  and  N_10 
REMARK    5  A    between atoms: C_9  and  C_14 
REMARK       I    between atoms: N_10  and  C_11 
REMARK       I    between atoms: C_11  and  N_12 
REMARK    6  A    between atoms: C_14  and  C_15 
REMARK       I    between atoms: C_15  and  N_16 
REMARK    7  A    between atoms: N_16  and  N_17 
REMARK       I    between atoms: N_17  and  C_18 
REMARK    8  A    between atoms: C_18  and  C_19 
ROOT
HETATM    1  C   UNL     1      43.569 -12.561   5.740  1.00  0.00     0.127 C 
ENDROOT
BRANCH   1   2
HETATM    2  C   UNL     1      42.877 -13.913   5.868  1.00  0.00    -0.032 A 
HETATM    3  C   UNL     1      43.618 -15.110   5.912  1.00  0.00     0.046 A 
HETATM    4  C   UNL     1      42.993 -16.347   6.096  1.00  0.00     0.076 A 
HETATM    5  C   UNL     1      41.616 -16.416   6.287  1.00  0.00     0.037 A 
HETATM    6  C   UNL     1      40.865 -15.245   6.267  1.00  0.00     0.003 A 
HETATM    7  C   UNL     1      41.489 -14.007   6.071  1.00  0.00     0.009 A 
BRANCH   4   8
HETATM    8  O   UNL     1      43.817 -17.447   6.173  1.00  0.00    -0.311 OA
BRANCH   8   9
HETATM    9  C   UNL     1      43.840 -18.317   5.106  1.00  0.00     0.076 A 
HETATM   10  C   UNL     1      44.012 -19.695   5.246  1.00  0.00     0.037 A 
HETATM   11  C   UNL     1      43.981 -20.516   4.117  1.00  0.00     0.003 A 
HETATM   12  C   UNL     1      43.757 -19.962   2.856  1.00  0.00     0.000 A 
HETATM   13  C   UNL     1      43.558 -18.588   2.721  1.00  0.00     0.003 A 
HETATM   14  C   UNL     1      43.593 -17.766   3.847  1.00  0.00     0.037 A 
ENDBRANCH   8   9
ENDBRANCH   4   8
ENDBRANCH   1   2
BRANCH   1  15
HETATM   15  N   UNL     1      42.718 -11.463   5.260  1.00  0.00    -0.339 N 
HETATM   16  C   UNL     1      42.851 -10.857   4.058  1.00  0.00     0.292 C 
HETATM   17  N   UNL     1      41.949  -9.866   3.864  1.00  0.00    -0.254 NA
HETATM   18  O   UNL     1      43.673 -11.146   3.206  1.00  0.00    -0.254 OA
HETATM   19  H   UNL     1      41.012 -10.040   4.194  1.00  0.00     0.128 HD
HETATM   20  H   UNL     1      41.988  -9.491   2.923  1.00  0.00     0.128 HD
HETATM   21  H   UNL     1      42.295 -10.883   5.971  1.00  0.00     0.164 HD
ENDBRANCH   1  15
BRANCH   1  22
HETATM   22  C   UNL     1      44.549 -12.111   6.839  1.00  0.00     0.134 C 
BRANCH  22  23
HETATM   23  C   UNL     1      44.166 -11.001   7.799  1.00  0.00     0.238 C 
HETATM   24  N   UNL     1      43.849 -11.377   9.076  1.00  0.00    -0.267 N 
HETATM   25  H   UNL     1      44.167 -12.258   9.495  1.00  0.00     0.190 HD
HETATM   26  O   UNL     1      44.035  -9.840   7.400  1.00  0.00    -0.272 OA
BRANCH  24  27
HETATM   27  N   UNL     1      43.358 -10.421   9.966  1.00  0.00    -0.262 N 
HETATM   28  C   UNL     1      43.538 -10.619  11.320  1.00  0.00     0.288 C 
HETATM   29  O   UNL     1      44.233 -11.509  11.805  1.00  0.00    -0.264 OA
HETATM   30  H   UNL     1      42.654  -9.763   9.627  1.00  0.00     0.190 HD
BRANCH  28  31
HETATM   31  C   UNL     1      42.798  -9.658  12.189  1.00  0.00     0.125 A 
HETATM   32  N   UNL     1      41.612 -10.086  12.706  1.00  0.00    -0.255 NA
HETATM   33  C   UNL     1      40.959  -9.215  13.503  1.00  0.00     0.117 A 
HETATM   34  C   UNL     1      41.422  -7.941  13.803  1.00  0.00     0.019 A 
HETATM   35  C   UNL     1      42.634  -7.530  13.257  1.00  0.00     0.004 A 
HETATM   36  C   UNL     1      43.341  -8.401  12.436  1.00  0.00     0.037 A 
ENDBRANCH  28  31
ENDBRANCH  24  27
ENDBRANCH  22  23
ENDBRANCH   1  22
TORSDOF 8
ENDMDL
MODEL 3
REMARK VINA RESULT:      -9.2      1.822      2.519
REMARK  8 active torsions:
REMARK  status: ('A' for Active; 'I' for Inactive)
REMARK    1  A    between atoms: C_4  and  O_5 
REMARK    2  A    between atoms: O_5  and  C_6 
REMARK    3  A    between atoms: C_8  and  C_9 
REMARK    4  A    between atoms: C_9  and  N_10 
REMARK    5  A    between atoms: C_9  and  C_14 
REMARK       I    between atoms: N_10  and  C_11 
REMARK       I    between atoms: C_11  and  N_12 
REMARK    6  A    between atoms: C_14  and  C_15 
REMARK       I    between atoms: C_15  and  N_16 
REMARK    7  A    between atoms: N_16  and  N_17 
REMARK       I    between atoms: N_17  and  C_18 
REMARK    8  A    between atoms: C_18  and  C_19 
ROOT
HETATM    1  C   UNL     1      42.232 -13.783   5.621  1.00  0.00     0.127 C 
ENDROOT
BRANCH   1   2
HETATM    2  C   UNL     1      41.925 -14.620   4.383  1.00  0.00    -0.032 A 
HETATM    3  C   UNL     1      42.899 -15.461   3.813  1.00  0.00     0.046 A 
HETATM    4  C   UNL     1      42.604 -16.280   2.719  1.00  0.00     0.076 A 
HETATM    5  C   UNL     1      41.314 -16.316   2.197  1.00  0.00     0.037 A 
HETATM    6  C   UNL     1      40.329 -15.508   2.757  1.00  0.00     0.003 A 
HETATM    7  C   UNL     1      40.628 -14.678   3.844  1.00  0.00     0.009 A 
BRANCH   4   8
HETATM    8  O   UNL     1      43.617 -17.099   2.272  1.00  0.00    -0.311 OA
BRANCH   8   9
HETATM    9  C   UNL     1      43.767 -18.330   2.869  1.00  0.00     0.076 A 
HETATM   10  C   UNL     1      44.206 -18.495   4.184  1.00  0.00     0.037 A 
HETATM   11  C   UNL     1      44.292 -19.777   4.731  1.00  0.00     0.003 A 
HETATM   12  C   UNL     1      43.919 -20.887   3.972  1.00  0.00     0.000 A 
HETATM   13  C   UNL     1      43.454 -20.718   2.668  1.00  0.00     0.003 A 
HETATM   14  C   UNL     1      43.372 -19.439   2.119  1.00  0.00     0.037 A 
ENDBRANCH   8   9
ENDBRANCH   4   8
ENDBRANCH   1   2
BRANCH   1  15
HETATM   15  N   UNL     1      42.914 -14.498   6.708  1.00  0.00    -0.339 N 
HETATM   16  C   UNL     1      42.373 -15.515   7.418  1.00  0.00     0.292 C 
HETATM   17  N   UNL     1      43.204 -15.993   8.373  1.00  0.00    -0.254 NA
HETATM   18  O   UNL     1      41.264 -15.989   7.242  1.00  0.00    -0.254 OA
HETATM   19  H   UNL     1      44.178 -16.069   8.124  1.00  0.00     0.128 HD
HETATM   20  H   UNL     1      42.832 -16.821   8.826  1.00  0.00     0.128 HD
HETATM   21  H   UNL     1      43.625 -13.980   7.205  1.00  0.00     0.164 HD
ENDBRANCH   1  15
BRANCH   1  22
HETATM   22  C   UNL     1      42.748 -12.343   5.445  1.00  0.00     0.134 C 
BRANCH  22  23
HETATM   23  C   UNL     1      42.402 -11.276   6.465  1.00  0.00     0.238 C 
HETATM   24  N   UNL     1      43.138 -11.269   7.619  1.00  0.00    -0.267 N 
HETATM   25  H   UNL     1      44.073 -11.686   7.689  1.00  0.00     0.190 HD
HETATM   26  O   UNL     1      41.426 -10.539   6.299  1.00  0.00    -0.272 OA
BRANCH  24  27
HETATM   27  N   UNL     1      42.778 -10.402   8.650  1.00  0.00    -0.262 N 
HETATM   28  C   UNL     1      43.595 -10.315   9.760  1.00  0.00     0.288 C 
HETATM   29  O   UNL     1      44.702 -10.839   9.850  1.00  0.00    -0.264 OA
HETATM   30  H   UNL     1      41.812 -10.074   8.692  1.00  0.00     0.190 HD
BRANCH  28  31
HETATM   31  C   UNL     1      43.019  -9.528  10.890  1.00  0.00     0.125 A 
HETATM   32  N   UNL     1      41.670  -9.602  11.065  1.00  0.00    -0.255 NA
HETATM   33  C   UNL     1      41.162  -8.900  12.100  1.00  0.00     0.117 A 
HETATM   34  C   UNL     1      41.927  -8.125  12.960  1.00  0.00     0.019 A 
HETATM   35  C   UNL     1      43.302  -8.065  12.754  1.00  0.00     0.004 A 
HETATM   36  C   UNL     1      43.865  -8.780  11.703  1.00  0.00     0.037 A 
ENDBRANCH  28  31
ENDBRANCH  24  27
ENDBRANCH  22  23
ENDBRANCH   1  22
TORSDOF 8
ENDMDL
MODEL 4
REMARK VINA RESULT:      -9.1      2.051      3.235
REMARK  8 active torsions:
REMARK  status: ('A' for Active; 'I' for Inactive)
REMARK    1  A    between atoms: C_4  and  O_5 
REMARK    2  A    between atoms: O_5  and  C_6 
REMARK    3  A    between atoms: C_8  and  C_9 
REMARK    4  A    between atoms: C_9  and  N_10 
REMARK    5  A    between atoms: C_9  and  C_14 
REMARK       I    between atoms: N_10  and  C_11 
REMARK       I    between atoms: C_11  and  N_12 
REMARK    6  A    between atoms: C_14  and  C_15 
REMARK       I    between atoms: C_15  and  N_16 
REMARK    7  A    between atoms: N_16  and  N_17 
REMARK       I    between atoms: N_17  and  C_18 
REMARK    8  A    between atoms: C_18  and  C_19 
ROOT
HETATM    1  C   UNL     1      42.003 -13.428   4.219  1.00  0.00     0.127 C 
ENDROOT
BRANCH   1   2
HETATM    2  C   UNL     1      42.250 -14.674   5.064  1.00  0.00    -0.032 A 
HETATM    3  C   UNL     1      43.257 -15.597   4.724  1.00  0.00     0.046 A 
HETATM    4  C   UNL     1      43.531 -16.706   5.530  1.00  0.00     0.076 A 
HETATM    5  C   UNL     1      42.837 -16.894   6.723  1.00  0.00     0.037 A 
HETATM    6  C   UNL     1      41.851 -15.984   7.090  1.00  0.00     0.003 A 
HETATM    7  C   UNL     1      41.568 -14.881   6.275  1.00  0.00     0.009 A 
BRANCH   4   8
HETATM    8  O   UNL     1      44.569 -17.516   5.130  1.00  0.00    -0.311 OA
BRANCH   8   9
HETATM    9  C   UNL     1      44.272 -18.618   4.360  1.00  0.00     0.076 A 
HETATM   10  C   UNL     1      44.276 -19.923   4.857  1.00  0.00     0.037 A 
HETATM   11  C   UNL     1      43.922 -20.984   4.022  1.00  0.00     0.003 A 
HETATM   12  C   UNL     1      43.544 -20.738   2.700  1.00  0.00     0.000 A 
HETATM   13  C   UNL     1      43.513 -19.431   2.214  1.00  0.00     0.003 A 
HETATM   14  C   UNL     1      43.871 -18.371   3.046  1.00  0.00     0.037 A 
ENDBRANCH   8   9
ENDBRANCH   4   8
ENDBRANCH   1   2
BRANCH   1  15
HETATM   15  N   UNL     1      40.598 -13.169   3.878  1.00  0.00    -0.339 N 
HETATM   16  C   UNL     1      39.912 -13.812   2.904  1.00  0.00     0.292 C 
HETATM   17  N   UNL     1      38.636 -13.378   2.783  1.00  0.00    -0.254 NA
HETATM   18  O   UNL     1      40.354 -14.699   2.195  1.00  0.00    -0.254 OA
HETATM   19  H   UNL     1      38.145 -13.181   3.642  1.00  0.00     0.128 HD
HETATM   20  H   UNL     1      38.102 -13.937   2.126  1.00  0.00     0.128 HD
HETATM   21  H   UNL     1      40.252 -12.243   4.084  1.00  0.00     0.164 HD
ENDBRANCH   1  15
BRANCH   1  22
HETATM   22  C   UNL     1      42.781 -12.138   4.537  1.00  0.00     0.134 C 
BRANCH  22  23
HETATM   23  C   UNL     1      42.437 -11.320   5.766  1.00  0.00     0.238 C 
HETATM   24  N   UNL     1      43.446 -11.114   6.667  1.00  0.00    -0.267 N 
HETATM   25  H   UNL     1      44.440 -11.174   6.419  1.00  0.00     0.190 HD
HETATM   26  O   UNL     1      41.274 -10.970   5.984  1.00  0.00    -0.272 OA
BRANCH  24  27
HETATM   27  N   UNL     1      43.158 -10.487   7.880  1.00  0.00    -0.262 N 
HETATM   28  C   UNL     1      44.088 -10.551   8.898  1.00  0.00     0.288 C 
HETATM   29  O   UNL     1      45.226 -10.997   8.772  1.00  0.00    -0.264 OA
HETATM   30  H   UNL     1      42.186 -10.246   8.081  1.00  0.00     0.190 HD
BRANCH  28  31
HETATM   31  C   UNL     1      43.601 -10.038  10.212  1.00  0.00     0.125 A 
HETATM   32  N   UNL     1      43.233  -8.728  10.261  1.00  0.00    -0.255 NA
HETATM   33  C   UNL     1      42.779  -8.278  11.450  1.00  0.00     0.117 A 
HETATM   34  C   UNL     1      42.681  -9.064  12.589  1.00  0.00     0.019 A 
HETATM   35  C   UNL     1      43.069 -10.398  12.510  1.00  0.00     0.004 A 
HETATM   36  C   UNL     1      43.536 -10.901  11.302  1.00  0.00     0.037 A 
ENDBRANCH  28  31
ENDBRANCH  24  27
ENDBRANCH  22  23
ENDBRANCH   1  22
TORSDOF 8
ENDMDL
MODEL 5
REMARK VINA RESULT:      -9.1      3.953      7.923
REMARK  8 active torsions:
REMARK  status: ('A' for Active; 'I' for Inactive)
REMARK    1  A    between atoms: C_4  and  O_5 
REMARK    2  A    between atoms: O_5  and  C_6 
REMARK    3  A    between atoms: C_8  and  C_9 
REMARK    4  A    between atoms: C_9  and  N_10 
REMARK    5  A    between atoms: C_9  and  C_14 
REMARK       I    between atoms: N_10  and  C_11 
REMARK       I    between atoms: C_11  and  N_12 
REMARK    6  A    between atoms: C_14  and  C_15 
REMARK       I    between atoms: C_15  and  N_16 
REMARK    7  A    between atoms: N_16  and  N_17 
REMARK       I    between atoms: N_17  and  C_18 
REMARK    8  A    between atoms: C_18  and  C_19 
ROOT
HETATM    1  C   UNL     1      42.361 -12.572   5.483  1.00  0.00     0.127 C 
ENDROOT
BRANCH   1   2
HETATM    2  C   UNL     1      42.171 -14.082   5.589  1.00  0.00    -0.032 A 
HETATM    3  C   UNL     1      43.190 -14.974   5.203  1.00  0.00     0.046 A 
HETATM    4  C   UNL     1      43.046 -16.355   5.360  1.00  0.00     0.076 A 
HETATM    5  C   UNL     1      41.899 -16.879   5.952  1.00  0.00     0.037 A 
HETATM    6  C   UNL     1      40.887 -16.015   6.359  1.00  0.00     0.003 A 
HETATM    7  C   UNL     1      41.025 -14.633   6.190  1.00  0.00     0.009 A 
BRANCH   4   8
HETATM    8  O   UNL     1      44.123 -17.131   4.996  1.00  0.00    -0.311 OA
BRANCH   8   9
HETATM    9  C   UNL     1      43.890 -18.234   4.206  1.00  0.00     0.076 A 
HETATM   10  C   UNL     1      43.468 -18.149   2.878  1.00  0.00     0.037 A 
HETATM   11  C   UNL     1      43.295 -19.314   2.129  1.00  0.00     0.003 A 
HETATM   12  C   UNL     1      43.563 -20.559   2.701  1.00  0.00     0.000 A 
HETATM   13  C   UNL     1      44.011 -20.641   4.019  1.00  0.00     0.003 A 
HETATM   14  C   UNL     1      44.181 -19.477   4.769  1.00  0.00     0.037 A 
ENDBRANCH   8   9
ENDBRANCH   4   8
ENDBRANCH   1   2
BRANCH   1  15
HETATM   15  N   UNL     1      42.699 -11.892   6.741  1.00  0.00    -0.339 N 
HETATM   16  C   UNL     1      43.922 -11.912   7.321  1.00  0.00     0.292 C 
HETATM   17  N   UNL     1      43.967 -11.217   8.481  1.00  0.00    -0.254 NA
HETATM   18  O   UNL     1      44.907 -12.474   6.875  1.00  0.00    -0.254 OA
HETATM   19  H   UNL     1      43.457 -10.347   8.503  1.00  0.00     0.128 HD
HETATM   20  H   UNL     1      44.909 -11.149   8.851  1.00  0.00     0.128 HD
HETATM   21  H   UNL     1      41.938 -11.746   7.388  1.00  0.00     0.164 HD
ENDBRANCH   1  15
BRANCH   1  22
HETATM   22  C   UNL     1      43.122 -11.994   4.276  1.00  0.00     0.134 C 
BRANCH  22  23
HETATM   23  C   UNL     1      42.446 -11.892   2.922  1.00  0.00     0.238 C 
HETATM   24  N   UNL     1      41.819 -13.019   2.463  1.00  0.00    -0.267 N 
HETATM   25  H   UNL     1      41.497 -13.772   3.082  1.00  0.00     0.190 HD
HETATM   26  O   UNL     1      42.569 -10.876   2.231  1.00  0.00    -0.272 OA
BRANCH  24  27
HETATM   27  N   UNL     1      41.299 -13.029   1.169  1.00  0.00    -0.262 N 
HETATM   28  C   UNL     1      39.933 -12.911   1.001  1.00  0.00     0.288 C 
HETATM   29  O   UNL     1      39.143 -12.647   1.904  1.00  0.00    -0.264 OA
HETATM   30  H   UNL     1      41.883 -13.396   0.416  1.00  0.00     0.190 HD
BRANCH  28  31
HETATM   31  C   UNL     1      39.460 -13.145  -0.395  1.00  0.00     0.125 A 
HETATM   32  N   UNL     1      38.374 -12.431  -0.802  1.00  0.00    -0.255 NA
HETATM   33  C   UNL     1      37.964 -12.638  -2.072  1.00  0.00     0.117 A 
HETATM   34  C   UNL     1      38.576 -13.523  -2.949  1.00  0.00     0.019 A 
HETATM   35  C   UNL     1      39.681 -14.242  -2.503  1.00  0.00     0.004 A 
HETATM   36  C   UNL     1      40.138 -14.051  -1.204  1.00  0.00     0.037 A 
ENDBRANCH  28  31
ENDBRANCH  24  27
ENDBRANCH  22  23
ENDBRANCH   1  22
TORSDOF 8
ENDMDL
MODEL 6
REMARK VINA RESULT:      -8.3      2.163      9.956
REMARK  8 active torsions:
REMARK  status: ('A' for Active; 'I' for Inactive)
REMARK    1  A    between atoms: C_4  and  O_5 
REMARK    2  A    between atoms: O_5  and  C_6 
REMARK    3  A    between atoms: C_8  and  C_9 
REMARK    4  A    between atoms: C_9  and  N_10 
REMARK    5  A    between atoms: C_9  and  C_14 
REMARK       I    between atoms: N_10  and  C_11 
REMARK       I    between atoms: C_11  and  N_12 
REMARK    6  A    between atoms: C_14  and  C_15 
REMARK       I    between atoms: C_15  and  N_16 
REMARK    7  A    between atoms: N_16  and  N_17 
REMARK       I    between atoms: N_17  and  C_18 
REMARK    8  A    between atoms: C_18  and  C_19 
ROOT
HETATM    1  C   UNL     1      42.686  -9.257   7.772  1.00  0.00     0.127 C 
ENDROOT
BRANCH   1   2
HETATM    2  C   UNL     1      41.777  -9.356   8.992  1.00  0.00    -0.032 A 
HETATM    3  C   UNL     1      42.298  -9.659  10.265  1.00  0.00     0.046 A 
HETATM    4  C   UNL     1      41.480  -9.686  11.399  1.00  0.00     0.076 A 
HETATM    5  C   UNL     1      40.128  -9.365  11.297  1.00  0.00     0.037 A 
HETATM    6  C   UNL     1      39.596  -9.044  10.052  1.00  0.00     0.003 A 
HETATM    7  C   UNL     1      40.412  -9.029   8.915  1.00  0.00     0.009 A 
BRANCH   4   8
HETATM    8  O   UNL     1      42.101  -9.945  12.599  1.00  0.00    -0.311 OA
BRANCH   8   9
HETATM    9  C   UNL     1      42.158  -8.933  13.531  1.00  0.00     0.076 A 
HETATM   10  C   UNL     1      41.346  -8.891  14.667  1.00  0.00     0.037 A 
HETATM   11  C   UNL     1      41.494  -7.852  15.587  1.00  0.00     0.003 A 
HETATM   12  C   UNL     1      42.464  -6.869  15.382  1.00  0.00     0.000 A 
HETATM   13  C   UNL     1      43.293  -6.928  14.262  1.00  0.00     0.003 A 
HETATM   14  C   UNL     1      43.143  -7.963  13.339  1.00  0.00     0.037 A 
ENDBRANCH   8   9
ENDBRANCH   4   8
ENDBRANCH   1   2
BRANCH   1  15
HETATM   15  N   UNL     1      44.117  -9.463   8.036  1.00  0.00    -0.339 N 
HETATM   16  C   UNL     1      44.989  -8.478   8.354  1.00  0.00     0.292 C 
HETATM   17  N   UNL     1      46.251  -8.930   8.535  1.00  0.00    -0.254 NA
HETATM   18  O   UNL     1      44.709  -7.299   8.484  1.00  0.00    -0.254 OA
HETATM   19  H   UNL     1      46.348  -9.809   9.021  1.00  0.00     0.128 HD
HETATM   20  H   UNL     1      46.873  -8.204   8.876  1.00  0.00     0.128 HD
HETATM   21  H   UNL     1      44.542 -10.263   7.591  1.00  0.00     0.164 HD
ENDBRANCH   1  15
BRANCH   1  22
HETATM   22  C   UNL     1      42.234  -9.892   6.444  1.00  0.00     0.134 C 
BRANCH  22  23
HETATM   23  C   UNL     1      42.889 -11.164   5.941  1.00  0.00     0.238 C 
HETATM   24  N   UNL     1      42.251 -12.339   6.232  1.00  0.00    -0.267 N 
HETATM   25  H   UNL     1      41.250 -12.393   6.450  1.00  0.00     0.190 HD
HETATM   26  O   UNL     1      44.000 -11.130   5.405  1.00  0.00    -0.272 OA
BRANCH  24  27
HETATM   27  N   UNL     1      42.873 -13.547   5.917  1.00  0.00    -0.262 N 
HETATM   28  C   UNL     1      42.531 -14.182   4.739  1.00  0.00     0.288 C 
HETATM   29  O   UNL     1      41.822 -13.691   3.866  1.00  0.00    -0.264 OA
HETATM   30  H   UNL     1      43.339 -14.061   6.666  1.00  0.00     0.190 HD
BRANCH  28  31
HETATM   31  C   UNL     1      43.088 -15.560   4.597  1.00  0.00     0.125 A 
HETATM   32  N   UNL     1      43.779 -16.056   5.661  1.00  0.00    -0.255 NA
HETATM   33  C   UNL     1      44.264 -17.308   5.528  1.00  0.00     0.117 A 
HETATM   34  C   UNL     1      44.102 -18.085   4.389  1.00  0.00     0.019 A 
HETATM   35  C   UNL     1      43.396 -17.550   3.316  1.00  0.00     0.004 A 
HETATM   36  C   UNL     1      42.874 -16.265   3.417  1.00  0.00     0.037 A 
ENDBRANCH  28  31
ENDBRANCH  24  27
ENDBRANCH  22  23
ENDBRANCH   1  22
TORSDOF 8
ENDMDL
MODEL 7
REMARK VINA RESULT:      -8.2      2.167      2.494
REMARK  8 active torsions:
REMARK  status: ('A' for Active; 'I' for Inactive)
REMARK    1  A    between atoms: C_4  and  O_5 
REMARK    2  A    between atoms: O_5  and  C_6 
REMARK    3  A    between atoms: C_8  and  C_9 
REMARK    4  A    between atoms: C_9  and  N_10 
REMARK    5  A    between atoms: C_9  and  C_14 
REMARK       I    between atoms: N_10  and  C_11 
REMARK       I    between atoms: C_11  and  N_12 
REMARK    6  A    between atoms: C_14  and  C_15 
REMARK       I    between atoms: C_15  and  N_16 
REMARK    7  A    between atoms: N_16  and  N_17 
REMARK       I    between atoms: N_17  and  C_18 
REMARK    8  A    between atoms: C_18  and  C_19 
ROOT
HETATM    1  C   UNL     1      41.563 -12.456   5.174  1.00  0.00     0.127 C 
ENDROOT
BRANCH   1   2
HETATM    2  C   UNL     1      41.605 -13.978   5.264  1.00  0.00    -0.032 A 
HETATM    3  C   UNL     1      42.726 -14.703   4.819  1.00  0.00     0.046 A 
HETATM    4  C   UNL     1      42.798 -16.092   4.960  1.00  0.00     0.076 A 
HETATM    5  C   UNL     1      41.770 -16.788   5.592  1.00  0.00     0.037 A 
HETATM    6  C   UNL     1      40.660 -16.089   6.058  1.00  0.00     0.003 A 
HETATM    7  C   UNL     1      40.583 -14.700   5.905  1.00  0.00     0.009 A 
BRANCH   4   8
HETATM    8  O   UNL     1      43.960 -16.695   4.535  1.00  0.00    -0.311 OA
BRANCH   8   9
HETATM    9  C   UNL     1      43.880 -17.968   4.018  1.00  0.00     0.076 A 
HETATM   10  C   UNL     1      44.162 -19.116   4.762  1.00  0.00     0.037 A 
HETATM   11  C   UNL     1      44.016 -20.374   4.176  1.00  0.00     0.003 A 
HETATM   12  C   UNL     1      43.570 -20.485   2.858  1.00  0.00     0.000 A 
HETATM   13  C   UNL     1      43.262 -19.339   2.126  1.00  0.00     0.003 A 
HETATM   14  C   UNL     1      43.412 -18.080   2.708  1.00  0.00     0.037 A 
ENDBRANCH   8   9
ENDBRANCH   4   8
ENDBRANCH   1   2
BRANCH   1  15
HETATM   15  N   UNL     1      41.608 -11.907   3.812  1.00  0.00    -0.339 N 
HETATM   16  C   UNL     1      42.630 -11.172   3.313  1.00  0.00     0.292 C 
HETATM   17  N   UNL     1      42.420 -10.776   2.037  1.00  0.00    -0.254 NA
HETATM   18  O   UNL     1      43.652 -10.884   3.911  1.00  0.00    -0.254 OA
HETATM   19  H   UNL     1      41.991 -11.450   1.421  1.00  0.00     0.128 HD
HETATM   20  H   UNL     1      43.234 -10.319   1.638  1.00  0.00     0.128 HD
HETATM   21  H   UNL     1      40.717 -11.725   3.374  1.00  0.00     0.164 HD
ENDBRANCH   1  15
BRANCH   1  22
HETATM   22  C   UNL     1      40.607 -11.674   6.094  1.00  0.00     0.134 C 
BRANCH  22  23
HETATM   23  C   UNL     1      40.993 -10.302   6.610  1.00  0.00     0.238 C 
HETATM   24  N   UNL     1      41.108 -10.168   7.967  1.00  0.00    -0.267 N 
HETATM   25  H   UNL     1      41.280 -10.960   8.596  1.00  0.00     0.190 HD
HETATM   26  O   UNL     1      41.077  -9.340   5.841  1.00  0.00    -0.272 OA
BRANCH  24  27
HETATM   27  N   UNL     1      41.326  -8.901   8.510  1.00  0.00    -0.262 N 
HETATM   28  C   UNL     1      42.063  -8.794   9.672  1.00  0.00     0.288 C 
HETATM   29  O   UNL     1      42.675  -9.722  10.194  1.00  0.00    -0.264 OA
HETATM   30  H   UNL     1      40.721  -8.135   8.208  1.00  0.00     0.190 HD
BRANCH  28  31
HETATM   31  C   UNL     1      42.059  -7.432  10.283  1.00  0.00     0.125 A 
HETATM   32  N   UNL     1      41.287  -7.259  11.391  1.00  0.00    -0.255 NA
HETATM   33  C   UNL     1      41.303  -6.028  11.945  1.00  0.00     0.117 A 
HETATM   34  C   UNL     1      42.042  -4.964  11.447  1.00  0.00     0.019 A 
HETATM   35  C   UNL     1      42.818  -5.169  10.311  1.00  0.00     0.004 A 
HETATM   36  C   UNL     1      42.833  -6.425   9.715  1.00  0.00     0.037 A 
ENDBRANCH  28  31
ENDBRANCH  24  27
ENDBRANCH  22  23
ENDBRANCH   1  22
TORSDOF 8
ENDMDL
MODEL 8
REMARK VINA RESULT:      -8.2      3.892      7.524
REMARK  8 active torsions:
REMARK  status: ('A' for Active; 'I' for Inactive)
REMARK    1  A    between atoms: C_4  and  O_5 
REMARK    2  A    between atoms: O_5  and  C_6 
REMARK    3  A    between atoms: C_8  and  C_9 
REMARK    4  A    between atoms: C_9  and  N_10 
REMARK    5  A    between atoms: C_9  and  C_14 
REMARK       I    between atoms: N_10  and  C_11 
REMARK       I    between atoms: C_11  and  N_12 
REMARK    6  A    between atoms: C_14  and  C_15 
REMARK       I    between atoms: C_15  and  N_16 
REMARK    7  A    between atoms: N_16  and  N_17 
REMARK       I    between atoms: N_17  and  C_18 
REMARK    8  A    between atoms: C_18  and  C_19 
ROOT
HETATM    1  C   UNL     1      43.306 -12.347   6.609  1.00  0.00     0.127 C 
ENDROOT
BRANCH   1   2
HETATM    2  C   UNL     1      43.148 -13.857   6.456  1.00  0.00    -0.032 A 
HETATM    3  C   UNL     1      43.141 -14.463   5.185  1.00  0.00     0.046 A 
HETATM    4  C   UNL     1      43.062 -15.852   5.042  1.00  0.00     0.076 A 
HETATM    5  C   UNL     1      43.037 -16.673   6.166  1.00  0.00     0.037 A 
HETATM    6  C   UNL     1      43.063 -16.097   7.433  1.00  0.00     0.003 A 
HETATM    7  C   UNL     1      43.128 -14.706   7.576  1.00  0.00     0.009 A 
BRANCH   4   8
HETATM    8  O   UNL     1      43.113 -16.341   3.757  1.00  0.00    -0.311 OA
BRANCH   8   9
HETATM    9  C   UNL     1      42.091 -16.009   2.895  1.00  0.00     0.076 A 
HETATM   10  C   UNL     1      40.741 -16.170   3.211  1.00  0.00     0.037 A 
HETATM   11  C   UNL     1      39.763 -15.770   2.299  1.00  0.00     0.003 A 
HETATM   12  C   UNL     1      40.134 -15.192   1.084  1.00  0.00     0.000 A 
HETATM   13  C   UNL     1      41.483 -15.006   0.782  1.00  0.00     0.003 A 
HETATM   14  C   UNL     1      42.462 -15.410   1.691  1.00  0.00     0.037 A 
ENDBRANCH   8   9
ENDBRANCH   4   8
ENDBRANCH   1   2
BRANCH   1  15
HETATM   15  N   UNL     1      44.661 -11.831   6.370  1.00  0.00    -0.339 N 
HETATM   16  C   UNL     1      45.449 -11.274   7.319  1.00  0.00     0.292 C 
HETATM   17  N   UNL     1      46.646 -10.867   6.837  1.00  0.00    -0.254 NA
HETATM   18  O   UNL     1      45.156 -11.142   8.494  1.00  0.00    -0.254 OA
HETATM   19  H   UNL     1      47.089 -11.473   6.164  1.00  0.00     0.128 HD
HETATM   20  H   UNL     1      47.268 -10.550   7.573  1.00  0.00     0.128 HD
HETATM   21  H   UNL     1      44.860 -11.517   5.432  1.00  0.00     0.164 HD
ENDBRANCH   1  15
BRANCH   1  22
HETATM   22  C   UNL     1      42.213 -11.417   6.052  1.00  0.00     0.134 C 
BRANCH  22  23
HETATM   23  C   UNL     1      42.140 -11.124   4.565  1.00  0.00     0.238 C 
HETATM   24  N   UNL     1      41.001 -11.519   3.918  1.00  0.00    -0.267 N 
HETATM   25  H   UNL     1      40.109 -11.676   4.399  1.00  0.00     0.190 HD
HETATM   26  O   UNL     1      43.116 -10.663   3.966  1.00  0.00    -0.272 OA
BRANCH  24  27
HETATM   27  N   UNL     1      40.932 -11.402   2.529  1.00  0.00    -0.262 N 
HETATM   28  C   UNL     1      39.723 -11.628   1.903  1.00  0.00     0.288 C 
HETATM   29  O   UNL     1      38.655 -11.784   2.490  1.00  0.00    -0.264 OA
HETATM   30  H   UNL     1      41.804 -11.430   1.998  1.00  0.00     0.190 HD
BRANCH  28  31
HETATM   31  C   UNL     1      39.801 -11.687   0.414  1.00  0.00     0.125 A 
HETATM   32  N   UNL     1      41.010 -11.410  -0.149  1.00  0.00    -0.255 NA
HETATM   33  C   UNL     1      41.073 -11.482  -1.495  1.00  0.00     0.117 A 
HETATM   34  C   UNL     1      39.995 -11.807  -2.306  1.00  0.00     0.019 A 
HETATM   35  C   UNL     1      38.771 -12.080  -1.703  1.00  0.00     0.004 A 
HETATM   36  C   UNL     1      38.666 -12.023  -0.318  1.00  0.00     0.037 A 
ENDBRANCH  28  31
ENDBRANCH  24  27
ENDBRANCH  22  23
ENDBRANCH   1  22
TORSDOF 8
ENDMDL
MODEL 9
REMARK VINA RESULT:      -8.2      2.594     10.513
REMARK  8 active torsions:
REMARK  status: ('A' for Active; 'I' for Inactive)
REMARK    1  A    between atoms: C_4  and  O_5 
REMARK    2  A    between atoms: O_5  and  C_6 
REMARK    3  A    between atoms: C_8  and  C_9 
REMARK    4  A    between atoms: C_9  and  N_10 
REMARK    5  A    between atoms: C_9  and  C_14 
REMARK       I    between atoms: N_10  and  C_11 
REMARK       I    between atoms: C_11  and  N_12 
REMARK    6  A    between atoms: C_14  and  C_15 
REMARK       I    between atoms: C_15  and  N_16 
REMARK    7  A    between atoms: N_16  and  N_17 
REMARK       I    between atoms: N_17  and  C_18 
REMARK    8  A    between atoms: C_18  and  C_19 
ROOT
HETATM    1  C   UNL     1      43.814 -10.121   7.902  1.00  0.00     0.127 C 
ENDROOT
BRANCH   1   2
HETATM    2  C   UNL     1      43.458  -9.708   9.326  1.00  0.00    -0.032 A 
HETATM    3  C   UNL     1      42.612  -8.610   9.576  1.00  0.00     0.046 A 
HETATM    4  C   UNL     1      42.230  -8.267  10.876  1.00  0.00     0.076 A 
HETATM    5  C   UNL     1      42.644  -9.041  11.957  1.00  0.00     0.037 A 
HETATM    6  C   UNL     1      43.465 -10.142  11.732  1.00  0.00     0.003 A 
HETATM    7  C   UNL     1      43.858 -10.478  10.431  1.00  0.00     0.009 A 
BRANCH   4   8
HETATM    8  O   UNL     1      41.361  -7.207  11.002  1.00  0.00    -0.311 OA
BRANCH   8   9
HETATM    9  C   UNL     1      41.884  -5.973  11.318  1.00  0.00     0.076 A 
HETATM   10  C   UNL     1      42.428  -5.106  10.369  1.00  0.00     0.037 A 
HETATM   11  C   UNL     1      42.901  -3.853  10.765  1.00  0.00     0.003 A 
HETATM   12  C   UNL     1      42.811  -3.462  12.102  1.00  0.00     0.000 A 
HETATM   13  C   UNL     1      42.241  -4.319  13.044  1.00  0.00     0.003 A 
HETATM   14  C   UNL     1      41.772  -5.572  12.651  1.00  0.00     0.037 A 
ENDBRANCH   8   9
ENDBRANCH   4   8
ENDBRANCH   1   2
BRANCH   1  15
HETATM   15  N   UNL     1      45.202 -10.562   7.705  1.00  0.00    -0.339 N 
HETATM   16  C   UNL     1      46.273  -9.735   7.674  1.00  0.00     0.292 C 
HETATM   17  N   UNL     1      47.438 -10.391   7.465  1.00  0.00    -0.254 NA
HETATM   18  O   UNL     1      46.239  -8.526   7.823  1.00  0.00    -0.254 OA
HETATM   19  H   UNL     1      47.548 -11.274   7.940  1.00  0.00     0.128 HD
HETATM   20  H   UNL     1      48.243  -9.779   7.550  1.00  0.00     0.128 HD
HETATM   21  H   UNL     1      45.328 -11.421   7.190  1.00  0.00     0.164 HD
ENDBRANCH   1  15
BRANCH   1  22
HETATM   22  C   UNL     1      42.808 -10.956   7.088  1.00  0.00     0.134 C 
BRANCH  22  23
HETATM   23  C   UNL     1      43.290 -12.105   6.222  1.00  0.00     0.238 C 
HETATM   24  N   UNL     1      42.723 -13.328   6.457  1.00  0.00    -0.267 N 
HETATM   25  H   UNL     1      41.808 -13.444   6.908  1.00  0.00     0.190 HD
HETATM   26  O   UNL     1      44.230 -11.951   5.437  1.00  0.00    -0.272 OA
BRANCH  24  27
HETATM   27  N   UNL     1      43.220 -14.448   5.790  1.00  0.00    -0.262 N 
HETATM   28  C   UNL     1      42.589 -14.868   4.636  1.00  0.00     0.288 C 
HETATM   29  O   UNL     1      41.703 -14.241   4.062  1.00  0.00    -0.264 OA
HETATM   30  H   UNL     1      43.840 -15.079   6.301  1.00  0.00     0.190 HD
BRANCH  28  31
HETATM   31  C   UNL     1      43.061 -16.186   4.120  1.00  0.00     0.125 A 
HETATM   32  N   UNL     1      43.901 -16.896   4.925  1.00  0.00    -0.255 NA
HETATM   33  C   UNL     1      44.308 -18.094   4.455  1.00  0.00     0.117 A 
HETATM   34  C   UNL     1      43.929 -18.615   3.226  1.00  0.00     0.019 A 
HETATM   35  C   UNL     1      43.074 -17.865   2.424  1.00  0.00     0.004 A 
HETATM   36  C   UNL     1      42.626 -16.629   2.875  1.00  0.00     0.037 A 
ENDBRANCH  28  31
ENDBRANCH  24  27
ENDBRANCH  22  23
ENDBRANCH   1  22
TORSDOF 8
ENDMDL
MODEL 10
REMARK VINA RESULT:      -8.1      3.552      4.708
REMARK  8 active torsions:
REMARK  status: ('A' for Active; 'I' for Inactive)
REMARK    1  A    between atoms: C_4  and  O_5 
REMARK    2  A    between atoms: O_5  and  C_6 
REMARK    3  A    between atoms: C_8  and  C_9 
REMARK    4  A    between atoms: C_9  and  N_10 
REMARK    5  A    between atoms: C_9  and  C_14 
REMARK       I    between atoms: N_10  and  C_11 
REMARK       I    between atoms: C_11  and  N_12 
REMARK    6  A    between atoms: C_14  and  C_15 
REMARK       I    between atoms: C_15  and  N_16 
REMARK    7  A    between atoms: N_16  and  N_17 
REMARK       I    between atoms: N_17  and  C_18 
REMARK    8  A    between atoms: C_18  and  C_19 
ROOT
HETATM    1  C   UNL     1      42.971 -14.813   5.339  1.00  0.00     0.127 C 
ENDROOT
BRANCH   1   2
HETATM    2  C   UNL     1      42.573 -15.140   3.903  1.00  0.00    -0.032 A 
HETATM    3  C   UNL     1      41.500 -14.479   3.276  1.00  0.00     0.046 A 
HETATM    4  C   UNL     1      41.172 -14.726   1.940  1.00  0.00     0.076 A 
HETATM    5  C   UNL     1      41.940 -15.606   1.181  1.00  0.00     0.037 A 
HETATM    6  C   UNL     1      43.018 -16.257   1.774  1.00  0.00     0.003 A 
HETATM    7  C   UNL     1      43.337 -16.018   3.115  1.00  0.00     0.009 A 
BRANCH   4   8
HETATM    8  O   UNL     1      40.136 -13.989   1.414  1.00  0.00    -0.311 OA
BRANCH   8   9
HETATM    9  C   UNL     1      40.243 -13.558   0.111  1.00  0.00     0.076 A 
HETATM   10  C   UNL     1      40.949 -12.412  -0.262  1.00  0.00     0.037 A 
HETATM   11  C   UNL     1      41.046 -12.065  -1.610  1.00  0.00     0.003 A 
HETATM   12  C   UNL     1      40.457 -12.873  -2.585  1.00  0.00     0.000 A 
HETATM   13  C   UNL     1      39.776 -14.032  -2.213  1.00  0.00     0.003 A 
HETATM   14  C   UNL     1      39.675 -14.378  -0.866  1.00  0.00     0.037 A 
ENDBRANCH   8   9
ENDBRANCH   4   8
ENDBRANCH   1   2
BRANCH   1  15
HETATM   15  N   UNL     1      43.371 -15.967   6.157  1.00  0.00    -0.339 N 
HETATM   16  C   UNL     1      43.300 -16.012   7.507  1.00  0.00     0.292 C 
HETATM   17  N   UNL     1      43.742 -17.184   8.019  1.00  0.00    -0.254 NA
HETATM   18  O   UNL     1      42.881 -15.121   8.225  1.00  0.00    -0.254 OA
HETATM   19  H   UNL     1      43.489 -18.020   7.513  1.00  0.00     0.128 HD
HETATM   20  H   UNL     1      43.586 -17.249   9.019  1.00  0.00     0.128 HD
HETATM   21  H   UNL     1      44.074 -16.573   5.760  1.00  0.00     0.164 HD
ENDBRANCH   1  15
BRANCH   1  22
HETATM   22  C   UNL     1      43.831 -13.566   5.616  1.00  0.00     0.134 C 
BRANCH  22  23
HETATM   23  C   UNL     1      43.259 -12.400   6.398  1.00  0.00     0.238 C 
HETATM   24  N   UNL     1      43.871 -12.098   7.584  1.00  0.00    -0.267 N 
HETATM   25  H   UNL     1      44.839 -12.365   7.798  1.00  0.00     0.190 HD
HETATM   26  O   UNL     1      42.222 -11.842   6.029  1.00  0.00    -0.272 OA
BRANCH  24  27
HETATM   27  N   UNL     1      43.309 -11.127   8.413  1.00  0.00    -0.262 N 
HETATM   28  C   UNL     1      44.114 -10.499   9.342  1.00  0.00     0.288 C 
HETATM   29  O   UNL     1      45.335 -10.624   9.400  1.00  0.00    -0.264 OA
HETATM   30  H   UNL     1      42.292 -11.102   8.508  1.00  0.00     0.190 HD
BRANCH  28  31
HETATM   31  C   UNL     1      43.380  -9.638  10.315  1.00  0.00     0.125 A 
HETATM   32  N   UNL     1      42.065  -9.398  10.050  1.00  0.00    -0.255 NA
HETATM   33  C   UNL     1      41.406  -8.632  10.945  1.00  0.00     0.117 A 
HETATM   34  C   UNL     1      41.991  -8.089  12.080  1.00  0.00     0.019 A 
HETATM   35  C   UNL     1      43.336  -8.348  12.321  1.00  0.00     0.004 A 
HETATM   36  C   UNL     1      44.049  -9.139  11.427  1.00  0.00     0.037 A 
ENDBRANCH  28  31
ENDBRANCH  24  27
ENDBRANCH  22  23
ENDBRANCH   1  22
TORSDOF 8
ENDMDL
