MODEL 1
REMARK VINA RESULT:      -9.2      0.000      0.000
REMARK  8 active torsions:
REMARK  status: ('A' for Active; 'I' for Inactive)
REMARK    1  A    between atoms: N_4  and  C_5 
REMARK    2  A    between atoms: C_11  and  O_12 
REMARK    3  A    between atoms: C_13  and  C_14 
REMARK    4  A    between atoms: N_15  and  N_16 
REMARK       I    between atoms: N_16  and  C_17 
REMARK    5  A    between atoms: C_17  and  C_18 
REMARK    6  A    between atoms: C_18  and  C_19 
REMARK    7  A    between atoms: C_19  and  N_20 
REMARK       I    between atoms: N_20  and  C_21 
REMARK    8  A    between atoms: C_21  and  C_22 
ROOT
HETATM    1  C   UNL     1      43.185 -13.561   5.669  1.00  0.00     0.156 C 
HETATM    2  N   UNL     1      44.260 -13.258   6.326  1.00  0.00    -0.184 NA
ENDROOT
BRANCH   2   3
HETATM    3  N   UNL     1      44.198 -12.177   7.174  1.00  0.00    -0.247 N 
HETATM    4  C   UNL     1      45.190 -11.204   7.282  1.00  0.00     0.239 C 
HETATM    5  O   UNL     1      46.269 -11.222   6.696  1.00  0.00    -0.272 OA
HETATM    6  H   UNL     1      43.249 -11.909   7.420  1.00  0.00     0.192 HD
BRANCH   4   7
HETATM    7  C   UNL     1      44.814 -10.122   8.272  1.00  0.00     0.124 C 
BRANCH   7   8
HETATM    8  C   UNL     1      43.402 -10.335   8.806  1.00  0.00     0.132 C 
BRANCH   8   9
HETATM    9  N   UNL     1      43.122  -9.590  10.023  1.00  0.00    -0.356 N 
HETATM   10  C   UNL     1      43.343 -10.127  11.276  1.00  0.00     0.251 C 
HETATM   11  O   UNL     1      43.892 -11.209  11.454  1.00  0.00    -0.268 OA
HETATM   12  H   UNL     1      42.447  -8.843   9.942  1.00  0.00     0.162 HD
BRANCH  10  13
HETATM   13  C   UNL     1      42.845  -9.336  12.439  1.00  0.00     0.032 A 
HETATM   14  C   UNL     1      41.723  -9.723  13.187  1.00  0.00     0.017 A 
HETATM   15  C   UNL     1      41.306  -8.951  14.275  1.00  0.00     0.001 A 
HETATM   16  C   UNL     1      41.995  -7.787  14.613  1.00  0.00     0.000 A 
HETATM   17  C   UNL     1      43.098  -7.385  13.861  1.00  0.00     0.001 A 
HETATM   18  C   UNL     1      43.520  -8.156  12.776  1.00  0.00     0.017 A 
ENDBRANCH  10  13
ENDBRANCH   8   9
ENDBRANCH   7   8
ENDBRANCH   4   7
ENDBRANCH   2   3
BRANCH   1  19
HETATM   19  C   UNL     1      43.189 -14.702   4.784  1.00  0.00     0.062 C 
HETATM   20  C   UNL     1      42.716 -14.852   3.459  1.00  0.00     0.067 C 
HETATM   21  C   UNL     1      42.067 -13.836   2.592  1.00  0.00     0.073 C 
HETATM   22  N   UNL     1      42.949 -16.080   2.979  1.00  0.00    -0.169 NA
HETATM   23  N   UNL     1      43.466 -16.774   4.027  1.00  0.00    -0.210 N 
HETATM   24  C   UNL     1      43.759 -15.922   5.093  1.00  0.00     0.177 C 
BRANCH  23  25
HETATM   25  C   UNL     1      43.630 -18.188   3.934  1.00  0.00     0.061 A 
HETATM   26  C   UNL     1      43.451 -18.818   2.693  1.00  0.00     0.031 A 
HETATM   27  C   UNL     1      43.608 -20.200   2.575  1.00  0.00     0.002 A 
HETATM   28  C   UNL     1      43.929 -20.966   3.695  1.00  0.00     0.000 A 
HETATM   29  C   UNL     1      44.079 -20.352   4.937  1.00  0.00     0.002 A 
HETATM   30  C   UNL     1      43.924 -18.968   5.062  1.00  0.00     0.031 A 
ENDBRANCH  23  25
BRANCH  24  31
HETATM   31  O   UNL     1      44.474 -16.257   6.171  1.00  0.00    -0.344 OA
HETATM   32  H   UNL     1      45.214 -15.628   6.255  1.00  0.00     0.219 HD
ENDBRANCH  24  31
ENDBRANCH   1  19
TORSDOF 8
ENDMDL
MODEL 2
REMARK VINA RESULT:      -8.9      2.015     11.179
REMARK  8 active torsions:
REMARK  status: ('A' for Active; 'I' for Inactive)
REMARK    1  A    between atoms: N_4  and  C_5 
REMARK    2  A    between atoms: C_11  and  O_12 
REMARK    3  A    between atoms: C_13  and  C_14 
REMARK    4  A    between atoms: N_15  and  N_16 
REMARK       I    between atoms: N_16  and  C_17 
REMARK    5  A    between atoms: C_17  and  C_18 
REMARK    6  A    between atoms: C_18  and  C_19 
REMARK    7  A    between atoms: C_19  and  N_20 
REMARK       I    between atoms: N_20  and  C_21 
REMARK    8  A    between atoms: C_21  and  C_22 
ROOT
HETATM    1  C   UNL     1      43.785 -11.383   7.073  1.00  0.00     0.156 C 
HETATM    2  N   UNL     1      42.760 -11.283   6.287  1.00  0.00    -0.184 NA
ENDROOT
BRANCH   2   3
HETATM    3  N   UNL     1      42.520 -12.329   5.426  1.00  0.00    -0.247 N 
HETATM    4  C   UNL     1      41.383 -13.134   5.463  1.00  0.00     0.239 C 
HETATM    5  O   UNL     1      40.491 -13.064   6.305  1.00  0.00    -0.272 OA
HETATM    6  H   UNL     1      43.002 -12.239   4.535  1.00  0.00     0.192 HD
BRANCH   4   7
HETATM    7  C   UNL     1      41.390 -14.173   4.363  1.00  0.00     0.124 C 
BRANCH   7   8
HETATM    8  C   UNL     1      42.807 -14.429   3.861  1.00  0.00     0.132 C 
BRANCH   8   9
HETATM    9  N   UNL     1      43.218 -15.821   3.964  1.00  0.00    -0.356 N 
HETATM   10  C   UNL     1      43.181 -16.675   2.880  1.00  0.00     0.251 C 
HETATM   11  O   UNL     1      42.916 -16.303   1.741  1.00  0.00    -0.268 OA
HETATM   12  H   UNL     1      43.182 -16.228   4.887  1.00  0.00     0.162 HD
BRANCH  10  13
HETATM   13  C   UNL     1      43.451 -18.117   3.156  1.00  0.00     0.032 A 
HETATM   14  C   UNL     1      43.952 -18.566   4.386  1.00  0.00     0.017 A 
HETATM   15  C   UNL     1      44.176 -19.930   4.596  1.00  0.00     0.001 A 
HETATM   16  C   UNL     1      43.914 -20.847   3.579  1.00  0.00     0.000 A 
HETATM   17  C   UNL     1      43.436 -20.405   2.347  1.00  0.00     0.001 A 
HETATM   18  C   UNL     1      43.207 -19.044   2.134  1.00  0.00     0.017 A 
ENDBRANCH  10  13
ENDBRANCH   8   9
ENDBRANCH   7   8
ENDBRANCH   4   7
ENDBRANCH   2   3
BRANCH   1  19
HETATM   19  C   UNL     1      44.066 -10.325   8.014  1.00  0.00     0.062 C 
HETATM   20  C   UNL     1      45.271  -9.647   8.318  1.00  0.00     0.067 C 
HETATM   21  C   UNL     1      46.617  -9.851   7.726  1.00  0.00     0.073 C 
HETATM   22  N   UNL     1      45.090  -8.691   9.237  1.00  0.00    -0.169 NA
HETATM   23  N   UNL     1      43.795  -8.819   9.627  1.00  0.00    -0.210 N 
HETATM   24  C   UNL     1      43.110  -9.706   8.796  1.00  0.00     0.177 C 
BRANCH  23  25
HETATM   25  C   UNL     1      43.317  -8.097  10.760  1.00  0.00     0.061 A 
HETATM   26  C   UNL     1      43.543  -8.612  12.046  1.00  0.00     0.031 A 
HETATM   27  C   UNL     1      43.088  -7.924  13.172  1.00  0.00     0.002 A 
HETATM   28  C   UNL     1      42.389  -6.727  13.025  1.00  0.00     0.000 A 
HETATM   29  C   UNL     1      42.133  -6.224  11.751  1.00  0.00     0.002 A 
HETATM   30  C   UNL     1      42.588  -6.908  10.619  1.00  0.00     0.031 A 
ENDBRANCH  23  25
BRANCH  24  31
HETATM   31  O   UNL     1      41.784  -9.874   8.777  1.00  0.00    -0.344 OA
HETATM   32  H   UNL     1      41.502  -9.979   7.849  1.00  0.00     0.219 HD
ENDBRANCH  24  31
ENDBRANCH   1  19
TORSDOF 8
ENDMDL
MODEL 3
REMARK VINA RESULT:      -8.9      1.919     10.461
REMARK  8 active torsions:
REMARK  status: ('A' for Active; 'I' for Inactive)
REMARK    1  A    between atoms: N_4  and  C_5 
REMARK    2  A    between atoms: C_11  and  O_12 
REMARK    3  A    between atoms: C_13  and  C_14 
REMARK    4  A    between atoms: N_15  and  N_16 
REMARK       I    between atoms: N_16  and  C_17 
REMARK    5  A    between atoms: C_17  and  C_18 
REMARK    6  A    between atoms: C_18  and  C_19 
REMARK    7  A    between atoms: C_19  and  N_20 
REMARK       I    between atoms: N_20  and  C_21 
REMARK    8  A    between atoms: C_21  and  C_22 
ROOT
HETATM    1  C   UNL     1      43.810 -11.753   5.383  1.00  0.00     0.156 C 
HETATM    2  N   UNL     1      42.707 -12.432   5.343  1.00  0.00    -0.184 NA
ENDROOT
BRANCH   2   3
HETATM    3  N   UNL     1      42.367 -13.011   4.142  1.00  0.00    -0.247 N 
HETATM    4  C   UNL     1      41.106 -13.528   3.847  1.00  0.00     0.239 C 
HETATM    5  O   UNL     1      40.167 -13.601   4.635  1.00  0.00    -0.272 OA
HETATM    6  H   UNL     1      42.937 -12.694   3.363  1.00  0.00     0.192 HD
BRANCH   4   7
HETATM    7  C   UNL     1      41.031 -14.061   2.432  1.00  0.00     0.124 C 
BRANCH   7   8
HETATM    8  C   UNL     1      42.378 -14.617   1.985  1.00  0.00     0.132 C 
BRANCH   8   9
HETATM    9  N   UNL     1      42.512 -16.051   2.189  1.00  0.00    -0.356 N 
HETATM   10  C   UNL     1      43.176 -16.575   3.280  1.00  0.00     0.251 C 
HETATM   11  O   UNL     1      43.594 -15.887   4.204  1.00  0.00    -0.268 OA
HETATM   12  H   UNL     1      42.433 -16.627   1.363  1.00  0.00     0.162 HD
BRANCH  10  13
HETATM   13  C   UNL     1      43.403 -18.050   3.278  1.00  0.00     0.032 A 
HETATM   14  C   UNL     1      43.083 -18.859   2.178  1.00  0.00     0.017 A 
HETATM   15  C   UNL     1      43.328 -20.235   2.226  1.00  0.00     0.001 A 
HETATM   16  C   UNL     1      43.877 -20.810   3.371  1.00  0.00     0.000 A 
HETATM   17  C   UNL     1      44.177 -20.014   4.476  1.00  0.00     0.001 A 
HETATM   18  C   UNL     1      43.938 -18.639   4.431  1.00  0.00     0.017 A 
ENDBRANCH  10  13
ENDBRANCH   8   9
ENDBRANCH   7   8
ENDBRANCH   4   7
ENDBRANCH   2   3
BRANCH   1  19
HETATM   19  C   UNL     1      44.227 -11.147   6.626  1.00  0.00     0.062 C 
HETATM   20  C   UNL     1      45.517 -10.890   7.148  1.00  0.00     0.067 C 
HETATM   21  C   UNL     1      46.835 -11.186   6.532  1.00  0.00     0.073 C 
HETATM   22  N   UNL     1      45.464 -10.269   8.333  1.00  0.00    -0.169 NA
HETATM   23  N   UNL     1      44.143 -10.224   8.647  1.00  0.00    -0.210 N 
HETATM   24  C   UNL     1      43.359 -10.618   7.562  1.00  0.00     0.177 C 
BRANCH  23  25
HETATM   25  C   UNL     1      43.734  -9.822   9.953  1.00  0.00     0.061 A 
HETATM   26  C   UNL     1      43.568  -8.455  10.228  1.00  0.00     0.031 A 
HETATM   27  C   UNL     1      43.166  -8.035  11.497  1.00  0.00     0.002 A 
HETATM   28  C   UNL     1      42.942  -8.971  12.505  1.00  0.00     0.000 A 
HETATM   29  C   UNL     1      43.134 -10.327  12.249  1.00  0.00     0.002 A 
HETATM   30  C   UNL     1      43.535 -10.755  10.980  1.00  0.00     0.031 A 
ENDBRANCH  23  25
BRANCH  24  31
HETATM   31  O   UNL     1      42.033 -10.472   7.478  1.00  0.00    -0.344 OA
HETATM   32  H   UNL     1      41.625 -10.938   8.232  1.00  0.00     0.219 HD
ENDBRANCH  24  31
ENDBRANCH   1  19
TORSDOF 8
ENDMDL
MODEL 4
REMARK VINA RESULT:      -8.5      2.330     10.379
REMARK  8 active torsions:
REMARK  status: ('A' for Active; 'I' for Inactive)
REMARK    1  A    between atoms: N_4  and  C_5 
REMARK    2  A    between atoms: C_11  and  O_12 
REMARK    3  A    between atoms: C_13  and  C_14 
REMARK    4  A    between atoms: N_15  and  N_16 
REMARK       I    between atoms: N_16  and  C_17 
REMARK    5  A    between atoms: C_17  and  C_18 
REMARK    6  A    between atoms: C_18  and  C_19 
REMARK    7  A    between atoms: C_19  and  N_20 
REMARK       I    between atoms: N_20  and  C_21 
REMARK    8  A    between atoms: C_21  and  C_22 
ROOT
HETATM    1  C   UNL     1      42.690 -11.231   5.803  1.00  0.00     0.156 C 
HETATM    2  N   UNL     1      41.398 -11.279   5.710  1.00  0.00    -0.184 NA
ENDROOT
BRANCH   2   3
HETATM    3  N   UNL     1      40.867 -11.772   4.541  1.00  0.00    -0.247 N 
HETATM    4  C   UNL     1      40.466 -13.094   4.354  1.00  0.00     0.239 C 
HETATM    5  O   UNL     1      40.601 -13.999   5.173  1.00  0.00    -0.272 OA
HETATM    6  H   UNL     1      40.421 -11.061   3.967  1.00  0.00     0.192 HD
BRANCH   4   7
HETATM    7  C   UNL     1      39.886 -13.318   2.974  1.00  0.00     0.124 C 
BRANCH   7   8
HETATM    8  C   UNL     1      40.985 -13.620   1.961  1.00  0.00     0.132 C 
BRANCH   8   9
HETATM    9  N   UNL     1      41.925 -14.636   2.408  1.00  0.00    -0.356 N 
HETATM   10  C   UNL     1      41.624 -15.982   2.360  1.00  0.00     0.251 C 
HETATM   11  O   UNL     1      40.606 -16.424   1.837  1.00  0.00    -0.268 OA
HETATM   12  H   UNL     1      42.627 -14.332   3.069  1.00  0.00     0.162 HD
BRANCH  10  13
HETATM   13  C   UNL     1      42.594 -16.908   3.016  1.00  0.00     0.032 A 
HETATM   14  C   UNL     1      43.103 -16.675   4.302  1.00  0.00     0.017 A 
HETATM   15  C   UNL     1      44.001 -17.581   4.875  1.00  0.00     0.001 A 
HETATM   16  C   UNL     1      44.404 -18.712   4.165  1.00  0.00     0.000 A 
HETATM   17  C   UNL     1      43.918 -18.937   2.878  1.00  0.00     0.001 A 
HETATM   18  C   UNL     1      43.018 -18.037   2.304  1.00  0.00     0.017 A 
ENDBRANCH  10  13
ENDBRANCH   8   9
ENDBRANCH   7   8
ENDBRANCH   4   7
ENDBRANCH   2   3
BRANCH   1  19
HETATM   19  C   UNL     1      43.298 -10.746   7.020  1.00  0.00     0.062 C 
HETATM   20  C   UNL     1      44.649 -10.733   7.442  1.00  0.00     0.067 C 
HETATM   21  C   UNL     1      45.846 -11.230   6.717  1.00  0.00     0.073 C 
HETATM   22  N   UNL     1      44.795 -10.151   8.638  1.00  0.00    -0.169 NA
HETATM   23  N   UNL     1      43.529  -9.890   9.058  1.00  0.00    -0.210 N 
HETATM   24  C   UNL     1      42.609 -10.107   8.032  1.00  0.00     0.177 C 
BRANCH  23  25
HETATM   25  C   UNL     1      43.296  -9.466  10.400  1.00  0.00     0.061 A 
HETATM   26  C   UNL     1      43.032 -10.429  11.387  1.00  0.00     0.031 A 
HETATM   27  C   UNL     1      42.803 -10.040  12.708  1.00  0.00     0.002 A 
HETATM   28  C   UNL     1      42.819  -8.690  13.052  1.00  0.00     0.000 A 
HETATM   29  C   UNL     1      43.050  -7.725  12.073  1.00  0.00     0.002 A 
HETATM   30  C   UNL     1      43.281  -8.108  10.748  1.00  0.00     0.031 A 
ENDBRANCH  23  25
BRANCH  24  31
HETATM   31  O   UNL     1      41.326  -9.733   8.057  1.00  0.00    -0.344 OA
HETATM   32  H   UNL     1      40.848 -10.319   8.674  1.00  0.00     0.219 HD
ENDBRANCH  24  31
ENDBRANCH   1  19
TORSDOF 8
ENDMDL
MODEL 5
REMARK VINA RESULT:      -8.5      5.543      9.537
REMARK  8 active torsions:
REMARK  status: ('A' for Active; 'I' for Inactive)
REMARK    1  A    between atoms: N_4  and  C_5 
REMARK    2  A    between atoms: C_11  and  O_12 
REMARK    3  A    between atoms: C_13  and  C_14 
REMARK    4  A    between atoms: N_15  and  N_16 
REMARK       I    between atoms: N_16  and  C_17 
REMARK    5  A    between atoms: C_17  and  C_18 
REMARK    6  A    between atoms: C_18  and  C_19 
REMARK    7  A    between atoms: C_19  and  N_20 
REMARK       I    between atoms: N_20  and  C_21 
REMARK    8  A    between atoms: C_21  and  C_22 
ROOT
HETATM    1  C   UNL     1      41.509 -14.182   3.134  1.00  0.00     0.156 C 
HETATM    2  N   UNL     1      41.338 -13.511   4.229  1.00  0.00    -0.184 NA
ENDROOT
BRANCH   2   3
HETATM    3  N   UNL     1      41.809 -14.072   5.393  1.00  0.00    -0.247 N 
HETATM    4  C   UNL     1      41.233 -15.172   6.026  1.00  0.00     0.239 C 
HETATM    5  O   UNL     1      40.199 -15.733   5.673  1.00  0.00    -0.272 OA
HETATM    6  H   UNL     1      42.800 -13.905   5.551  1.00  0.00     0.192 HD
BRANCH   4   7
HETATM    7  C   UNL     1      42.003 -15.578   7.264  1.00  0.00     0.124 C 
BRANCH   7   8
HETATM    8  C   UNL     1      43.469 -15.837   6.937  1.00  0.00     0.132 C 
BRANCH   8   9
HETATM    9  N   UNL     1      43.700 -17.106   6.264  1.00  0.00    -0.356 N 
HETATM   10  C   UNL     1      43.809 -17.196   4.891  1.00  0.00     0.251 C 
HETATM   11  O   UNL     1      43.837 -16.215   4.155  1.00  0.00    -0.268 OA
HETATM   12  H   UNL     1      43.423 -17.935   6.771  1.00  0.00     0.162 HD
BRANCH  10  13
HETATM   13  C   UNL     1      43.860 -18.571   4.314  1.00  0.00     0.032 A 
HETATM   14  C   UNL     1      44.039 -19.714   5.107  1.00  0.00     0.017 A 
HETATM   15  C   UNL     1      44.067 -20.980   4.514  1.00  0.00     0.001 A 
HETATM   16  C   UNL     1      43.931 -21.111   3.133  1.00  0.00     0.000 A 
HETATM   17  C   UNL     1      43.774 -19.977   2.337  1.00  0.00     0.001 A 
HETATM   18  C   UNL     1      43.741 -18.711   2.924  1.00  0.00     0.017 A 
ENDBRANCH  10  13
ENDBRANCH   8   9
ENDBRANCH   7   8
ENDBRANCH   4   7
ENDBRANCH   2   3
BRANCH   1  19
HETATM   19  C   UNL     1      41.056 -13.626   1.880  1.00  0.00     0.062 C 
HETATM   20  C   UNL     1      41.226 -12.337   1.320  1.00  0.00     0.067 C 
HETATM   21  C   UNL     1      41.944 -11.171   1.894  1.00  0.00     0.073 C 
HETATM   22  N   UNL     1      40.675 -12.243   0.104  1.00  0.00    -0.169 NA
HETATM   23  N   UNL     1      40.039 -13.428  -0.087  1.00  0.00    -0.210 N 
HETATM   24  C   UNL     1      40.376 -14.341   0.913  1.00  0.00     0.177 C 
BRANCH  23  25
HETATM   25  C   UNL     1      39.156 -13.594  -1.195  1.00  0.00     0.061 A 
HETATM   26  C   UNL     1      38.100 -12.686  -1.371  1.00  0.00     0.031 A 
HETATM   27  C   UNL     1      37.224 -12.824  -2.449  1.00  0.00     0.002 A 
HETATM   28  C   UNL     1      37.383 -13.877  -3.348  1.00  0.00     0.000 A 
HETATM   29  C   UNL     1      38.409 -14.801  -3.163  1.00  0.00     0.002 A 
HETATM   30  C   UNL     1      39.291 -14.667  -2.087  1.00  0.00     0.031 A 
ENDBRANCH  23  25
BRANCH  24  31
HETATM   31  O   UNL     1      40.097 -15.648   0.888  1.00  0.00    -0.344 OA
HETATM   32  H   UNL     1      40.561 -16.075   1.632  1.00  0.00     0.219 HD
ENDBRANCH  24  31
ENDBRANCH   1  19
TORSDOF 8
ENDMDL
MODEL 6
REMARK VINA RESULT:      -8.3      3.753      5.765
REMARK  8 active torsions:
REMARK  status: ('A' for Active; 'I' for Inactive)
REMARK    1  A    between atoms: N_4  and  C_5 
REMARK    2  A    between atoms: C_11  and  O_12 
REMARK    3  A    between atoms: C_13  and  C_14 
REMARK    4  A    between atoms: N_15  and  N_16 
REMARK       I    between atoms: N_16  and  C_17 
REMARK    5  A    between atoms: C_17  and  C_18 
REMARK    6  A    between atoms: C_18  and  C_19 
REMARK    7  A    between atoms: C_19  and  N_20 
REMARK       I    between atoms: N_20  and  C_21 
REMARK    8  A    between atoms: C_21  and  C_22 
ROOT
HETATM    1  C   UNL     1      42.919 -13.481   2.438  1.00  0.00     0.156 C 
HETATM    2  N   UNL     1      42.799 -12.341   3.043  1.00  0.00    -0.184 NA
ENDROOT
BRANCH   2   3
HETATM    3  N   UNL     1      43.898 -11.868   3.722  1.00  0.00    -0.247 N 
HETATM    4  C   UNL     1      43.962 -11.715   5.106  1.00  0.00     0.239 C 
HETATM    5  O   UNL     1      43.033 -11.908   5.885  1.00  0.00    -0.272 OA
HETATM    6  H   UNL     1      44.774 -12.011   3.225  1.00  0.00     0.192 HD
BRANCH   4   7
HETATM    7  C   UNL     1      45.317 -11.212   5.556  1.00  0.00     0.124 C 
BRANCH   7   8
HETATM    8  C   UNL     1      45.525 -11.458   7.046  1.00  0.00     0.132 C 
BRANCH   8   9
HETATM    9  N   UNL     1      44.739 -10.578   7.897  1.00  0.00    -0.356 N 
HETATM   10  C   UNL     1      45.222  -9.361   8.333  1.00  0.00     0.251 C 
HETATM   11  O   UNL     1      46.285  -8.884   7.948  1.00  0.00    -0.268 OA
HETATM   12  H   UNL     1      44.010 -11.019   8.440  1.00  0.00     0.162 HD
BRANCH  10  13
HETATM   13  C   UNL     1      44.397  -8.639   9.345  1.00  0.00     0.032 A 
HETATM   14  C   UNL     1      43.752  -7.426   9.063  1.00  0.00     0.017 A 
HETATM   15  C   UNL     1      42.981  -6.797  10.045  1.00  0.00     0.001 A 
HETATM   16  C   UNL     1      42.863  -7.365  11.313  1.00  0.00     0.000 A 
HETATM   17  C   UNL     1      43.519  -8.559  11.607  1.00  0.00     0.001 A 
HETATM   18  C   UNL     1      44.286  -9.193  10.627  1.00  0.00     0.017 A 
ENDBRANCH  10  13
ENDBRANCH   8   9
ENDBRANCH   7   8
ENDBRANCH   4   7
ENDBRANCH   2   3
BRANCH   1  19
HETATM   19  C   UNL     1      41.803 -14.009   1.689  1.00  0.00     0.062 C 
HETATM   20  C   UNL     1      41.172 -15.276   1.732  1.00  0.00     0.067 C 
HETATM   21  C   UNL     1      41.500 -16.440   2.592  1.00  0.00     0.073 C 
HETATM   22  N   UNL     1      40.134 -15.346   0.889  1.00  0.00    -0.169 NA
HETATM   23  N   UNL     1      40.155 -14.172   0.206  1.00  0.00    -0.210 N 
HETATM   24  C   UNL     1      41.068 -13.282   0.773  1.00  0.00     0.177 C 
BRANCH  23  25
HETATM   25  C   UNL     1      39.315 -13.995  -0.934  1.00  0.00     0.061 A 
HETATM   26  C   UNL     1      39.337 -14.957  -1.956  1.00  0.00     0.031 A 
HETATM   27  C   UNL     1      38.523 -14.808  -3.080  1.00  0.00     0.002 A 
HETATM   28  C   UNL     1      37.695 -13.693  -3.202  1.00  0.00     0.000 A 
HETATM   29  C   UNL     1      37.691 -12.719  -2.206  1.00  0.00     0.002 A 
HETATM   30  C   UNL     1      38.503 -12.862  -1.077  1.00  0.00     0.031 A 
ENDBRANCH  23  25
BRANCH  24  31
HETATM   31  O   UNL     1      41.162 -11.983   0.474  1.00  0.00    -0.344 OA
HETATM   32  H   UNL     1      41.087 -11.885  -0.493  1.00  0.00     0.219 HD
ENDBRANCH  24  31
ENDBRANCH   1  19
TORSDOF 8
ENDMDL
MODEL 7
REMARK VINA RESULT:      -8.3      1.435      2.106
REMARK  8 active torsions:
REMARK  status: ('A' for Active; 'I' for Inactive)
REMARK    1  A    between atoms: N_4  and  C_5 
REMARK    2  A    between atoms: C_11  and  O_12 
REMARK    3  A    between atoms: C_13  and  C_14 
REMARK    4  A    between atoms: N_15  and  N_16 
REMARK       I    between atoms: N_16  and  C_17 
REMARK    5  A    between atoms: C_17  and  C_18 
REMARK    6  A    between atoms: C_18  and  C_19 
REMARK    7  A    between atoms: C_19  and  N_20 
REMARK       I    between atoms: N_20  and  C_21 
REMARK    8  A    between atoms: C_21  and  C_22 
ROOT
HETATM    1  C   UNL     1      42.607 -12.150   6.375  1.00  0.00     0.156 C 
HETATM    2  N   UNL     1      43.780 -11.604   6.449  1.00  0.00    -0.184 NA
ENDROOT
BRANCH   2   3
HETATM    3  N   UNL     1      43.872 -10.392   7.094  1.00  0.00    -0.247 N 
HETATM    4  C   UNL     1      44.716 -10.138   8.174  1.00  0.00     0.239 C 
HETATM    5  O   UNL     1      45.425 -10.971   8.733  1.00  0.00    -0.272 OA
HETATM    6  H   UNL     1      43.604  -9.602   6.513  1.00  0.00     0.192 HD
BRANCH   4   7
HETATM    7  C   UNL     1      44.621  -8.701   8.639  1.00  0.00     0.124 C 
BRANCH   7   8
HETATM    8  C   UNL     1      43.202  -8.363   9.084  1.00  0.00     0.132 C 
BRANCH   8   9
HETATM    9  N   UNL     1      43.096  -8.045  10.500  1.00  0.00    -0.356 N 
HETATM   10  C   UNL     1      42.774  -9.003  11.440  1.00  0.00     0.251 C 
HETATM   11  O   UNL     1      42.668 -10.196  11.175  1.00  0.00    -0.268 OA
HETATM   12  H   UNL     1      42.909  -7.079  10.726  1.00  0.00     0.162 HD
BRANCH  10  13
HETATM   13  C   UNL     1      42.516  -8.516  12.827  1.00  0.00     0.032 A 
HETATM   14  C   UNL     1      43.283  -7.505  13.424  1.00  0.00     0.017 A 
HETATM   15  C   UNL     1      42.991  -7.078  14.723  1.00  0.00     0.001 A 
HETATM   16  C   UNL     1      41.946  -7.665  15.435  1.00  0.00     0.000 A 
HETATM   17  C   UNL     1      41.193  -8.685  14.856  1.00  0.00     0.001 A 
HETATM   18  C   UNL     1      41.478  -9.111  13.557  1.00  0.00     0.017 A 
ENDBRANCH  10  13
ENDBRANCH   8   9
ENDBRANCH   7   8
ENDBRANCH   4   7
ENDBRANCH   2   3
BRANCH   1  19
HETATM   19  C   UNL     1      42.460 -13.434   5.731  1.00  0.00     0.062 C 
HETATM   20  C   UNL     1      41.497 -13.904   4.806  1.00  0.00     0.067 C 
HETATM   21  C   UNL     1      40.341 -13.174   4.228  1.00  0.00     0.073 C 
HETATM   22  N   UNL     1      41.746 -15.162   4.421  1.00  0.00    -0.169 NA
HETATM   23  N   UNL     1      42.799 -15.561   5.181  1.00  0.00    -0.210 N 
HETATM   24  C   UNL     1      43.345 -14.484   5.880  1.00  0.00     0.177 C 
BRANCH  23  25
HETATM   25  C   UNL     1      43.194 -16.932   5.189  1.00  0.00     0.061 A 
HETATM   26  C   UNL     1      43.096 -17.665   6.382  1.00  0.00     0.031 A 
HETATM   27  C   UNL     1      43.473 -19.009   6.416  1.00  0.00     0.002 A 
HETATM   28  C   UNL     1      43.966 -19.626   5.268  1.00  0.00     0.000 A 
HETATM   29  C   UNL     1      44.096 -18.897   4.088  1.00  0.00     0.002 A 
HETATM   30  C   UNL     1      43.718 -17.551   4.046  1.00  0.00     0.031 A 
ENDBRANCH  23  25
BRANCH  24  31
HETATM   31  O   UNL     1      44.511 -14.502   6.532  1.00  0.00    -0.344 OA
HETATM   32  H   UNL     1      44.657 -13.621   6.925  1.00  0.00     0.219 HD
ENDBRANCH  24  31
ENDBRANCH   1  19
TORSDOF 8
ENDMDL
MODEL 8
REMARK VINA RESULT:      -8.3      2.968      5.155
REMARK  8 active torsions:
REMARK  status: ('A' for Active; 'I' for Inactive)
REMARK    1  A    between atoms: N_4  and  C_5 
REMARK    2  A    between atoms: C_11  and  O_12 
REMARK    3  A    between atoms: C_13  and  C_14 
REMARK    4  A    between atoms: N_15  and  N_16 
REMARK       I    between atoms: N_16  and  C_17 
REMARK    5  A    between atoms: C_17  and  C_18 
REMARK    6  A    between atoms: C_18  and  C_19 
REMARK    7  A    between atoms: C_19  and  N_20 
REMARK       I    between atoms: N_20  and  C_21 
REMARK    8  A    between atoms: C_21  and  C_22 
ROOT
HETATM    1  C   UNL     1      42.803 -13.848   5.722  1.00  0.00     0.156 C 
HETATM    2  N   UNL     1      43.558 -13.876   6.775  1.00  0.00    -0.184 NA
ENDROOT
BRANCH   2   3
HETATM    3  N   UNL     1      43.547 -12.768   7.590  1.00  0.00    -0.247 N 
HETATM    4  C   UNL     1      44.382 -11.664   7.429  1.00  0.00     0.239 C 
HETATM    5  O   UNL     1      45.278 -11.568   6.594  1.00  0.00    -0.272 OA
HETATM    6  H   UNL     1      42.656 -12.617   8.057  1.00  0.00     0.192 HD
BRANCH   4   7
HETATM    7  C   UNL     1      44.104 -10.589   8.457  1.00  0.00     0.124 C 
BRANCH   7   8
HETATM    8  C   UNL     1      42.881  -9.764   8.070  1.00  0.00     0.132 C 
BRANCH   8   9
HETATM    9  N   UNL     1      42.575  -9.810   6.649  1.00  0.00    -0.356 N 
HETATM   10  C   UNL     1      41.346 -10.229   6.180  1.00  0.00     0.251 C 
HETATM   11  O   UNL     1      40.397 -10.479   6.916  1.00  0.00    -0.268 OA
HETATM   12  H   UNL     1      43.367  -9.878   6.025  1.00  0.00     0.162 HD
BRANCH  10  13
HETATM   13  C   UNL     1      41.220 -10.407   4.704  1.00  0.00     0.032 A 
HETATM   14  C   UNL     1      39.991 -10.300   4.036  1.00  0.00     0.017 A 
HETATM   15  C   UNL     1      39.931 -10.464   2.649  1.00  0.00     0.001 A 
HETATM   16  C   UNL     1      41.089 -10.747   1.926  1.00  0.00     0.000 A 
HETATM   17  C   UNL     1      42.310 -10.875   2.586  1.00  0.00     0.001 A 
HETATM   18  C   UNL     1      42.375 -10.708   3.971  1.00  0.00     0.017 A 
ENDBRANCH  10  13
ENDBRANCH   8   9
ENDBRANCH   7   8
ENDBRANCH   4   7
ENDBRANCH   2   3
BRANCH   1  19
HETATM   19  C   UNL     1      42.759 -14.996   4.848  1.00  0.00     0.062 C 
HETATM   20  C   UNL     1      42.013 -15.238   3.669  1.00  0.00     0.067 C 
HETATM   21  C   UNL     1      41.043 -14.341   2.992  1.00  0.00     0.073 C 
HETATM   22  N   UNL     1      42.296 -16.431   3.133  1.00  0.00    -0.169 NA
HETATM   23  N   UNL     1      43.137 -17.025   4.021  1.00  0.00    -0.210 N 
HETATM   24  C   UNL     1      43.550 -16.118   4.999  1.00  0.00     0.177 C 
BRANCH  23  25
HETATM   25  C   UNL     1      43.470 -18.404   3.875  1.00  0.00     0.061 A 
HETATM   26  C   UNL     1      43.373 -19.002   2.609  1.00  0.00     0.031 A 
HETATM   27  C   UNL     1      43.696 -20.349   2.439  1.00  0.00     0.002 A 
HETATM   28  C   UNL     1      44.102 -21.114   3.531  1.00  0.00     0.000 A 
HETATM   29  C   UNL     1      44.172 -20.536   4.797  1.00  0.00     0.002 A 
HETATM   30  C   UNL     1      43.851 -19.187   4.974  1.00  0.00     0.031 A 
ENDBRANCH  23  25
BRANCH  24  31
HETATM   31  O   UNL     1      44.538 -16.328   5.873  1.00  0.00    -0.344 OA
HETATM   32  H   UNL     1      45.384 -16.315   5.389  1.00  0.00     0.219 HD
ENDBRANCH  24  31
ENDBRANCH   1  19
TORSDOF 8
ENDMDL
MODEL 9
REMARK VINA RESULT:      -8.1      6.817      9.980
REMARK  8 active torsions:
REMARK  status: ('A' for Active; 'I' for Inactive)
REMARK    1  A    between atoms: N_4  and  C_5 
REMARK    2  A    between atoms: C_11  and  O_12 
REMARK    3  A    between atoms: C_13  and  C_14 
REMARK    4  A    between atoms: N_15  and  N_16 
REMARK       I    between atoms: N_16  and  C_17 
REMARK    5  A    between atoms: C_17  and  C_18 
REMARK    6  A    between atoms: C_18  and  C_19 
REMARK    7  A    between atoms: C_19  and  N_20 
REMARK       I    between atoms: N_20  and  C_21 
REMARK    8  A    between atoms: C_21  and  C_22 
ROOT
HETATM    1  C   UNL     1      40.813 -13.820   1.393  1.00  0.00     0.156 C 
HETATM    2  N   UNL     1      40.206 -14.310   0.358  1.00  0.00    -0.184 NA
ENDROOT
BRANCH   2   3
HETATM    3  N   UNL     1      39.354 -13.476  -0.327  1.00  0.00    -0.247 N 
HETATM    4  C   UNL     1      38.771 -13.783  -1.556  1.00  0.00     0.239 C 
HETATM    5  O   UNL     1      38.996 -14.795  -2.215  1.00  0.00    -0.272 OA
HETATM    6  H   UNL     1      38.866 -12.814   0.271  1.00  0.00     0.192 HD
BRANCH   4   7
HETATM    7  C   UNL     1      37.851 -12.681  -2.036  1.00  0.00     0.124 C 
BRANCH   7   8
HETATM    8  C   UNL     1      38.135 -11.374  -1.304  1.00  0.00     0.132 C 
BRANCH   8   9
HETATM    9  N   UNL     1      39.099 -10.524  -1.986  1.00  0.00    -0.356 N 
HETATM   10  C   UNL     1      40.350 -10.270  -1.460  1.00  0.00     0.251 C 
HETATM   11  O   UNL     1      40.780 -10.825  -0.454  1.00  0.00    -0.268 OA
HETATM   12  H   UNL     1      38.718  -9.856  -2.642  1.00  0.00     0.162 HD
BRANCH  10  13
HETATM   13  C   UNL     1      41.172  -9.240  -2.160  1.00  0.00     0.032 A 
HETATM   14  C   UNL     1      40.940  -8.870  -3.493  1.00  0.00     0.017 A 
HETATM   15  C   UNL     1      41.734  -7.891  -4.097  1.00  0.00     0.001 A 
HETATM   16  C   UNL     1      42.768  -7.288  -3.381  1.00  0.00     0.000 A 
HETATM   17  C   UNL     1      43.018  -7.666  -2.064  1.00  0.00     0.001 A 
HETATM   18  C   UNL     1      42.224  -8.641  -1.455  1.00  0.00     0.017 A 
ENDBRANCH  10  13
ENDBRANCH   8   9
ENDBRANCH   7   8
ENDBRANCH   4   7
ENDBRANCH   2   3
BRANCH   1  19
HETATM   19  C   UNL     1      41.738 -14.646   2.133  1.00  0.00     0.062 C 
HETATM   20  C   UNL     1      42.897 -14.310   2.874  1.00  0.00     0.067 C 
HETATM   21  C   UNL     1      43.489 -12.968   3.098  1.00  0.00     0.073 C 
HETATM   22  N   UNL     1      43.454 -15.384   3.446  1.00  0.00    -0.169 NA
HETATM   23  N   UNL     1      42.736 -16.441   2.984  1.00  0.00    -0.210 N 
HETATM   24  C   UNL     1      41.598 -16.010   2.302  1.00  0.00     0.177 C 
BRANCH  23  25
HETATM   25  C   UNL     1      43.194 -17.772   3.220  1.00  0.00     0.061 A 
HETATM   26  C   UNL     1      43.005 -18.746   2.227  1.00  0.00     0.031 A 
HETATM   27  C   UNL     1      43.446 -20.055   2.432  1.00  0.00     0.002 A 
HETATM   28  C   UNL     1      44.062 -20.406   3.632  1.00  0.00     0.000 A 
HETATM   29  C   UNL     1      44.225 -19.452   4.634  1.00  0.00     0.002 A 
HETATM   30  C   UNL     1      43.787 -18.139   4.436  1.00  0.00     0.031 A 
ENDBRANCH  23  25
BRANCH  24  31
HETATM   31  O   UNL     1      40.583 -16.795   1.926  1.00  0.00    -0.344 OA
HETATM   32  H   UNL     1      39.769 -16.469   2.354  1.00  0.00     0.219 HD
ENDBRANCH  24  31
ENDBRANCH   1  19
TORSDOF 8
ENDMDL
MODEL 10
REMARK VINA RESULT:      -8.0      1.995     11.575
REMARK  8 active torsions:
REMARK  status: ('A' for Active; 'I' for Inactive)
REMARK    1  A    between atoms: N_4  and  C_5 
REMARK    2  A    between atoms: C_11  and  O_12 
REMARK    3  A    between atoms: C_13  and  C_14 
REMARK    4  A    between atoms: N_15  and  N_16 
REMARK       I    between atoms: N_16  and  C_17 
REMARK    5  A    between atoms: C_17  and  C_18 
REMARK    6  A    between atoms: C_18  and  C_19 
REMARK    7  A    between atoms: C_19  and  N_20 
REMARK       I    between atoms: N_20  and  C_21 
REMARK    8  A    between atoms: C_21  and  C_22 
ROOT
HETATM    1  C   UNL     1      42.188  -9.635   9.382  1.00  0.00     0.156 C 
HETATM    2  N   UNL     1      43.375 -10.073   9.102  1.00  0.00    -0.184 NA
ENDROOT
BRANCH   2   3
HETATM    3  N   UNL     1      43.484 -10.999   8.090  1.00  0.00    -0.247 N 
HETATM    4  C   UNL     1      44.690 -11.536   7.641  1.00  0.00     0.239 C 
HETATM    5  O   UNL     1      45.805 -11.203   8.034  1.00  0.00    -0.272 OA
HETATM    6  H   UNL     1      42.645 -11.558   7.960  1.00  0.00     0.192 HD
BRANCH   4   7
HETATM    7  C   UNL     1      44.479 -12.558   6.545  1.00  0.00     0.124 C 
BRANCH   7   8
HETATM    8  C   UNL     1      43.549 -13.674   7.008  1.00  0.00     0.132 C 
BRANCH   8   9
HETATM    9  N   UNL     1      43.226 -14.633   5.963  1.00  0.00    -0.356 N 
HETATM   10  C   UNL     1      43.872 -15.849   5.863  1.00  0.00     0.251 C 
HETATM   11  O   UNL     1      44.669 -16.256   6.701  1.00  0.00    -0.268 OA
HETATM   12  H   UNL     1      42.799 -14.255   5.129  1.00  0.00     0.162 HD
BRANCH  10  13
HETATM   13  C   UNL     1      43.582 -16.661   4.645  1.00  0.00     0.032 A 
HETATM   14  C   UNL     1      42.691 -16.233   3.650  1.00  0.00     0.017 A 
HETATM   15  C   UNL     1      42.465 -17.029   2.523  1.00  0.00     0.001 A 
HETATM   16  C   UNL     1      43.112 -18.256   2.391  1.00  0.00     0.000 A 
HETATM   17  C   UNL     1      43.982 -18.698   3.387  1.00  0.00     0.001 A 
HETATM   18  C   UNL     1      44.214 -17.904   4.512  1.00  0.00     0.017 A 
ENDBRANCH  10  13
ENDBRANCH   8   9
ENDBRANCH   7   8
ENDBRANCH   4   7
ENDBRANCH   2   3
BRANCH   1  19
HETATM   19  C   UNL     1      42.022  -8.643  10.418  1.00  0.00     0.062 C 
HETATM   20  C   UNL     1      42.458  -7.298  10.495  1.00  0.00     0.067 C 
HETATM   21  C   UNL     1      43.228  -6.521   9.493  1.00  0.00     0.073 C 
HETATM   22  N   UNL     1      42.056  -6.706  11.626  1.00  0.00    -0.169 NA
HETATM   23  N   UNL     1      41.461  -7.692  12.348  1.00  0.00    -0.210 N 
HETATM   24  C   UNL     1      41.296  -8.843  11.576  1.00  0.00     0.177 C 
BRANCH  23  25
HETATM   25  C   UNL     1      41.108  -7.465  13.711  1.00  0.00     0.061 A 
HETATM   26  C   UNL     1      41.773  -8.180  14.719  1.00  0.00     0.031 A 
HETATM   27  C   UNL     1      41.448  -7.974  16.061  1.00  0.00     0.002 A 
HETATM   28  C   UNL     1      40.447  -7.068  16.407  1.00  0.00     0.000 A 
HETATM   29  C   UNL     1      39.760  -6.377  15.410  1.00  0.00     0.002 A 
HETATM   30  C   UNL     1      40.082  -6.577  14.064  1.00  0.00     0.031 A 
ENDBRANCH  23  25
BRANCH  24  31
HETATM   31  O   UNL     1      40.554  -9.900  11.920  1.00  0.00    -0.344 OA
HETATM   32  H   UNL     1      40.640 -10.575  11.222  1.00  0.00     0.219 HD
ENDBRANCH  24  31
ENDBRANCH   1  19
TORSDOF 8
ENDMDL
