MODEL 1
REMARK VINA RESULT:      -9.5      0.000      0.000
REMARK  7 active torsions:
REMARK  status: ('A' for Active; 'I' for Inactive)
REMARK    1  A    between atoms: C_8  and  C_9 
REMARK    2  A    between atoms: C_9  and  C_10 
REMARK    3  A    between atoms: C_10  and  N_11 
REMARK       I    between atoms: N_11  and  C_12 
REMARK    4  A    between atoms: C_12  and  C_13 
REMARK    5  A    between atoms: C_13  and  C_14 
REMARK    6  A    between atoms: C_14  and  C_15 
REMARK    7  A    between atoms: C_15  and  N_16 
ROOT
HETATM    1  C   UNL     1      43.932 -11.076   7.059  1.00  0.00     0.104 C 
ENDROOT
BRANCH   1   2
HETATM    2  C   UNL     1      44.512 -10.876   8.442  1.00  0.00     0.217 C 
HETATM    3  N   UNL     1      43.582 -10.788   9.451  1.00  0.00    -0.361 N 
HETATM    4  H   UNL     1      42.632 -10.532   9.205  1.00  0.00     0.162 HD
HETATM    5  O   UNL     1      45.724 -10.856   8.637  1.00  0.00    -0.274 OA
BRANCH   3   6
HETATM    6  C   UNL     1      44.000 -10.547  10.822  1.00  0.00     0.127 C 
BRANCH   6   7
HETATM    7  C   UNL     1      43.610  -9.157  11.329  1.00  0.00     0.060 C 
BRANCH   7   8
HETATM    8  C   UNL     1      42.548  -9.197  12.385  1.00  0.00    -0.029 A 
HETATM    9  C   UNL     1      42.461  -8.378  13.557  1.00  0.00    -0.002 A 
HETATM   10  C   UNL     1      43.249  -7.336  14.090  1.00  0.00     0.014 A 
HETATM   11  C   UNL     1      41.324  -8.776  14.261  1.00  0.00     0.042 A 
HETATM   12  C   UNL     1      42.881  -6.744  15.304  1.00  0.00     0.001 A 
HETATM   13  C   UNL     1      41.740  -7.167  15.982  1.00  0.00     0.002 A 
HETATM   14  C   UNL     1      40.937  -8.191  15.473  1.00  0.00     0.030 A 
HETATM   15  N   UNL     1      40.732  -9.784  13.538  1.00  0.00    -0.365 N 
HETATM   16  H   UNL     1      39.882 -10.260  13.809  1.00  0.00     0.165 HD
HETATM   17  C   UNL     1      41.459 -10.048  12.410  1.00  0.00     0.096 A 
ENDBRANCH   7   8
ENDBRANCH   6   7
ENDBRANCH   3   6
ENDBRANCH   1   2
BRANCH   1  18
HETATM   18  C   UNL     1      44.203 -12.462   6.481  1.00  0.00     0.029 C 
BRANCH  18  19
HETATM   19  C   UNL     1      42.892 -13.237   6.323  1.00  0.00     0.135 C 
BRANCH  19  20
HETATM   20  N   UNL     1      42.998 -14.324   5.339  1.00  0.00    -0.290 N 
HETATM   21  C   UNL     1      42.854 -14.094   3.971  1.00  0.00     0.181 A 
HETATM   22  S   UNL     1      42.515 -12.633   3.220  1.00  0.00    -0.040 SA
HETATM   23  N   UNL     1      43.012 -15.173   3.142  1.00  0.00    -0.332 N 
HETATM   24  C   UNL     1      43.305 -16.460   3.582  1.00  0.00     0.050 A 
HETATM   25  H   UNL     1      42.919 -14.989   2.149  1.00  0.00     0.168 HD
HETATM   26  C   UNL     1      43.417 -16.713   4.942  1.00  0.00     0.060 A 
HETATM   27  C   UNL     1      43.487 -17.487   2.655  1.00  0.00     0.032 A 
HETATM   28  C   UNL     1      43.225 -15.597   5.885  1.00  0.00     0.262 A 
HETATM   29  C   UNL     1      43.715 -18.002   5.398  1.00  0.00     0.038 A 
HETATM   30  O   UNL     1      43.274 -15.831   7.092  1.00  0.00    -0.267 OA
HETATM   31  C   UNL     1      43.901 -19.025   4.473  1.00  0.00     0.012 A 
HETATM   32  C   UNL     1      43.789 -18.775   3.104  1.00  0.00     0.021 A 
HETATM   33 BR   UNL     1      44.314 -20.770   5.074  1.00  0.00    -0.051 Br
ENDBRANCH  19  20
ENDBRANCH  18  19
ENDBRANCH   1  18
TORSDOF 7
ENDMDL
MODEL 2
REMARK VINA RESULT:      -9.2      1.172      1.437
REMARK  7 active torsions:
REMARK  status: ('A' for Active; 'I' for Inactive)
REMARK    1  A    between atoms: C_8  and  C_9 
REMARK    2  A    between atoms: C_9  and  C_10 
REMARK    3  A    between atoms: C_10  and  N_11 
REMARK       I    between atoms: N_11  and  C_12 
REMARK    4  A    between atoms: C_12  and  C_13 
REMARK    5  A    between atoms: C_13  and  C_14 
REMARK    6  A    between atoms: C_14  and  C_15 
REMARK    7  A    between atoms: C_15  and  N_16 
ROOT
HETATM    1  C   UNL     1      44.752 -11.199   6.623  1.00  0.00     0.104 C 
ENDROOT
BRANCH   1   2
HETATM    2  C   UNL     1      44.721 -10.525   7.978  1.00  0.00     0.217 C 
HETATM    3  N   UNL     1      44.760  -9.152   7.940  1.00  0.00    -0.361 N 
HETATM    4  H   UNL     1      45.128  -8.706   7.107  1.00  0.00     0.162 HD
HETATM    5  O   UNL     1      44.609 -11.170   9.016  1.00  0.00    -0.274 OA
BRANCH   3   6
HETATM    6  C   UNL     1      44.785  -8.380   9.171  1.00  0.00     0.127 C 
BRANCH   6   7
HETATM    7  C   UNL     1      43.452  -7.691   9.471  1.00  0.00     0.060 C 
BRANCH   7   8
HETATM    8  C   UNL     1      42.574  -8.491  10.385  1.00  0.00    -0.029 A 
HETATM    9  C   UNL     1      42.486  -8.387  11.811  1.00  0.00    -0.002 A 
HETATM   10  C   UNL     1      43.114  -7.576  12.779  1.00  0.00     0.014 A 
HETATM   11  C   UNL     1      41.559  -9.337  12.242  1.00  0.00     0.042 A 
HETATM   12  C   UNL     1      42.805  -7.752  14.133  1.00  0.00     0.001 A 
HETATM   13  C   UNL     1      41.876  -8.710  14.530  1.00  0.00     0.002 A 
HETATM   14  C   UNL     1      41.233  -9.521  13.591  1.00  0.00     0.030 A 
HETATM   15  N   UNL     1      41.088  -9.981  11.123  1.00  0.00    -0.365 N 
HETATM   16  H   UNL     1      40.395 -10.717  11.135  1.00  0.00     0.165 HD
HETATM   17  C   UNL     1      41.692  -9.483  10.001  1.00  0.00     0.096 A 
ENDBRANCH   7   8
ENDBRANCH   6   7
ENDBRANCH   3   6
ENDBRANCH   1   2
BRANCH   1  18
HETATM   18  C   UNL     1      44.597 -12.715   6.695  1.00  0.00     0.029 C 
BRANCH  18  19
HETATM   19  C   UNL     1      43.181 -13.124   6.277  1.00  0.00     0.135 C 
BRANCH  19  20
HETATM   20  N   UNL     1      43.180 -14.203   5.279  1.00  0.00    -0.290 N 
HETATM   21  C   UNL     1      42.963 -13.952   3.925  1.00  0.00     0.181 A 
HETATM   22  S   UNL     1      42.642 -12.469   3.209  1.00  0.00    -0.040 SA
HETATM   23  N   UNL     1      43.023 -15.026   3.078  1.00  0.00    -0.332 N 
HETATM   24  C   UNL     1      43.287 -16.330   3.488  1.00  0.00     0.050 A 
HETATM   25  H   UNL     1      42.878 -14.827   2.094  1.00  0.00     0.168 HD
HETATM   26  C   UNL     1      43.471 -16.603   4.835  1.00  0.00     0.060 A 
HETATM   27  C   UNL     1      43.367 -17.352   2.542  1.00  0.00     0.032 A 
HETATM   28  C   UNL     1      43.385 -15.491   5.799  1.00  0.00     0.262 A 
HETATM   29  C   UNL     1      43.740 -17.908   5.262  1.00  0.00     0.038 A 
HETATM   30  O   UNL     1      43.497 -15.740   6.998  1.00  0.00    -0.267 OA
HETATM   31  C   UNL     1      43.826 -18.928   4.317  1.00  0.00     0.012 A 
HETATM   32  C   UNL     1      43.641 -18.658   2.960  1.00  0.00     0.021 A 
HETATM   33 BR   UNL     1      44.199 -20.696   4.876  1.00  0.00    -0.051 Br
ENDBRANCH  19  20
ENDBRANCH  18  19
ENDBRANCH   1  18
TORSDOF 7
ENDMDL
MODEL 3
REMARK VINA RESULT:      -8.8      7.029     10.497
REMARK  7 active torsions:
REMARK  status: ('A' for Active; 'I' for Inactive)
REMARK    1  A    between atoms: C_8  and  C_9 
REMARK    2  A    between atoms: C_9  and  C_10 
REMARK    3  A    between atoms: C_10  and  N_11 
REMARK       I    between atoms: N_11  and  C_12 
REMARK    4  A    between atoms: C_12  and  C_13 
REMARK    5  A    between atoms: C_13  and  C_14 
REMARK    6  A    between atoms: C_14  and  C_15 
REMARK    7  A    between atoms: C_15  and  N_16 
ROOT
HETATM    1  C   UNL     1      39.570 -11.892   3.979  1.00  0.00     0.104 C 
ENDROOT
BRANCH   1   2
HETATM    2  C   UNL     1      38.878 -10.912   3.056  1.00  0.00     0.217 C 
HETATM    3  N   UNL     1      38.139 -11.490   2.051  1.00  0.00    -0.361 N 
HETATM    4  H   UNL     1      38.356 -12.444   1.785  1.00  0.00     0.162 HD
HETATM    5  O   UNL     1      38.935  -9.700   3.241  1.00  0.00    -0.274 OA
BRANCH   3   6
HETATM    6  C   UNL     1      37.462 -10.665   1.064  1.00  0.00     0.127 C 
BRANCH   6   7
HETATM    7  C   UNL     1      38.395 -10.178  -0.048  1.00  0.00     0.060 C 
BRANCH   7   8
HETATM    8  C   UNL     1      39.265 -11.266  -0.598  1.00  0.00    -0.029 A 
HETATM    9  C   UNL     1      38.872 -12.329  -1.475  1.00  0.00    -0.002 A 
HETATM   10  C   UNL     1      37.656 -12.700  -2.087  1.00  0.00     0.014 A 
HETATM   11  C   UNL     1      40.000 -13.115  -1.709  1.00  0.00     0.042 A 
HETATM   12  C   UNL     1      37.611 -13.843  -2.895  1.00  0.00     0.001 A 
HETATM   13  C   UNL     1      38.756 -14.607  -3.107  1.00  0.00     0.002 A 
HETATM   14  C   UNL     1      39.975 -14.257  -2.520  1.00  0.00     0.030 A 
HETATM   15  N   UNL     1      41.043 -12.545  -1.019  1.00  0.00    -0.365 N 
HETATM   16  H   UNL     1      41.989 -12.901  -1.013  1.00  0.00     0.165 HD
HETATM   17  C   UNL     1      40.614 -11.434  -0.346  1.00  0.00     0.096 A 
ENDBRANCH   7   8
ENDBRANCH   6   7
ENDBRANCH   3   6
ENDBRANCH   1   2
BRANCH   1  18
HETATM   18  C   UNL     1      39.964 -13.196   3.293  1.00  0.00     0.029 C 
BRANCH  18  19
HETATM   19  C   UNL     1      41.446 -13.166   2.904  1.00  0.00     0.135 C 
BRANCH  19  20
HETATM   20  N   UNL     1      42.192 -14.310   3.446  1.00  0.00    -0.290 N 
HETATM   21  C   UNL     1      42.777 -14.275   4.711  1.00  0.00     0.181 A 
HETATM   22  S   UNL     1      42.782 -12.989   5.789  1.00  0.00    -0.040 SA
HETATM   23  N   UNL     1      43.414 -15.412   5.131  1.00  0.00    -0.332 N 
HETATM   24  C   UNL     1      43.505 -16.579   4.380  1.00  0.00     0.050 A 
HETATM   25  H   UNL     1      43.823 -15.377   6.059  1.00  0.00     0.168 HD
HETATM   26  C   UNL     1      42.958 -16.621   3.105  1.00  0.00     0.060 A 
HETATM   27  C   UNL     1      44.141 -17.701   4.912  1.00  0.00     0.032 A 
HETATM   28  C   UNL     1      42.288 -15.416   2.586  1.00  0.00     0.262 A 
HETATM   29  C   UNL     1      43.038 -17.789   2.339  1.00  0.00     0.038 A 
HETATM   30  O   UNL     1      41.848 -15.435   1.437  1.00  0.00    -0.267 OA
HETATM   31  C   UNL     1      43.669 -18.910   2.873  1.00  0.00     0.012 A 
HETATM   32  C   UNL     1      44.221 -18.873   4.155  1.00  0.00     0.021 A 
HETATM   33 BR   UNL     1      43.778 -20.499   1.854  1.00  0.00    -0.051 Br
ENDBRANCH  19  20
ENDBRANCH  18  19
ENDBRANCH   1  18
TORSDOF 7
ENDMDL
MODEL 4
REMARK VINA RESULT:      -8.7      2.422      3.643
REMARK  7 active torsions:
REMARK  status: ('A' for Active; 'I' for Inactive)
REMARK    1  A    between atoms: C_8  and  C_9 
REMARK    2  A    between atoms: C_9  and  C_10 
REMARK    3  A    between atoms: C_10  and  N_11 
REMARK       I    between atoms: N_11  and  C_12 
REMARK    4  A    between atoms: C_12  and  C_13 
REMARK    5  A    between atoms: C_13  and  C_14 
REMARK    6  A    between atoms: C_14  and  C_15 
REMARK    7  A    between atoms: C_15  and  N_16 
ROOT
HETATM    1  C   UNL     1      40.462 -11.265   5.867  1.00  0.00     0.104 C 
ENDROOT
BRANCH   1   2
HETATM    2  C   UNL     1      39.548 -10.760   6.963  1.00  0.00     0.217 C 
HETATM    3  N   UNL     1      40.159  -9.958   7.898  1.00  0.00    -0.361 N 
HETATM    4  H   UNL     1      41.165 -10.024   8.001  1.00  0.00     0.162 HD
HETATM    5  O   UNL     1      38.346 -11.008   6.966  1.00  0.00    -0.274 OA
BRANCH   3   6
HETATM    6  C   UNL     1      39.408  -9.445   9.033  1.00  0.00     0.127 C 
BRANCH   6   7
HETATM    7  C   UNL     1      40.231  -8.506   9.917  1.00  0.00     0.060 C 
BRANCH   7   8
HETATM    8  C   UNL     1      41.455  -9.159  10.482  1.00  0.00    -0.029 A 
HETATM    9  C   UNL     1      42.789  -9.092   9.965  1.00  0.00    -0.002 A 
HETATM   10  C   UNL     1      43.385  -8.450   8.860  1.00  0.00     0.014 A 
HETATM   11  C   UNL     1      43.599  -9.866  10.797  1.00  0.00     0.042 A 
HETATM   12  C   UNL     1      44.755  -8.613   8.622  1.00  0.00     0.001 A 
HETATM   13  C   UNL     1      45.534  -9.394   9.471  1.00  0.00     0.002 A 
HETATM   14  C   UNL     1      44.971 -10.035  10.578  1.00  0.00     0.030 A 
HETATM   15  N   UNL     1      42.795 -10.369  11.792  1.00  0.00    -0.365 N 
HETATM   16  H   UNL     1      43.117 -10.962  12.544  1.00  0.00     0.165 HD
HETATM   17  C   UNL     1      41.504  -9.954  11.612  1.00  0.00     0.096 A 
ENDBRANCH   7   8
ENDBRANCH   6   7
ENDBRANCH   3   6
ENDBRANCH   1   2
BRANCH   1  18
HETATM   18  C   UNL     1      40.779 -12.753   5.979  1.00  0.00     0.029 C 
BRANCH  18  19
HETATM   19  C   UNL     1      42.282 -12.991   5.803  1.00  0.00     0.135 C 
BRANCH  19  20
HETATM   20  N   UNL     1      42.570 -14.113   4.899  1.00  0.00    -0.290 N 
HETATM   21  C   UNL     1      42.609 -13.951   3.515  1.00  0.00     0.181 A 
HETATM   22  S   UNL     1      42.315 -12.543   2.651  1.00  0.00    -0.040 SA
HETATM   23  N   UNL     1      42.926 -15.055   2.770  1.00  0.00    -0.332 N 
HETATM   24  C   UNL     1      43.210 -16.306   3.310  1.00  0.00     0.050 A 
HETATM   25  H   UNL     1      42.964 -14.920   1.765  1.00  0.00     0.168 HD
HETATM   26  C   UNL     1      43.143 -16.494   4.683  1.00  0.00     0.060 A 
HETATM   27  C   UNL     1      43.563 -17.362   2.470  1.00  0.00     0.032 A 
HETATM   28  C   UNL     1      42.774 -15.348   5.534  1.00  0.00     0.262 A 
HETATM   29  C   UNL     1      43.429 -17.745   5.240  1.00  0.00     0.038 A 
HETATM   30  O   UNL     1      42.664 -15.526   6.746  1.00  0.00    -0.267 OA
HETATM   31  C   UNL     1      43.786 -18.797   4.401  1.00  0.00     0.012 A 
HETATM   32  C   UNL     1      43.855 -18.613   3.019  1.00  0.00     0.021 A 
HETATM   33 BR   UNL     1      44.186 -20.492   5.140  1.00  0.00    -0.051 Br
ENDBRANCH  19  20
ENDBRANCH  18  19
ENDBRANCH   1  18
TORSDOF 7
ENDMDL
MODEL 5
REMARK VINA RESULT:      -8.6      4.046     11.059
REMARK  7 active torsions:
REMARK  status: ('A' for Active; 'I' for Inactive)
REMARK    1  A    between atoms: C_8  and  C_9 
REMARK    2  A    between atoms: C_9  and  C_10 
REMARK    3  A    between atoms: C_10  and  N_11 
REMARK       I    between atoms: N_11  and  C_12 
REMARK    4  A    between atoms: C_12  and  C_13 
REMARK    5  A    between atoms: C_13  and  C_14 
REMARK    6  A    between atoms: C_14  and  C_15 
REMARK    7  A    between atoms: C_15  and  N_16 
ROOT
HETATM    1  C   UNL     1      40.219 -11.937   5.004  1.00  0.00     0.104 C 
ENDROOT
BRANCH   1   2
HETATM    2  C   UNL     1      40.127 -13.059   3.992  1.00  0.00     0.217 C 
HETATM    3  N   UNL     1      40.932 -14.142   4.257  1.00  0.00    -0.361 N 
HETATM    4  H   UNL     1      41.732 -14.007   4.864  1.00  0.00     0.162 HD
HETATM    5  O   UNL     1      39.346 -13.012   3.046  1.00  0.00    -0.274 OA
BRANCH   3   6
HETATM    6  C   UNL     1      40.978 -15.269   3.340  1.00  0.00     0.127 C 
BRANCH   6   7
HETATM    7  C   UNL     1      42.393 -15.578   2.846  1.00  0.00     0.060 C 
BRANCH   7   8
HETATM    8  C   UNL     1      43.074 -16.641   3.653  1.00  0.00    -0.029 A 
HETATM    9  C   UNL     1      43.262 -18.014   3.293  1.00  0.00    -0.002 A 
HETATM   10  C   UNL     1      42.923 -18.791   2.165  1.00  0.00     0.014 A 
HETATM   11  C   UNL     1      43.925 -18.636   4.351  1.00  0.00     0.042 A 
HETATM   12  C   UNL     1      43.246 -20.153   2.143  1.00  0.00     0.001 A 
HETATM   13  C   UNL     1      43.907 -20.743   3.217  1.00  0.00     0.002 A 
HETATM   14  C   UNL     1      44.262 -19.995   4.343  1.00  0.00     0.030 A 
HETATM   15  N   UNL     1      44.149 -17.677   5.310  1.00  0.00    -0.365 N 
HETATM   16  H   UNL     1      44.622 -17.843   6.188  1.00  0.00     0.165 HD
HETATM   17  C   UNL     1      43.641 -16.474   4.903  1.00  0.00     0.096 A 
ENDBRANCH   7   8
ENDBRANCH   6   7
ENDBRANCH   3   6
ENDBRANCH   1   2
BRANCH   1  18
HETATM   18  C   UNL     1      41.472 -12.003   5.872  1.00  0.00     0.029 C 
BRANCH  18  19
HETATM   19  C   UNL     1      42.158 -10.634   5.919  1.00  0.00     0.135 C 
BRANCH  19  20
HETATM   20  N   UNL     1      42.733 -10.341   7.239  1.00  0.00    -0.290 N 
HETATM   21  C   UNL     1      44.023 -10.744   7.585  1.00  0.00     0.181 A 
HETATM   22  S   UNL     1      45.097 -11.622   6.642  1.00  0.00    -0.040 SA
HETATM   23  N   UNL     1      44.472 -10.383   8.827  1.00  0.00    -0.332 N 
HETATM   24  C   UNL     1      43.728  -9.646   9.744  1.00  0.00     0.050 A 
HETATM   25  H   UNL     1      45.417 -10.670   9.061  1.00  0.00     0.168 HD
HETATM   26  C   UNL     1      42.431  -9.266   9.429  1.00  0.00     0.060 A 
HETATM   27  C   UNL     1      44.290  -9.292  10.971  1.00  0.00     0.032 A 
HETATM   28  C   UNL     1      41.881  -9.655   8.119  1.00  0.00     0.262 A 
HETATM   29  C   UNL     1      41.672  -8.523  10.340  1.00  0.00     0.038 A 
HETATM   30  O   UNL     1      40.714  -9.363   7.859  1.00  0.00    -0.267 OA
HETATM   31  C   UNL     1      42.235  -8.165  11.562  1.00  0.00     0.012 A 
HETATM   32  C   UNL     1      43.539  -8.545  11.883  1.00  0.00     0.021 A 
HETATM   33 BR   UNL     1      41.225  -7.152  12.799  1.00  0.00    -0.051 Br
ENDBRANCH  19  20
ENDBRANCH  18  19
ENDBRANCH   1  18
TORSDOF 7
ENDMDL
MODEL 6
REMARK VINA RESULT:      -8.6      4.833      9.373
REMARK  7 active torsions:
REMARK  status: ('A' for Active; 'I' for Inactive)
REMARK    1  A    between atoms: C_8  and  C_9 
REMARK    2  A    between atoms: C_9  and  C_10 
REMARK    3  A    between atoms: C_10  and  N_11 
REMARK       I    between atoms: N_11  and  C_12 
REMARK    4  A    between atoms: C_12  and  C_13 
REMARK    5  A    between atoms: C_13  and  C_14 
REMARK    6  A    between atoms: C_14  and  C_15 
REMARK    7  A    between atoms: C_15  and  N_16 
ROOT
HETATM    1  C   UNL     1      39.098 -12.084   3.833  1.00  0.00     0.104 C 
ENDROOT
BRANCH   1   2
HETATM    2  C   UNL     1      39.740 -13.387   4.259  1.00  0.00     0.217 C 
HETATM    3  N   UNL     1      39.864 -13.552   5.618  1.00  0.00    -0.361 N 
HETATM    4  H   UNL     1      39.845 -12.725   6.204  1.00  0.00     0.162 HD
HETATM    5  O   UNL     1      40.066 -14.243   3.441  1.00  0.00    -0.274 OA
BRANCH   3   6
HETATM    6  C   UNL     1      40.508 -14.736   6.162  1.00  0.00     0.127 C 
BRANCH   6   7
HETATM    7  C   UNL     1      42.035 -14.637   6.166  1.00  0.00     0.060 C 
BRANCH   7   8
HETATM    8  C   UNL     1      42.707 -15.970   6.040  1.00  0.00    -0.029 A 
HETATM    9  C   UNL     1      43.040 -16.661   4.831  1.00  0.00    -0.002 A 
HETATM   10  C   UNL     1      42.886 -16.373   3.459  1.00  0.00     0.014 A 
HETATM   11  C   UNL     1      43.632 -17.872   5.192  1.00  0.00     0.042 A 
HETATM   12  C   UNL     1      43.316 -17.304   2.505  1.00  0.00     0.001 A 
HETATM   13  C   UNL     1      43.902 -18.504   2.899  1.00  0.00     0.002 A 
HETATM   14  C   UNL     1      44.074 -18.811   4.252  1.00  0.00     0.030 A 
HETATM   15  N   UNL     1      43.676 -17.909   6.565  1.00  0.00    -0.365 N 
HETATM   16  H   UNL     1      44.062 -18.671   7.106  1.00  0.00     0.165 HD
HETATM   17  C   UNL     1      43.120 -16.773   7.087  1.00  0.00     0.096 A 
ENDBRANCH   7   8
ENDBRANCH   6   7
ENDBRANCH   3   6
ENDBRANCH   1   2
BRANCH   1  18
HETATM   18  C   UNL     1      39.233 -10.974   4.871  1.00  0.00     0.029 C 
BRANCH  18  19
HETATM   19  C   UNL     1      40.341  -9.997   4.463  1.00  0.00     0.135 C 
BRANCH  19  20
HETATM   20  N   UNL     1      41.654 -10.384   4.998  1.00  0.00    -0.290 N 
HETATM   21  C   UNL     1      42.617 -11.007   4.203  1.00  0.00     0.181 A 
HETATM   22  S   UNL     1      42.470 -11.448   2.591  1.00  0.00    -0.040 SA
HETATM   23  N   UNL     1      43.820 -11.288   4.794  1.00  0.00    -0.332 N 
HETATM   24  C   UNL     1      44.129 -10.988   6.117  1.00  0.00     0.050 A 
HETATM   25  H   UNL     1      44.516 -11.728   4.202  1.00  0.00     0.168 HD
HETATM   26  C   UNL     1      43.172 -10.400   6.931  1.00  0.00     0.060 A 
HETATM   27  C   UNL     1      45.399 -11.278   6.617  1.00  0.00     0.032 A 
HETATM   28  C   UNL     1      41.846 -10.104   6.360  1.00  0.00     0.262 A 
HETATM   29  C   UNL     1      43.470 -10.090   8.263  1.00  0.00     0.038 A 
HETATM   30  O   UNL     1      40.980  -9.630   7.094  1.00  0.00    -0.267 OA
HETATM   31  C   UNL     1      44.739 -10.374   8.760  1.00  0.00     0.012 A 
HETATM   32  C   UNL     1      45.706 -10.966   7.945  1.00  0.00     0.021 A 
HETATM   33 BR   UNL     1      45.160  -9.952  10.554  1.00  0.00    -0.051 Br
ENDBRANCH  19  20
ENDBRANCH  18  19
ENDBRANCH   1  18
TORSDOF 7
ENDMDL
MODEL 7
REMARK VINA RESULT:      -8.5      3.100      4.075
REMARK  7 active torsions:
REMARK  status: ('A' for Active; 'I' for Inactive)
REMARK    1  A    between atoms: C_8  and  C_9 
REMARK    2  A    between atoms: C_9  and  C_10 
REMARK    3  A    between atoms: C_10  and  N_11 
REMARK       I    between atoms: N_11  and  C_12 
REMARK    4  A    between atoms: C_12  and  C_13 
REMARK    5  A    between atoms: C_13  and  C_14 
REMARK    6  A    between atoms: C_14  and  C_15 
REMARK    7  A    between atoms: C_15  and  N_16 
ROOT
HETATM    1  C   UNL     1      40.020 -12.518   5.898  1.00  0.00     0.104 C 
ENDROOT
BRANCH   1   2
HETATM    2  C   UNL     1      40.133 -11.011   5.816  1.00  0.00     0.217 C 
HETATM    3  N   UNL     1      40.726 -10.417   6.905  1.00  0.00    -0.361 N 
HETATM    4  H   UNL     1      40.739 -10.928   7.781  1.00  0.00     0.162 HD
HETATM    5  O   UNL     1      39.770 -10.390   4.821  1.00  0.00    -0.274 OA
BRANCH   3   6
HETATM    6  C   UNL     1      40.853  -8.971   6.979  1.00  0.00     0.127 C 
BRANCH   6   7
HETATM    7  C   UNL     1      40.544  -8.415   8.371  1.00  0.00     0.060 C 
BRANCH   7   8
HETATM    8  C   UNL     1      41.351  -9.067   9.453  1.00  0.00    -0.029 A 
HETATM    9  C   UNL     1      42.777  -9.187   9.516  1.00  0.00    -0.002 A 
HETATM   10  C   UNL     1      43.837  -8.774   8.682  1.00  0.00     0.014 A 
HETATM   11  C   UNL     1      43.085  -9.883  10.685  1.00  0.00     0.042 A 
HETATM   12  C   UNL     1      45.155  -9.080   9.040  1.00  0.00     0.001 A 
HETATM   13  C   UNL     1      45.429  -9.778  10.213  1.00  0.00     0.002 A 
HETATM   14  C   UNL     1      44.398 -10.192  11.061  1.00  0.00     0.030 A 
HETATM   15  N   UNL     1      41.897 -10.160  11.318  1.00  0.00    -0.365 N 
HETATM   16  H   UNL     1      41.817 -10.652  12.198  1.00  0.00     0.165 HD
HETATM   17  C   UNL     1      40.847  -9.677  10.587  1.00  0.00     0.096 A 
ENDBRANCH   7   8
ENDBRANCH   6   7
ENDBRANCH   3   6
ENDBRANCH   1   2
BRANCH   1  18
HETATM   18  C   UNL     1      40.267 -13.218   4.564  1.00  0.00     0.029 C 
BRANCH  18  19
HETATM   19  C   UNL     1      41.744 -13.108   4.172  1.00  0.00     0.135 C 
BRANCH  19  20
HETATM   20  N   UNL     1      42.492 -14.342   4.451  1.00  0.00    -0.290 N 
HETATM   21  C   UNL     1      43.242 -14.500   5.616  1.00  0.00     0.181 A 
HETATM   22  S   UNL     1      43.460 -13.375   6.841  1.00  0.00    -0.040 SA
HETATM   23  N   UNL     1      43.866 -15.706   5.791  1.00  0.00    -0.332 N 
HETATM   24  C   UNL     1      43.792 -16.762   4.889  1.00  0.00     0.050 A 
HETATM   25  H   UNL     1      44.397 -15.813   6.649  1.00  0.00     0.168 HD
HETATM   26  C   UNL     1      43.079 -16.610   3.708  1.00  0.00     0.060 A 
HETATM   27  C   UNL     1      44.432 -17.968   5.176  1.00  0.00     0.032 A 
HETATM   28  C   UNL     1      42.412 -15.322   3.449  1.00  0.00     0.262 A 
HETATM   29  C   UNL     1      42.993 -17.665   2.793  1.00  0.00     0.038 A 
HETATM   30  O   UNL     1      41.823 -15.168   2.380  1.00  0.00    -0.267 OA
HETATM   31  C   UNL     1      43.628 -18.870   3.083  1.00  0.00     0.012 A 
HETATM   32  C   UNL     1      44.347 -19.028   4.269  1.00  0.00     0.021 A 
HETATM   33 BR   UNL     1      43.513 -20.308   1.860  1.00  0.00    -0.051 Br
ENDBRANCH  19  20
ENDBRANCH  18  19
ENDBRANCH   1  18
TORSDOF 7
ENDMDL
MODEL 8
REMARK VINA RESULT:      -8.5      7.368     11.244
REMARK  7 active torsions:
REMARK  status: ('A' for Active; 'I' for Inactive)
REMARK    1  A    between atoms: C_8  and  C_9 
REMARK    2  A    between atoms: C_9  and  C_10 
REMARK    3  A    between atoms: C_10  and  N_11 
REMARK       I    between atoms: N_11  and  C_12 
REMARK    4  A    between atoms: C_12  and  C_13 
REMARK    5  A    between atoms: C_13  and  C_14 
REMARK    6  A    between atoms: C_14  and  C_15 
REMARK    7  A    between atoms: C_15  and  N_16 
ROOT
HETATM    1  C   UNL     1      41.206 -10.605   1.222  1.00  0.00     0.104 C 
ENDROOT
BRANCH   1   2
HETATM    2  C   UNL     1      41.340  -9.746  -0.018  1.00  0.00     0.217 C 
HETATM    3  N   UNL     1      40.150  -9.294  -0.537  1.00  0.00    -0.361 N 
HETATM    4  H   UNL     1      39.302  -9.796  -0.299  1.00  0.00     0.162 HD
HETATM    5  O   UNL     1      42.437  -9.440  -0.476  1.00  0.00    -0.274 OA
BRANCH   3   6
HETATM    6  C   UNL     1      40.130  -8.501  -1.755  1.00  0.00     0.127 C 
BRANCH   6   7
HETATM    7  C   UNL     1      40.130  -9.355  -3.024  1.00  0.00     0.060 C 
BRANCH   7   8
HETATM    8  C   UNL     1      39.095 -10.439  -2.998  1.00  0.00    -0.029 A 
HETATM    9  C   UNL     1      39.319 -11.846  -2.844  1.00  0.00    -0.002 A 
HETATM   10  C   UNL     1      40.467 -12.646  -2.668  1.00  0.00     0.014 A 
HETATM   11  C   UNL     1      38.074 -12.474  -2.900  1.00  0.00     0.042 A 
HETATM   12  C   UNL     1      40.331 -14.036  -2.568  1.00  0.00     0.001 A 
HETATM   13  C   UNL     1      39.074 -14.632  -2.630  1.00  0.00     0.002 A 
HETATM   14  C   UNL     1      37.919 -13.862  -2.795  1.00  0.00     0.030 A 
HETATM   15  N   UNL     1      37.129 -11.490  -3.063  1.00  0.00    -0.365 N 
HETATM   16  H   UNL     1      36.134 -11.656  -3.128  1.00  0.00     0.165 HD
HETATM   17  C   UNL     1      37.730 -10.262  -3.126  1.00  0.00     0.096 A 
ENDBRANCH   7   8
ENDBRANCH   6   7
ENDBRANCH   3   6
ENDBRANCH   1   2
BRANCH   1  18
HETATM   18  C   UNL     1      41.336 -12.099   0.942  1.00  0.00     0.029 C 
BRANCH  18  19
HETATM   19  C   UNL     1      40.602 -12.906   2.017  1.00  0.00     0.135 C 
BRANCH  19  20
HETATM   20  N   UNL     1      41.480 -13.874   2.689  1.00  0.00    -0.290 N 
HETATM   21  C   UNL     1      42.154 -13.561   3.869  1.00  0.00     0.181 A 
HETATM   22  S   UNL     1      42.133 -12.097   4.689  1.00  0.00    -0.040 SA
HETATM   23  N   UNL     1      42.914 -14.552   4.430  1.00  0.00    -0.332 N 
HETATM   24  C   UNL     1      43.045 -15.831   3.900  1.00  0.00     0.050 A 
HETATM   25  H   UNL     1      43.388 -14.315   5.296  1.00  0.00     0.168 HD
HETATM   26  C   UNL     1      42.408 -16.150   2.708  1.00  0.00     0.060 A 
HETATM   27  C   UNL     1      43.811 -16.786   4.568  1.00  0.00     0.032 A 
HETATM   28  C   UNL     1      41.602 -15.113   2.040  1.00  0.00     0.262 A 
HETATM   29  C   UNL     1      42.528 -17.434   2.164  1.00  0.00     0.038 A 
HETATM   30  O   UNL     1      41.080 -15.378   0.959  1.00  0.00    -0.267 OA
HETATM   31  C   UNL     1      43.289 -18.388   2.835  1.00  0.00     0.012 A 
HETATM   32  C   UNL     1      43.931 -18.072   4.033  1.00  0.00     0.021 A 
HETATM   33 BR   UNL     1      43.453 -20.130   2.117  1.00  0.00    -0.051 Br
ENDBRANCH  19  20
ENDBRANCH  18  19
ENDBRANCH   1  18
TORSDOF 7
ENDMDL
MODEL 9
REMARK VINA RESULT:      -8.3      4.290     10.443
REMARK  7 active torsions:
REMARK  status: ('A' for Active; 'I' for Inactive)
REMARK    1  A    between atoms: C_8  and  C_9 
REMARK    2  A    between atoms: C_9  and  C_10 
REMARK    3  A    between atoms: C_10  and  N_11 
REMARK       I    between atoms: N_11  and  C_12 
REMARK    4  A    between atoms: C_12  and  C_13 
REMARK    5  A    between atoms: C_13  and  C_14 
REMARK    6  A    between atoms: C_14  and  C_15 
REMARK    7  A    between atoms: C_15  and  N_16 
ROOT
HETATM    1  C   UNL     1      41.971 -11.301   2.606  1.00  0.00     0.104 C 
ENDROOT
BRANCH   1   2
HETATM    2  C   UNL     1      42.229 -12.752   2.265  1.00  0.00     0.217 C 
HETATM    3  N   UNL     1      41.236 -13.357   1.531  1.00  0.00    -0.361 N 
HETATM    4  H   UNL     1      40.308 -12.949   1.553  1.00  0.00     0.162 HD
HETATM    5  O   UNL     1      43.276 -13.313   2.576  1.00  0.00    -0.274 OA
BRANCH   3   6
HETATM    6  C   UNL     1      41.332 -14.764   1.177  1.00  0.00     0.127 C 
BRANCH   6   7
HETATM    7  C   UNL     1      40.523 -15.671   2.106  1.00  0.00     0.060 C 
BRANCH   7   8
HETATM    8  C   UNL     1      41.285 -16.085   3.328  1.00  0.00    -0.029 A 
HETATM    9  C   UNL     1      42.367 -17.021   3.397  1.00  0.00    -0.002 A 
HETATM   10  C   UNL     1      43.049 -17.808   2.446  1.00  0.00     0.014 A 
HETATM   11  C   UNL     1      42.755 -17.111   4.734  1.00  0.00     0.042 A 
HETATM   12  C   UNL     1      44.079 -18.658   2.865  1.00  0.00     0.001 A 
HETATM   13  C   UNL     1      44.441 -18.726   4.208  1.00  0.00     0.002 A 
HETATM   14  C   UNL     1      43.787 -17.952   5.170  1.00  0.00     0.030 A 
HETATM   15  N   UNL     1      41.955 -16.252   5.449  1.00  0.00    -0.365 N 
HETATM   16  H   UNL     1      42.019 -16.105   6.447  1.00  0.00     0.165 HD
HETATM   17  C   UNL     1      41.066 -15.630   4.615  1.00  0.00     0.096 A 
ENDBRANCH   7   8
ENDBRANCH   6   7
ENDBRANCH   3   6
ENDBRANCH   1   2
BRANCH   1  18
HETATM   18  C   UNL     1      42.614 -10.863   3.919  1.00  0.00     0.029 C 
BRANCH  18  19
HETATM   19  C   UNL     1      41.780 -11.352   5.108  1.00  0.00     0.135 C 
BRANCH  19  20
HETATM   20  N   UNL     1      42.380 -10.991   6.400  1.00  0.00    -0.290 N 
HETATM   21  C   UNL     1      43.316 -11.811   7.030  1.00  0.00     0.181 A 
HETATM   22  S   UNL     1      43.884 -13.296   6.497  1.00  0.00    -0.040 SA
HETATM   23  N   UNL     1      43.839 -11.358   8.212  1.00  0.00    -0.332 N 
HETATM   24  C   UNL     1      43.496 -10.147   8.805  1.00  0.00     0.050 A 
HETATM   25  H   UNL     1      44.529 -11.957   8.653  1.00  0.00     0.168 HD
HETATM   26  C   UNL     1      42.542  -9.335   8.209  1.00  0.00     0.060 A 
HETATM   27  C   UNL     1      44.115  -9.754   9.991  1.00  0.00     0.032 A 
HETATM   28  C   UNL     1      41.919  -9.786   6.951  1.00  0.00     0.262 A 
HETATM   29  C   UNL     1      42.189  -8.113   8.792  1.00  0.00     0.038 A 
HETATM   30  O   UNL     1      41.036  -9.092   6.449  1.00  0.00    -0.267 OA
HETATM   31  C   UNL     1      42.812  -7.718   9.973  1.00  0.00     0.012 A 
HETATM   32  C   UNL     1      43.773  -8.532  10.577  1.00  0.00     0.021 A 
HETATM   33 BR   UNL     1      42.354  -6.065  10.768  1.00  0.00    -0.051 Br
ENDBRANCH  19  20
ENDBRANCH  18  19
ENDBRANCH   1  18
TORSDOF 7
ENDMDL
MODEL 10
REMARK VINA RESULT:      -8.1      2.354      3.224
REMARK  7 active torsions:
REMARK  status: ('A' for Active; 'I' for Inactive)
REMARK    1  A    between atoms: C_8  and  C_9 
REMARK    2  A    between atoms: C_9  and  C_10 
REMARK    3  A    between atoms: C_10  and  N_11 
REMARK       I    between atoms: N_11  and  C_12 
REMARK    4  A    between atoms: C_12  and  C_13 
REMARK    5  A    between atoms: C_13  and  C_14 
REMARK    6  A    between atoms: C_14  and  C_15 
REMARK    7  A    between atoms: C_15  and  N_16 
ROOT
HETATM    1  C   UNL     1      42.317 -10.733   3.790  1.00  0.00     0.104 C 
ENDROOT
BRANCH   1   2
HETATM    2  C   UNL     1      41.896 -10.398   5.204  1.00  0.00     0.217 C 
HETATM    3  N   UNL     1      42.917  -9.987   6.028  1.00  0.00    -0.361 N 
HETATM    4  H   UNL     1      43.866 -10.240   5.778  1.00  0.00     0.162 HD
HETATM    5  O   UNL     1      40.720 -10.439   5.554  1.00  0.00    -0.274 OA
BRANCH   3   6
HETATM    6  C   UNL     1      42.660  -9.681   7.426  1.00  0.00     0.127 C 
BRANCH   6   7
HETATM    7  C   UNL     1      43.938  -9.582   8.261  1.00  0.00     0.060 C 
BRANCH   7   8
HETATM    8  C   UNL     1      43.677  -9.615   9.736  1.00  0.00    -0.029 A 
HETATM    9  C   UNL     1      43.225  -8.533  10.559  1.00  0.00    -0.002 A 
HETATM   10  C   UNL     1      42.884  -7.187  10.315  1.00  0.00     0.014 A 
HETATM   11  C   UNL     1      43.141  -9.012  11.867  1.00  0.00     0.042 A 
HETATM   12  C   UNL     1      42.487  -6.371  11.381  1.00  0.00     0.001 A 
HETATM   13  C   UNL     1      42.416  -6.879  12.675  1.00  0.00     0.002 A 
HETATM   14  C   UNL     1      42.740  -8.212  12.944  1.00  0.00     0.030 A 
HETATM   15  N   UNL     1      43.509 -10.336  11.839  1.00  0.00    -0.365 N 
HETATM   16  H   UNL     1      43.535 -10.941  12.649  1.00  0.00     0.165 HD
HETATM   17  C   UNL     1      43.836 -10.710  10.564  1.00  0.00     0.096 A 
ENDBRANCH   7   8
ENDBRANCH   6   7
ENDBRANCH   3   6
ENDBRANCH   1   2
BRANCH   1  18
HETATM   18  C   UNL     1      42.963 -12.109   3.659  1.00  0.00     0.029 C 
BRANCH  18  19
HETATM   19  C   UNL     1      41.954 -13.205   4.020  1.00  0.00     0.135 C 
BRANCH  19  20
HETATM   20  N   UNL     1      42.606 -14.479   4.354  1.00  0.00    -0.290 N 
HETATM   21  C   UNL     1      43.200 -14.699   5.596  1.00  0.00     0.181 A 
HETATM   22  S   UNL     1      43.318 -13.611   6.868  1.00  0.00    -0.040 SA
HETATM   23  N   UNL     1      43.743 -15.937   5.813  1.00  0.00    -0.332 N 
HETATM   24  C   UNL     1      43.732 -16.969   4.881  1.00  0.00     0.050 A 
HETATM   25  H   UNL     1      44.159 -16.088   6.726  1.00  0.00     0.168 HD
HETATM   26  C   UNL     1      43.176 -16.757   3.627  1.00  0.00     0.060 A 
HETATM   27  C   UNL     1      44.276 -18.210   5.210  1.00  0.00     0.032 A 
HETATM   28  C   UNL     1      42.605 -15.433   3.324  1.00  0.00     0.262 A 
HETATM   29  C   UNL     1      43.155 -17.787   2.680  1.00  0.00     0.038 A 
HETATM   30  O   UNL     1      42.158 -15.228   2.196  1.00  0.00    -0.267 OA
HETATM   31  C   UNL     1      43.694 -19.027   3.012  1.00  0.00     0.012 A 
HETATM   32  C   UNL     1      44.254 -19.245   4.272  1.00  0.00     0.021 A 
HETATM   33 BR   UNL     1      43.664 -20.432   1.746  1.00  0.00    -0.051 Br
ENDBRANCH  19  20
ENDBRANCH  18  19
ENDBRANCH   1  18
TORSDOF 7
ENDMDL
