MODEL 1
REMARK VINA RESULT:      -9.4      0.000      0.000
REMARK  6 active torsions:
REMARK  status: ('A' for Active; 'I' for Inactive)
REMARK    1  A    between atoms: O_2  and  C_3 
REMARK    2  A    between atoms: C_5  and  N_6 
REMARK    3  A    between atoms: C_7  and  O_8 
REMARK    4  A    between atoms: C_7  and  C_9 
REMARK       I    between atoms: C_9  and  N_10 
REMARK    5  A    between atoms: N_10  and  C_11 
REMARK    6  A    between atoms: C_11  and  C_12 
ROOT
HETATM    1  N   UNL     1      41.345 -13.585   2.929  1.00  0.00    -0.254 N 
HETATM    2  C   UNL     1      41.114 -14.874   3.602  1.00  0.00     0.256 C 
HETATM    3  C   UNL     1      41.698 -14.928   5.002  1.00  0.00     0.034 A 
HETATM    4  C   UNL     1      42.779 -14.109   5.291  1.00  0.00     0.048 A 
HETATM    5  N   UNL     1      43.203 -13.206   4.327  1.00  0.00    -0.308 N 
HETATM    6  C   UNL     1      42.515 -12.883   3.192  1.00  0.00     0.330 C 
HETATM    7  O   UNL     1      43.006 -12.006   2.482  1.00  0.00    -0.246 OA
HETATM    8  C   UNL     1      41.273 -15.849   5.975  1.00  0.00     0.015 A 
HETATM    9  C   UNL     1      41.925 -15.928   7.208  1.00  0.00     0.001 A 
HETATM   10  C   UNL     1      43.014 -15.101   7.474  1.00  0.00     0.002 A 
HETATM   11  C   UNL     1      43.448 -14.190   6.513  1.00  0.00     0.030 A 
HETATM   12  H   UNL     1      43.999 -12.607   4.510  1.00  0.00     0.170 HD
ENDROOT
BRANCH   2  13
HETATM   13  O   UNL     1      39.706 -15.071   3.774  1.00  0.00    -0.359 OA
HETATM   14  H   UNL     1      39.615 -15.995   4.075  1.00  0.00     0.213 HD
ENDBRANCH   2  13
BRANCH   2  15
HETATM   15  C   UNL     1      41.742 -16.061   2.759  1.00  0.00     0.279 C 
HETATM   16  N   UNL     1      43.054 -16.391   3.018  1.00  0.00    -0.352 N 
HETATM   17  H   UNL     1      43.596 -15.820   3.655  1.00  0.00     0.162 HD
HETATM   18  O   UNL     1      41.045 -16.693   1.959  1.00  0.00    -0.268 OA
BRANCH  16  19
HETATM   19  C   UNL     1      43.683 -17.547   2.428  1.00  0.00     0.163 C 
BRANCH  19  20
HETATM   20  C   UNL     1      43.776 -18.675   3.422  1.00  0.00    -0.019 A 
HETATM   21  C   UNL     1      43.780 -20.024   3.030  1.00  0.00     0.042 A 
HETATM   22 CL   UNL     1      43.683 -20.493   1.369  1.00  0.00    -0.084 Cl
HETATM   23  C   UNL     1      43.855 -21.043   3.984  1.00  0.00     0.024 A 
HETATM   24  C   UNL     1      43.921 -20.730   5.342  1.00  0.00     0.002 A 
HETATM   25  C   UNL     1      43.909 -19.398   5.746  1.00  0.00     0.001 A 
HETATM   26  C   UNL     1      43.833 -18.378   4.795  1.00  0.00     0.010 A 
ENDBRANCH  19  20
ENDBRANCH  16  19
ENDBRANCH   2  15
BRANCH   1  27
HETATM   27  C   UNL     1      40.465 -13.134   1.872  1.00  0.00     0.045 A 
HETATM   28  C   UNL     1      40.586 -13.671   0.578  1.00  0.00     0.066 A 
HETATM   29  C   UNL     1      39.787 -13.236  -0.489  1.00  0.00     0.070 A 
HETATM   30  C   UNL     1      38.838 -12.244  -0.270  1.00  0.00     0.037 A 
HETATM   31  C   UNL     1      38.695 -11.697   1.004  1.00  0.00     0.005 A 
HETATM   32  C   UNL     1      39.501 -12.134   2.061  1.00  0.00     0.030 A 
BRANCH  29  33
HETATM   33  O   UNL     1      40.047 -13.849  -1.685  1.00  0.00    -0.356 OA
HETATM   34  C   UNL     1      39.033 -14.697  -2.209  1.00  0.00     0.210 C 
ENDBRANCH  29  33
ENDBRANCH   1  27
TORSDOF 6
ENDMDL
MODEL 2
REMARK VINA RESULT:      -9.0      1.129      1.831
REMARK  6 active torsions:
REMARK  status: ('A' for Active; 'I' for Inactive)
REMARK    1  A    between atoms: O_2  and  C_3 
REMARK    2  A    between atoms: C_5  and  N_6 
REMARK    3  A    between atoms: C_7  and  O_8 
REMARK    4  A    between atoms: C_7  and  C_9 
REMARK       I    between atoms: C_9  and  N_10 
REMARK    5  A    between atoms: N_10  and  C_11 
REMARK    6  A    between atoms: C_11  and  C_12 
ROOT
HETATM    1  N   UNL     1      41.421 -13.263   2.988  1.00  0.00    -0.254 N 
HETATM    2  C   UNL     1      41.115 -14.582   3.566  1.00  0.00     0.256 C 
HETATM    3  C   UNL     1      41.641 -14.749   4.980  1.00  0.00     0.034 A 
HETATM    4  C   UNL     1      42.741 -13.995   5.361  1.00  0.00     0.048 A 
HETATM    5  N   UNL     1      43.236 -13.050   4.474  1.00  0.00    -0.308 N 
HETATM    6  C   UNL     1      42.605 -12.627   3.339  1.00  0.00     0.330 C 
HETATM    7  O   UNL     1      43.157 -11.727   2.707  1.00  0.00    -0.246 OA
HETATM    8  C   UNL     1      41.144 -15.713   5.873  1.00  0.00     0.015 A 
HETATM    9  C   UNL     1      41.743 -15.897   7.121  1.00  0.00     0.001 A 
HETATM   10  C   UNL     1      42.852 -15.134   7.482  1.00  0.00     0.002 A 
HETATM   11  C   UNL     1      43.357 -14.181   6.598  1.00  0.00     0.030 A 
HETATM   12  H   UNL     1      44.046 -12.497   4.726  1.00  0.00     0.170 HD
ENDROOT
BRANCH   2  13
HETATM   13  O   UNL     1      39.694 -14.733   3.673  1.00  0.00    -0.359 OA
HETATM   14  H   UNL     1      39.336 -13.832   3.556  1.00  0.00     0.213 HD
ENDBRANCH   2  13
BRANCH   2  15
HETATM   15  C   UNL     1      41.729 -15.736   2.670  1.00  0.00     0.279 C 
HETATM   16  N   UNL     1      42.898 -16.318   3.108  1.00  0.00    -0.352 N 
HETATM   17  H   UNL     1      43.371 -15.939   3.919  1.00  0.00     0.162 HD
HETATM   18  O   UNL     1      41.131 -16.127   1.662  1.00  0.00    -0.268 OA
BRANCH  16  19
HETATM   19  C   UNL     1      43.465 -17.477   2.463  1.00  0.00     0.163 C 
BRANCH  19  20
HETATM   20  C   UNL     1      43.663 -18.599   3.449  1.00  0.00    -0.019 A 
HETATM   21  C   UNL     1      43.717 -19.946   3.053  1.00  0.00     0.042 A 
HETATM   22 CL   UNL     1      43.562 -20.419   1.398  1.00  0.00    -0.084 Cl
HETATM   23  C   UNL     1      43.889 -20.960   4.000  1.00  0.00     0.024 A 
HETATM   24  C   UNL     1      44.005 -20.644   5.354  1.00  0.00     0.002 A 
HETATM   25  C   UNL     1      43.946 -19.314   5.761  1.00  0.00     0.001 A 
HETATM   26  C   UNL     1      43.772 -18.300   4.818  1.00  0.00     0.010 A 
ENDBRANCH  19  20
ENDBRANCH  16  19
ENDBRANCH   2  15
BRANCH   1  27
HETATM   27  C   UNL     1      40.600 -12.709   1.932  1.00  0.00     0.045 A 
HETATM   28  C   UNL     1      39.505 -11.886   2.249  1.00  0.00     0.066 A 
HETATM   29  C   UNL     1      38.654 -11.362   1.265  1.00  0.00     0.070 A 
HETATM   30  C   UNL     1      38.895 -11.657  -0.072  1.00  0.00     0.037 A 
HETATM   31  C   UNL     1      39.976 -12.468  -0.414  1.00  0.00     0.005 A 
HETATM   32  C   UNL     1      40.815 -12.990   0.576  1.00  0.00     0.030 A 
BRANCH  29  33
HETATM   33  O   UNL     1      37.626 -10.596   1.747  1.00  0.00    -0.356 OA
HETATM   34  C   UNL     1      37.947  -9.278   2.168  1.00  0.00     0.210 C 
ENDBRANCH  29  33
ENDBRANCH   1  27
TORSDOF 6
ENDMDL
MODEL 3
REMARK VINA RESULT:      -8.7      2.468      6.906
REMARK  6 active torsions:
REMARK  status: ('A' for Active; 'I' for Inactive)
REMARK    1  A    between atoms: O_2  and  C_3 
REMARK    2  A    between atoms: C_5  and  N_6 
REMARK    3  A    between atoms: C_7  and  O_8 
REMARK    4  A    between atoms: C_7  and  C_9 
REMARK       I    between atoms: C_9  and  N_10 
REMARK    5  A    between atoms: N_10  and  C_11 
REMARK    6  A    between atoms: C_11  and  C_12 
ROOT
HETATM    1  N   UNL     1      41.542 -15.198   4.410  1.00  0.00    -0.254 N 
HETATM    2  C   UNL     1      41.431 -14.124   3.409  1.00  0.00     0.256 C 
HETATM    3  C   UNL     1      40.835 -12.846   3.971  1.00  0.00     0.034 A 
HETATM    4  C   UNL     1      39.992 -12.945   5.068  1.00  0.00     0.048 A 
HETATM    5  N   UNL     1      39.822 -14.187   5.663  1.00  0.00    -0.308 N 
HETATM    6  C   UNL     1      40.584 -15.293   5.413  1.00  0.00     0.330 C 
HETATM    7  O   UNL     1      40.339 -16.293   6.086  1.00  0.00    -0.246 OA
HETATM    8  C   UNL     1      41.000 -11.590   3.362  1.00  0.00     0.015 A 
HETATM    9  C   UNL     1      40.334 -10.469   3.860  1.00  0.00     0.001 A 
HETATM   10  C   UNL     1      39.486 -10.592   4.958  1.00  0.00     0.002 A 
HETATM   11  C   UNL     1      39.309 -11.835   5.564  1.00  0.00     0.030 A 
HETATM   12  H   UNL     1      39.201 -14.286   6.457  1.00  0.00     0.170 HD
ENDROOT
BRANCH   2  13
HETATM   13  O   UNL     1      42.741 -13.761   2.959  1.00  0.00    -0.359 OA
HETATM   14  H   UNL     1      43.244 -14.598   2.947  1.00  0.00     0.213 HD
ENDBRANCH   2  13
BRANCH   2  15
HETATM   15  C   UNL     1      40.534 -14.592   2.189  1.00  0.00     0.279 C 
HETATM   16  N   UNL     1      40.857 -14.098   0.945  1.00  0.00    -0.352 N 
HETATM   17  H   UNL     1      41.579 -13.394   0.859  1.00  0.00     0.162 HD
HETATM   18  O   UNL     1      39.633 -15.420   2.361  1.00  0.00    -0.268 OA
BRANCH  16  19
HETATM   19  C   UNL     1      40.214 -14.572  -0.257  1.00  0.00     0.163 C 
BRANCH  19  20
HETATM   20  C   UNL     1      39.237 -13.553  -0.781  1.00  0.00    -0.019 A 
HETATM   21  C   UNL     1      38.496 -13.758  -1.958  1.00  0.00     0.042 A 
HETATM   22 CL   UNL     1      38.649 -15.202  -2.894  1.00  0.00    -0.084 Cl
HETATM   23  C   UNL     1      37.607 -12.782  -2.419  1.00  0.00     0.024 A 
HETATM   24  C   UNL     1      37.449 -11.588  -1.716  1.00  0.00     0.002 A 
HETATM   25  C   UNL     1      38.182 -11.367  -0.553  1.00  0.00     0.001 A 
HETATM   26  C   UNL     1      39.072 -12.339  -0.091  1.00  0.00     0.010 A 
ENDBRANCH  19  20
ENDBRANCH  16  19
ENDBRANCH   2  15
BRANCH   1  27
HETATM   27  C   UNL     1      42.521 -16.253   4.258  1.00  0.00     0.045 A 
HETATM   28  C   UNL     1      42.398 -17.181   3.208  1.00  0.00     0.066 A 
HETATM   29  C   UNL     1      43.295 -18.246   3.044  1.00  0.00     0.070 A 
HETATM   30  C   UNL     1      44.347 -18.397   3.941  1.00  0.00     0.037 A 
HETATM   31  C   UNL     1      44.492 -17.489   4.988  1.00  0.00     0.005 A 
HETATM   32  C   UNL     1      43.589 -16.433   5.147  1.00  0.00     0.030 A 
BRANCH  29  33
HETATM   33  O   UNL     1      43.021 -19.066   1.982  1.00  0.00    -0.356 OA
HETATM   34  C   UNL     1      43.612 -20.359   1.996  1.00  0.00     0.210 C 
ENDBRANCH  29  33
ENDBRANCH   1  27
TORSDOF 6
ENDMDL
MODEL 4
REMARK VINA RESULT:      -8.6      3.314      5.007
REMARK  6 active torsions:
REMARK  status: ('A' for Active; 'I' for Inactive)
REMARK    1  A    between atoms: O_2  and  C_3 
REMARK    2  A    between atoms: C_5  and  N_6 
REMARK    3  A    between atoms: C_7  and  O_8 
REMARK    4  A    between atoms: C_7  and  C_9 
REMARK       I    between atoms: C_9  and  N_10 
REMARK    5  A    between atoms: N_10  and  C_11 
REMARK    6  A    between atoms: C_11  and  C_12 
ROOT
HETATM    1  N   UNL     1      43.818 -11.420   5.345  1.00  0.00    -0.254 N 
HETATM    2  C   UNL     1      43.233 -11.726   6.662  1.00  0.00     0.256 C 
HETATM    3  C   UNL     1      43.949 -11.033   7.806  1.00  0.00     0.034 A 
HETATM    4  C   UNL     1      45.283 -10.693   7.633  1.00  0.00     0.048 A 
HETATM    5  N   UNL     1      45.864 -10.903   6.390  1.00  0.00    -0.308 N 
HETATM    6  C   UNL     1      45.186 -11.205   5.244  1.00  0.00     0.330 C 
HETATM    7  O   UNL     1      45.856 -11.285   4.215  1.00  0.00    -0.246 OA
HETATM    8  C   UNL     1      43.362 -10.830   9.067  1.00  0.00     0.015 A 
HETATM    9  C   UNL     1      44.108 -10.289  10.116  1.00  0.00     0.001 A 
HETATM   10  C   UNL     1      45.449  -9.962   9.923  1.00  0.00     0.002 A 
HETATM   11  C   UNL     1      46.042 -10.168   8.678  1.00  0.00     0.030 A 
HETATM   12  H   UNL     1      46.840 -10.675   6.245  1.00  0.00     0.170 HD
ENDROOT
BRANCH   2  13
HETATM   13  O   UNL     1      41.888 -11.235   6.707  1.00  0.00    -0.359 OA
HETATM   14  H   UNL     1      41.356 -11.918   6.258  1.00  0.00     0.213 HD
ENDBRANCH   2  13
BRANCH   2  15
HETATM   15  C   UNL     1      43.264 -13.287   6.933  1.00  0.00     0.279 C 
HETATM   16  N   UNL     1      42.088 -13.980   6.751  1.00  0.00    -0.352 N 
HETATM   17  H   UNL     1      41.236 -13.474   6.547  1.00  0.00     0.162 HD
HETATM   18  O   UNL     1      44.326 -13.847   7.226  1.00  0.00    -0.268 OA
BRANCH  16  19
HETATM   19  C   UNL     1      42.030 -15.420   6.816  1.00  0.00     0.163 C 
BRANCH  19  20
HETATM   20  C   UNL     1      42.140 -16.026   5.441  1.00  0.00    -0.019 A 
HETATM   21  C   UNL     1      43.303 -16.679   4.998  1.00  0.00     0.042 A 
HETATM   22 CL   UNL     1      44.699 -16.840   6.003  1.00  0.00    -0.084 Cl
HETATM   23  C   UNL     1      43.370 -17.217   3.709  1.00  0.00     0.024 A 
HETATM   24  C   UNL     1      42.282 -17.107   2.845  1.00  0.00     0.002 A 
HETATM   25  C   UNL     1      41.126 -16.455   3.266  1.00  0.00     0.001 A 
HETATM   26  C   UNL     1      41.056 -15.915   4.552  1.00  0.00     0.010 A 
ENDBRANCH  19  20
ENDBRANCH  16  19
ENDBRANCH   2  15
BRANCH   1  27
HETATM   27  C   UNL     1      43.020 -11.518   4.141  1.00  0.00     0.045 A 
HETATM   28  C   UNL     1      42.326 -10.392   3.662  1.00  0.00     0.066 A 
HETATM   29  C   UNL     1      41.506 -10.448   2.526  1.00  0.00     0.070 A 
HETATM   30  C   UNL     1      41.370 -11.650   1.841  1.00  0.00     0.037 A 
HETATM   31  C   UNL     1      42.050 -12.779   2.293  1.00  0.00     0.005 A 
HETATM   32  C   UNL     1      42.861 -12.715   3.430  1.00  0.00     0.030 A 
BRANCH  29  33
HETATM   33  O   UNL     1      40.890  -9.267   2.208  1.00  0.00    -0.356 OA
HETATM   34  C   UNL     1      40.548  -8.406   3.286  1.00  0.00     0.210 C 
ENDBRANCH  29  33
ENDBRANCH   1  27
TORSDOF 6
ENDMDL
MODEL 5
REMARK VINA RESULT:      -8.5      2.587      7.041
REMARK  6 active torsions:
REMARK  status: ('A' for Active; 'I' for Inactive)
REMARK    1  A    between atoms: O_2  and  C_3 
REMARK    2  A    between atoms: C_5  and  N_6 
REMARK    3  A    between atoms: C_7  and  O_8 
REMARK    4  A    between atoms: C_7  and  C_9 
REMARK       I    between atoms: C_9  and  N_10 
REMARK    5  A    between atoms: N_10  and  C_11 
REMARK    6  A    between atoms: C_11  and  C_12 
ROOT
HETATM    1  N   UNL     1      42.201 -15.627   3.985  1.00  0.00    -0.254 N 
HETATM    2  C   UNL     1      42.317 -14.471   3.081  1.00  0.00     0.256 C 
HETATM    3  C   UNL     1      42.395 -13.145   3.816  1.00  0.00     0.034 A 
HETATM    4  C   UNL     1      41.823 -13.062   5.076  1.00  0.00     0.048 A 
HETATM    5  N   UNL     1      41.307 -14.217   5.647  1.00  0.00    -0.308 N 
HETATM    6  C   UNL     1      41.509 -15.485   5.182  1.00  0.00     0.330 C 
HETATM    7  O   UNL     1      41.036 -16.400   5.855  1.00  0.00    -0.246 OA
HETATM    8  C   UNL     1      42.909 -11.975   3.232  1.00  0.00     0.015 A 
HETATM    9  C   UNL     1      42.851 -10.758   3.916  1.00  0.00     0.001 A 
HETATM   10  C   UNL     1      42.264 -10.696   5.179  1.00  0.00     0.002 A 
HETATM   11  C   UNL     1      41.744 -11.850   5.762  1.00  0.00     0.030 A 
HETATM   12  H   UNL     1      40.873 -14.178   6.561  1.00  0.00     0.170 HD
ENDROOT
BRANCH   2  13
HETATM   13  O   UNL     1      43.543 -14.567   2.347  1.00  0.00    -0.359 OA
HETATM   14  H   UNL     1      43.321 -14.270   1.444  1.00  0.00     0.213 HD
ENDBRANCH   2  13
BRANCH   2  15
HETATM   15  C   UNL     1      41.080 -14.415   2.091  1.00  0.00     0.279 C 
HETATM   16  N   UNL     1      41.354 -14.418   0.741  1.00  0.00    -0.352 N 
HETATM   17  H   UNL     1      42.315 -14.362   0.426  1.00  0.00     0.162 HD
HETATM   18  O   UNL     1      39.927 -14.438   2.533  1.00  0.00    -0.268 OA
BRANCH  16  19
HETATM   19  C   UNL     1      40.313 -14.527  -0.251  1.00  0.00     0.163 C 
BRANCH  19  20
HETATM   20  C   UNL     1      40.287 -13.310  -1.139  1.00  0.00    -0.019 A 
HETATM   21  C   UNL     1      39.634 -13.301  -2.383  1.00  0.00     0.042 A 
HETATM   22 CL   UNL     1      38.806 -14.691  -2.990  1.00  0.00    -0.084 Cl
HETATM   23  C   UNL     1      39.644 -12.155  -3.184  1.00  0.00     0.024 A 
HETATM   24  C   UNL     1      40.307 -11.005  -2.757  1.00  0.00     0.002 A 
HETATM   25  C   UNL     1      40.965 -11.002  -1.530  1.00  0.00     0.001 A 
HETATM   26  C   UNL     1      40.959 -12.145  -0.729  1.00  0.00     0.010 A 
ENDBRANCH  19  20
ENDBRANCH  16  19
ENDBRANCH   2  15
BRANCH   1  27
HETATM   27  C   UNL     1      42.638 -16.941   3.566  1.00  0.00     0.045 A 
HETATM   28  C   UNL     1      43.491 -17.697   4.390  1.00  0.00     0.066 A 
HETATM   29  C   UNL     1      43.976 -18.956   4.008  1.00  0.00     0.070 A 
HETATM   30  C   UNL     1      43.605 -19.486   2.778  1.00  0.00     0.037 A 
HETATM   31  C   UNL     1      42.758 -18.759   1.943  1.00  0.00     0.005 A 
HETATM   32  C   UNL     1      42.283 -17.501   2.331  1.00  0.00     0.030 A 
BRANCH  29  33
HETATM   33  O   UNL     1      44.810 -19.547   4.920  1.00  0.00    -0.356 OA
HETATM   34  C   UNL     1      44.444 -20.840   5.385  1.00  0.00     0.210 C 
ENDBRANCH  29  33
ENDBRANCH   1  27
TORSDOF 6
ENDMDL
MODEL 6
REMARK VINA RESULT:      -8.3      3.511      7.231
REMARK  6 active torsions:
REMARK  status: ('A' for Active; 'I' for Inactive)
REMARK    1  A    between atoms: O_2  and  C_3 
REMARK    2  A    between atoms: C_5  and  N_6 
REMARK    3  A    between atoms: C_7  and  O_8 
REMARK    4  A    between atoms: C_7  and  C_9 
REMARK       I    between atoms: C_9  and  N_10 
REMARK    5  A    between atoms: N_10  and  C_11 
REMARK    6  A    between atoms: C_11  and  C_12 
ROOT
HETATM    1  N   UNL     1      42.741 -12.376   4.729  1.00  0.00    -0.254 N 
HETATM    2  C   UNL     1      41.664 -13.371   4.586  1.00  0.00     0.256 C 
HETATM    3  C   UNL     1      42.062 -14.560   3.731  1.00  0.00     0.034 A 
HETATM    4  C   UNL     1      43.052 -14.376   2.777  1.00  0.00     0.048 A 
HETATM    5  N   UNL     1      43.704 -13.152   2.725  1.00  0.00    -0.308 N 
HETATM    6  C   UNL     1      43.623 -12.174   3.675  1.00  0.00     0.330 C 
HETATM    7  O   UNL     1      44.326 -11.180   3.501  1.00  0.00    -0.246 OA
HETATM    8  C   UNL     1      41.395 -15.795   3.779  1.00  0.00     0.015 A 
HETATM    9  C   UNL     1      41.732 -16.817   2.888  1.00  0.00     0.001 A 
HETATM   10  C   UNL     1      42.724 -16.609   1.932  1.00  0.00     0.002 A 
HETATM   11  C   UNL     1      43.386 -15.383   1.871  1.00  0.00     0.030 A 
HETATM   12  H   UNL     1      44.420 -12.991   2.027  1.00  0.00     0.170 HD
ENDROOT
BRANCH   2  13
HETATM   13  O   UNL     1      41.354 -13.919   5.873  1.00  0.00    -0.359 OA
HETATM   14  H   UNL     1      40.645 -14.568   5.705  1.00  0.00     0.213 HD
ENDBRANCH   2  13
BRANCH   2  15
HETATM   15  C   UNL     1      40.378 -12.706   3.941  1.00  0.00     0.279 C 
HETATM   16  N   UNL     1      40.482 -12.266   2.640  1.00  0.00    -0.352 N 
HETATM   17  H   UNL     1      41.380 -12.292   2.174  1.00  0.00     0.162 HD
HETATM   18  O   UNL     1      39.318 -12.659   4.575  1.00  0.00    -0.268 OA
BRANCH  16  19
HETATM   19  C   UNL     1      39.339 -11.789   1.900  1.00  0.00     0.163 C 
BRANCH  19  20
HETATM   20  C   UNL     1      39.185 -12.543   0.604  1.00  0.00    -0.019 A 
HETATM   21  C   UNL     1      38.319 -12.115  -0.416  1.00  0.00     0.042 A 
HETATM   22 CL   UNL     1      37.362 -10.684  -0.261  1.00  0.00    -0.084 Cl
HETATM   23  C   UNL     1      38.194 -12.850  -1.599  1.00  0.00     0.024 A 
HETATM   24  C   UNL     1      38.929 -14.021  -1.779  1.00  0.00     0.002 A 
HETATM   25  C   UNL     1      39.785 -14.462  -0.774  1.00  0.00     0.001 A 
HETATM   26  C   UNL     1      39.911 -13.731   0.410  1.00  0.00     0.010 A 
ENDBRANCH  19  20
ENDBRANCH  16  19
ENDBRANCH   2  15
BRANCH   1  27
HETATM   27  C   UNL     1      42.780 -11.488   5.871  1.00  0.00     0.045 A 
HETATM   28  C   UNL     1      43.787 -11.633   6.843  1.00  0.00     0.066 A 
HETATM   29  C   UNL     1      43.842 -10.827   7.988  1.00  0.00     0.070 A 
HETATM   30  C   UNL     1      42.876  -9.844   8.178  1.00  0.00     0.037 A 
HETATM   31  C   UNL     1      41.869  -9.677   7.229  1.00  0.00     0.005 A 
HETATM   32  C   UNL     1      41.820 -10.491   6.092  1.00  0.00     0.030 A 
BRANCH  29  33
HETATM   33  O   UNL     1      44.875 -11.113   8.840  1.00  0.00    -0.356 OA
HETATM   34  C   UNL     1      45.169 -10.151   9.844  1.00  0.00     0.210 C 
ENDBRANCH  29  33
ENDBRANCH   1  27
TORSDOF 6
ENDMDL
MODEL 7
REMARK VINA RESULT:      -8.3      2.180      3.315
REMARK  6 active torsions:
REMARK  status: ('A' for Active; 'I' for Inactive)
REMARK    1  A    between atoms: O_2  and  C_3 
REMARK    2  A    between atoms: C_5  and  N_6 
REMARK    3  A    between atoms: C_7  and  O_8 
REMARK    4  A    between atoms: C_7  and  C_9 
REMARK       I    between atoms: C_9  and  N_10 
REMARK    5  A    between atoms: N_10  and  C_11 
REMARK    6  A    between atoms: C_11  and  C_12 
ROOT
HETATM    1  N   UNL     1      40.117 -12.433   1.121  1.00  0.00    -0.254 N 
HETATM    2  C   UNL     1      40.027 -13.194   2.379  1.00  0.00     0.256 C 
HETATM    3  C   UNL     1      40.157 -12.321   3.613  1.00  0.00     0.034 A 
HETATM    4  C   UNL     1      40.860 -11.130   3.500  1.00  0.00     0.048 A 
HETATM    5  N   UNL     1      41.312 -10.744   2.247  1.00  0.00    -0.308 N 
HETATM    6  C   UNL     1      40.938 -11.313   1.063  1.00  0.00     0.330 C 
HETATM    7  O   UNL     1      41.383 -10.796   0.039  1.00  0.00    -0.246 OA
HETATM    8  C   UNL     1      39.707 -12.718   4.884  1.00  0.00     0.015 A 
HETATM    9  C   UNL     1      39.956 -11.922   6.004  1.00  0.00     0.001 A 
HETATM   10  C   UNL     1      40.671 -10.734   5.869  1.00  0.00     0.002 A 
HETATM   11  C   UNL     1      41.129 -10.335   4.615  1.00  0.00     0.030 A 
HETATM   12  H   UNL     1      41.839  -9.885   2.143  1.00  0.00     0.170 HD
ENDROOT
BRANCH   2  13
HETATM   13  O   UNL     1      38.729 -13.792   2.476  1.00  0.00    -0.359 OA
HETATM   14  H   UNL     1      38.111 -13.103   2.168  1.00  0.00     0.213 HD
ENDBRANCH   2  13
BRANCH   2  15
HETATM   15  C   UNL     1      41.156 -14.305   2.437  1.00  0.00     0.279 C 
HETATM   16  N   UNL     1      40.776 -15.568   2.830  1.00  0.00    -0.352 N 
HETATM   17  H   UNL     1      39.830 -15.728   3.154  1.00  0.00     0.162 HD
HETATM   18  O   UNL     1      42.308 -14.041   2.074  1.00  0.00    -0.268 OA
BRANCH  16  19
HETATM   19  C   UNL     1      41.679 -16.692   2.773  1.00  0.00     0.163 C 
BRANCH  19  20
HETATM   20  C   UNL     1      42.304 -16.950   4.119  1.00  0.00    -0.019 A 
HETATM   21  C   UNL     1      43.423 -17.785   4.281  1.00  0.00     0.042 A 
HETATM   22 CL   UNL     1      44.170 -18.580   2.941  1.00  0.00    -0.084 Cl
HETATM   23  C   UNL     1      43.966 -18.009   5.549  1.00  0.00     0.024 A 
HETATM   24  C   UNL     1      43.399 -17.407   6.672  1.00  0.00     0.002 A 
HETATM   25  C   UNL     1      42.286 -16.584   6.529  1.00  0.00     0.001 A 
HETATM   26  C   UNL     1      41.740 -16.359   5.263  1.00  0.00     0.010 A 
ENDBRANCH  19  20
ENDBRANCH  16  19
ENDBRANCH   2  15
BRANCH   1  27
HETATM   27  C   UNL     1      39.511 -12.936  -0.093  1.00  0.00     0.045 A 
HETATM   28  C   UNL     1      38.511 -12.190  -0.743  1.00  0.00     0.066 A 
HETATM   29  C   UNL     1      37.863 -12.654  -1.896  1.00  0.00     0.070 A 
HETATM   30  C   UNL     1      38.215 -13.890  -2.426  1.00  0.00     0.037 A 
HETATM   31  C   UNL     1      39.204 -14.649  -1.803  1.00  0.00     0.005 A 
HETATM   32  C   UNL     1      39.842 -14.179  -0.649  1.00  0.00     0.030 A 
BRANCH  29  33
HETATM   33  O   UNL     1      36.903 -11.812  -2.390  1.00  0.00    -0.356 OA
HETATM   34  C   UNL     1      36.737 -10.564  -1.730  1.00  0.00     0.210 C 
ENDBRANCH  29  33
ENDBRANCH   1  27
TORSDOF 6
ENDMDL
MODEL 8
REMARK VINA RESULT:      -7.9      3.219      6.735
REMARK  6 active torsions:
REMARK  status: ('A' for Active; 'I' for Inactive)
REMARK    1  A    between atoms: O_2  and  C_3 
REMARK    2  A    between atoms: C_5  and  N_6 
REMARK    3  A    between atoms: C_7  and  O_8 
REMARK    4  A    between atoms: C_7  and  C_9 
REMARK       I    between atoms: C_9  and  N_10 
REMARK    5  A    between atoms: N_10  and  C_11 
REMARK    6  A    between atoms: C_11  and  C_12 
ROOT
HETATM    1  N   UNL     1      41.185 -12.959   4.340  1.00  0.00    -0.254 N 
HETATM    2  C   UNL     1      40.894 -13.863   3.214  1.00  0.00     0.256 C 
HETATM    3  C   UNL     1      41.638 -15.182   3.303  1.00  0.00     0.034 A 
HETATM    4  C   UNL     1      42.834 -15.212   4.005  1.00  0.00     0.048 A 
HETATM    5  N   UNL     1      43.234 -14.068   4.681  1.00  0.00    -0.308 N 
HETATM    6  C   UNL     1      42.451 -12.974   4.912  1.00  0.00     0.330 C 
HETATM    7  O   UNL     1      42.946 -12.077   5.593  1.00  0.00    -0.246 OA
HETATM    8  C   UNL     1      41.237 -16.337   2.610  1.00  0.00     0.015 A 
HETATM    9  C   UNL     1      42.024 -17.490   2.639  1.00  0.00     0.001 A 
HETATM   10  C   UNL     1      43.226 -17.496   3.344  1.00  0.00     0.002 A 
HETATM   11  C   UNL     1      43.637 -16.353   4.028  1.00  0.00     0.030 A 
HETATM   12  H   UNL     1      44.110 -14.063   5.189  1.00  0.00     0.170 HD
ENDROOT
BRANCH   2  13
HETATM   13  O   UNL     1      39.505 -14.212   3.236  1.00  0.00    -0.359 OA
HETATM   14  H   UNL     1      39.042 -13.389   3.481  1.00  0.00     0.213 HD
ENDBRANCH   2  13
BRANCH   2  15
HETATM   15  C   UNL     1      41.271 -13.174   1.837  1.00  0.00     0.279 C 
HETATM   16  N   UNL     1      40.477 -13.463   0.750  1.00  0.00    -0.352 N 
HETATM   17  H   UNL     1      39.750 -14.162   0.835  1.00  0.00     0.162 HD
HETATM   18  O   UNL     1      42.201 -12.362   1.782  1.00  0.00    -0.268 OA
BRANCH  16  19
HETATM   19  C   UNL     1      40.627 -12.779  -0.511  1.00  0.00     0.163 C 
BRANCH  19  20
HETATM   20  C   UNL     1      39.526 -13.164  -1.465  1.00  0.00    -0.019 A 
HETATM   21  C   UNL     1      38.270 -12.534  -1.457  1.00  0.00     0.042 A 
HETATM   22 CL   UNL     1      37.893 -11.263  -0.348  1.00  0.00    -0.084 Cl
HETATM   23  C   UNL     1      37.270 -12.928  -2.351  1.00  0.00     0.024 A 
HETATM   24  C   UNL     1      37.508 -13.958  -3.261  1.00  0.00     0.002 A 
HETATM   25  C   UNL     1      38.744 -14.597  -3.275  1.00  0.00     0.001 A 
HETATM   26  C   UNL     1      39.745 -14.206  -2.383  1.00  0.00     0.010 A 
ENDBRANCH  19  20
ENDBRANCH  16  19
ENDBRANCH   2  15
BRANCH   1  27
HETATM   27  C   UNL     1      40.236 -11.939   4.733  1.00  0.00     0.045 A 
HETATM   28  C   UNL     1      39.779 -11.877   6.062  1.00  0.00     0.066 A 
HETATM   29  C   UNL     1      38.828 -10.936   6.482  1.00  0.00     0.070 A 
HETATM   30  C   UNL     1      38.316 -10.027   5.563  1.00  0.00     0.037 A 
HETATM   31  C   UNL     1      38.755 -10.064   4.241  1.00  0.00     0.005 A 
HETATM   32  C   UNL     1      39.701 -11.010   3.830  1.00  0.00     0.030 A 
BRANCH  29  33
HETATM   33  O   UNL     1      38.479 -11.027   7.803  1.00  0.00    -0.356 OA
HETATM   34  C   UNL     1      39.147 -10.157   8.707  1.00  0.00     0.210 C 
ENDBRANCH  29  33
ENDBRANCH   1  27
TORSDOF 6
ENDMDL
MODEL 9
REMARK VINA RESULT:      -7.8      4.081      7.106
REMARK  6 active torsions:
REMARK  status: ('A' for Active; 'I' for Inactive)
REMARK    1  A    between atoms: O_2  and  C_3 
REMARK    2  A    between atoms: C_5  and  N_6 
REMARK    3  A    between atoms: C_7  and  O_8 
REMARK    4  A    between atoms: C_7  and  C_9 
REMARK       I    between atoms: C_9  and  N_10 
REMARK    5  A    between atoms: N_10  and  C_11 
REMARK    6  A    between atoms: C_11  and  C_12 
ROOT
HETATM    1  N   UNL     1      40.907 -12.363   4.524  1.00  0.00    -0.254 N 
HETATM    2  C   UNL     1      42.139 -12.512   3.730  1.00  0.00     0.256 C 
HETATM    3  C   UNL     1      42.364 -13.932   3.242  1.00  0.00     0.034 A 
HETATM    4  C   UNL     1      41.807 -14.970   3.974  1.00  0.00     0.048 A 
HETATM    5  N   UNL     1      40.984 -14.658   5.046  1.00  0.00    -0.308 N 
HETATM    6  C   UNL     1      40.482 -13.418   5.321  1.00  0.00     0.330 C 
HETATM    7  O   UNL     1      39.708 -13.337   6.274  1.00  0.00    -0.246 OA
HETATM    8  C   UNL     1      43.205 -14.246   2.162  1.00  0.00     0.015 A 
HETATM    9  C   UNL     1      43.464 -15.578   1.830  1.00  0.00     0.001 A 
HETATM   10  C   UNL     1      42.900 -16.606   2.583  1.00  0.00     0.002 A 
HETATM   11  C   UNL     1      42.071 -16.304   3.662  1.00  0.00     0.030 A 
HETATM   12  H   UNL     1      40.577 -15.400   5.603  1.00  0.00     0.170 HD
ENDROOT
BRANCH   2  13
HETATM   13  O   UNL     1      42.035 -11.718   2.542  1.00  0.00    -0.359 OA
HETATM   14  H   UNL     1      42.945 -11.669   2.192  1.00  0.00     0.213 HD
ENDBRANCH   2  13
BRANCH   2  15
HETATM   15  C   UNL     1      43.403 -12.076   4.581  1.00  0.00     0.279 C 
HETATM   16  N   UNL     1      43.445 -12.477   5.897  1.00  0.00    -0.352 N 
HETATM   17  H   UNL     1      42.645 -12.947   6.302  1.00  0.00     0.162 HD
HETATM   18  O   UNL     1      44.332 -11.460   4.046  1.00  0.00    -0.268 OA
BRANCH  16  19
HETATM   19  C   UNL     1      44.610 -12.274   6.724  1.00  0.00     0.163 C 
BRANCH  19  20
HETATM   20  C   UNL     1      44.519 -10.969   7.471  1.00  0.00    -0.019 A 
HETATM   21  C   UNL     1      45.649 -10.180   7.746  1.00  0.00     0.042 A 
HETATM   22 CL   UNL     1      47.234 -10.648   7.242  1.00  0.00    -0.084 Cl
HETATM   23  C   UNL     1      45.524  -8.981   8.454  1.00  0.00     0.024 A 
HETATM   24  C   UNL     1      44.273  -8.556   8.900  1.00  0.00     0.002 A 
HETATM   25  C   UNL     1      43.146  -9.331   8.643  1.00  0.00     0.001 A 
HETATM   26  C   UNL     1      43.268 -10.530   7.937  1.00  0.00     0.010 A 
ENDBRANCH  19  20
ENDBRANCH  16  19
ENDBRANCH   2  15
BRANCH   1  27
HETATM   27  C   UNL     1      40.243 -11.081   4.622  1.00  0.00     0.045 A 
HETATM   28  C   UNL     1      40.729 -10.101   5.507  1.00  0.00     0.066 A 
HETATM   29  C   UNL     1      40.095  -8.862   5.671  1.00  0.00     0.070 A 
HETATM   30  C   UNL     1      38.948  -8.579   4.937  1.00  0.00     0.037 A 
HETATM   31  C   UNL     1      38.447  -9.532   4.051  1.00  0.00     0.005 A 
HETATM   32  C   UNL     1      39.084 -10.768   3.898  1.00  0.00     0.030 A 
BRANCH  29  33
HETATM   33  O   UNL     1      40.688  -8.033   6.585  1.00  0.00    -0.356 OA
HETATM   34  C   UNL     1      41.605  -7.070   6.083  1.00  0.00     0.210 C 
ENDBRANCH  29  33
ENDBRANCH   1  27
TORSDOF 6
ENDMDL
MODEL 10
REMARK VINA RESULT:      -7.6      4.156      7.789
REMARK  6 active torsions:
REMARK  status: ('A' for Active; 'I' for Inactive)
REMARK    1  A    between atoms: O_2  and  C_3 
REMARK    2  A    between atoms: C_5  and  N_6 
REMARK    3  A    between atoms: C_7  and  O_8 
REMARK    4  A    between atoms: C_7  and  C_9 
REMARK       I    between atoms: C_9  and  N_10 
REMARK    5  A    between atoms: N_10  and  C_11 
REMARK    6  A    between atoms: C_11  and  C_12 
ROOT
HETATM    1  N   UNL     1      42.058 -12.641   3.711  1.00  0.00    -0.254 N 
HETATM    2  C   UNL     1      40.742 -12.190   4.194  1.00  0.00     0.256 C 
HETATM    3  C   UNL     1      40.156 -11.065   3.360  1.00  0.00     0.034 A 
HETATM    4  C   UNL     1      41.031 -10.238   2.671  1.00  0.00     0.048 A 
HETATM    5  N   UNL     1      42.384 -10.544   2.688  1.00  0.00    -0.308 N 
HETATM    6  C   UNL     1      42.922 -11.718   3.134  1.00  0.00     0.330 C 
HETATM    7  O   UNL     1      44.139 -11.847   3.008  1.00  0.00    -0.246 OA
HETATM    8  C   UNL     1      38.786 -10.751   3.352  1.00  0.00     0.015 A 
HETATM    9  C   UNL     1      38.320  -9.633   2.655  1.00  0.00     0.001 A 
HETATM   10  C   UNL     1      39.217  -8.812   1.976  1.00  0.00     0.002 A 
HETATM   11  C   UNL     1      40.579  -9.110   1.985  1.00  0.00     0.030 A 
HETATM   12  H   UNL     1      43.043  -9.947   2.203  1.00  0.00     0.170 HD
ENDROOT
BRANCH   2  13
HETATM   13  O   UNL     1      39.804 -13.267   4.084  1.00  0.00    -0.359 OA
HETATM   14  H   UNL     1      40.346 -14.052   3.875  1.00  0.00     0.213 HD
ENDBRANCH   2  13
BRANCH   2  15
HETATM   15  C   UNL     1      40.842 -11.692   5.695  1.00  0.00     0.279 C 
HETATM   16  N   UNL     1      41.922 -10.904   6.026  1.00  0.00    -0.352 N 
HETATM   17  H   UNL     1      42.653 -10.746   5.344  1.00  0.00     0.162 HD
HETATM   18  O   UNL     1      39.942 -11.956   6.500  1.00  0.00    -0.268 OA
BRANCH  16  19
HETATM   19  C   UNL     1      42.038 -10.267   7.315  1.00  0.00     0.163 C 
BRANCH  19  20
HETATM   20  C   UNL     1      43.480  -9.981   7.646  1.00  0.00    -0.019 A 
HETATM   21  C   UNL     1      43.884  -8.795   8.280  1.00  0.00     0.042 A 
HETATM   22 CL   UNL     1      42.753  -7.569   8.733  1.00  0.00    -0.084 Cl
HETATM   23  C   UNL     1      45.235  -8.561   8.559  1.00  0.00     0.024 A 
HETATM   24  C   UNL     1      46.198  -9.505   8.205  1.00  0.00     0.002 A 
HETATM   25  C   UNL     1      45.813 -10.682   7.569  1.00  0.00     0.001 A 
HETATM   26  C   UNL     1      44.466 -10.918   7.288  1.00  0.00     0.010 A 
ENDBRANCH  19  20
ENDBRANCH  16  19
ENDBRANCH   2  15
BRANCH   1  27
HETATM   27  C   UNL     1      42.530 -13.979   3.992  1.00  0.00     0.045 A 
HETATM   28  C   UNL     1      42.978 -14.312   5.283  1.00  0.00     0.066 A 
HETATM   29  C   UNL     1      43.485 -15.582   5.594  1.00  0.00     0.070 A 
HETATM   30  C   UNL     1      43.548 -16.553   4.602  1.00  0.00     0.037 A 
HETATM   31  C   UNL     1      43.108 -16.251   3.315  1.00  0.00     0.005 A 
HETATM   32  C   UNL     1      42.608 -14.979   3.013  1.00  0.00     0.030 A 
BRANCH  29  33
HETATM   33  O   UNL     1      43.895 -15.731   6.893  1.00  0.00    -0.356 OA
HETATM   34  C   UNL     1      42.952 -15.414   7.907  1.00  0.00     0.210 C 
ENDBRANCH  29  33
ENDBRANCH   1  27
TORSDOF 6
ENDMDL
