MODEL 1
REMARK VINA RESULT:      -7.1      0.000      0.000
REMARK  13 active torsions:
REMARK  status: ('A' for Active; 'I' for Inactive)
REMARK    1  A    between atoms: C_2  and  N_3 
REMARK    2  A    between atoms: N_3  and  C_5 
REMARK    3  A    between atoms: N_3  and  C_34 
REMARK    4  A    between atoms: C_5  and  C_6 
REMARK    5  A    between atoms: N_7  and  C_8 
REMARK    6  A    between atoms: C_12  and  N_13 
REMARK    7  A    between atoms: C_16  and  C_17 
REMARK       I    between atoms: C_17  and  N_18 
REMARK    8  A    between atoms: N_18  and  N_19 
REMARK    9  A    between atoms: C_20  and  C_21 
REMARK   10  A    between atoms: C_22  and  O_23 
REMARK   11  A    between atoms: C_25  and  N_26 
REMARK   12  A    between atoms: N_26  and  C_27 
REMARK   13  A    between atoms: N_26  and  C_29 
ROOT
HETATM    1  C   UNL     1      43.467  -9.201   8.925  1.00  0.00     0.096 A 
HETATM    2  N   UNL     1      43.537  -8.659  10.210  1.00  0.00    -0.215 N 
HETATM    3  N   UNL     1      44.461  -9.362  10.922  1.00  0.00     0.012 NA
HETATM    4  N   UNL     1      44.898 -10.378  10.198  1.00  0.00    -0.152 NA
HETATM    5  C   UNL     1      44.291 -10.318   8.983  1.00  0.00     0.170 A 
ENDROOT
BRANCH   5   6
HETATM    6  C   UNL     1      44.493 -11.294   7.923  1.00  0.00     0.293 C 
HETATM    7  N   UNL     1      43.418 -12.133   7.710  1.00  0.00    -0.242 N 
HETATM    8  H   UNL     1      42.570 -12.031   8.264  1.00  0.00     0.192 HD
HETATM    9  O   UNL     1      45.555 -11.303   7.300  1.00  0.00    -0.264 OA
BRANCH   7  10
HETATM   10  N   UNL     1      43.511 -13.119   6.775  1.00  0.00    -0.183 NA
HETATM   11  C   UNL     1      43.359 -14.331   7.212  1.00  0.00     0.153 C 
BRANCH  11  12
HETATM   12  C   UNL     1      43.449 -15.486   6.296  1.00  0.00     0.016 A 
HETATM   13  C   UNL     1      42.434 -15.807   5.395  1.00  0.00     0.079 A 
HETATM   14  C   UNL     1      42.561 -16.916   4.553  1.00  0.00     0.066 A 
HETATM   15  C   UNL     1      43.694 -17.748   4.574  1.00  0.00     0.032 A 
HETATM   16  C   UNL     1      44.701 -17.392   5.491  1.00  0.00     0.030 A 
HETATM   17  C   UNL     1      44.589 -16.282   6.342  1.00  0.00     0.018 A 
BRANCH  13  18
HETATM   18  O   UNL     1      41.280 -15.077   5.277  1.00  0.00    -0.360 OA
HETATM   19  H   UNL     1      41.528 -14.176   4.980  1.00  0.00     0.217 HD
ENDBRANCH  13  18
BRANCH  15  20
HETATM   20  N   UNL     1      43.811 -18.860   3.747  1.00  0.00    -0.382 N 
BRANCH  20  21
HETATM   21  C   UNL     1      43.336 -18.841   2.356  1.00  0.00     0.118 C 
HETATM   22  C   UNL     1      43.239 -20.248   1.787  1.00  0.00     0.026 C 
ENDBRANCH  20  21
BRANCH  20  23
HETATM   23  C   UNL     1      44.372 -20.132   4.229  1.00  0.00     0.118 C 
HETATM   24  C   UNL     1      43.663 -20.619   5.485  1.00  0.00     0.026 C 
ENDBRANCH  20  23
ENDBRANCH  15  20
ENDBRANCH  11  12
ENDBRANCH   7  10
ENDBRANCH   5   6
BRANCH   1  25
HETATM   25  C   UNL     1      42.739  -8.632   7.762  1.00  0.00     0.296 C 
BRANCH  25  26
HETATM   26  N   UNL     1      41.240  -8.873   7.776  1.00  0.00    -0.066 N 
HETATM   27  H   UNL     1      41.046  -9.364   8.673  1.00  0.00     0.280 HD
BRANCH  26  28
HETATM   28  C   UNL     1      40.819  -9.832   6.673  1.00  0.00     0.231 C 
HETATM   29  C   UNL     1      41.749  -9.723   5.477  1.00  0.00     0.034 C 
ENDBRANCH  26  28
BRANCH  26  30
HETATM   30  C   UNL     1      40.449  -7.583   7.746  1.00  0.00     0.231 C 
HETATM   31  C   UNL     1      39.460  -7.527   8.898  1.00  0.00     0.034 C 
ENDBRANCH  26  30
ENDBRANCH  25  26
ENDBRANCH   1  25
BRANCH   2  32
HETATM   32  C   UNL     1      42.781  -7.612  10.791  1.00  0.00     0.225 A 
HETATM   33  N   UNL     1      42.863  -6.373  10.303  1.00  0.00    -0.081 NA
HETATM   34  O   UNL     1      41.973  -5.643  11.096  1.00  0.00    -0.103 OA
HETATM   35  N   UNL     1      41.350  -6.459  12.030  1.00  0.00    -0.083 NA
HETATM   36  C   UNL     1      41.847  -7.679  11.840  1.00  0.00     0.201 A 
BRANCH  36  37
HETATM   37  N   UNL     1      41.493  -8.763  12.547  1.00  0.00    -0.379 N 
HETATM   38  H   UNL     1      42.051  -9.611  12.492  1.00  0.00     0.158 HD
HETATM   39  H   UNL     1      40.820  -8.746  13.311  1.00  0.00     0.158 HD
ENDBRANCH  36  37
ENDBRANCH   2  32
TORSDOF 13
ENDMDL
MODEL 2
REMARK VINA RESULT:      -7.0      1.451      2.196
REMARK  13 active torsions:
REMARK  status: ('A' for Active; 'I' for Inactive)
REMARK    1  A    between atoms: C_2  and  N_3 
REMARK    2  A    between atoms: N_3  and  C_5 
REMARK    3  A    between atoms: N_3  and  C_34 
REMARK    4  A    between atoms: C_5  and  C_6 
REMARK    5  A    between atoms: N_7  and  C_8 
REMARK    6  A    between atoms: C_12  and  N_13 
REMARK    7  A    between atoms: C_16  and  C_17 
REMARK       I    between atoms: C_17  and  N_18 
REMARK    8  A    between atoms: N_18  and  N_19 
REMARK    9  A    between atoms: C_20  and  C_21 
REMARK   10  A    between atoms: C_22  and  O_23 
REMARK   11  A    between atoms: C_25  and  N_26 
REMARK   12  A    between atoms: N_26  and  C_27 
REMARK   13  A    between atoms: N_26  and  C_29 
ROOT
HETATM    1  C   UNL     1      43.249  -8.885   9.198  1.00  0.00     0.096 A 
HETATM    2  N   UNL     1      43.444  -7.548   9.548  1.00  0.00    -0.215 N 
HETATM    3  N   UNL     1      44.536  -7.084   8.879  1.00  0.00     0.012 NA
HETATM    4  N   UNL     1      45.101  -8.076   8.212  1.00  0.00    -0.152 NA
HETATM    5  C   UNL     1      44.349  -9.193   8.408  1.00  0.00     0.170 A 
ENDROOT
BRANCH   5   6
HETATM    6  C   UNL     1      44.676 -10.500   7.859  1.00  0.00     0.293 C 
HETATM    7  N   UNL     1      43.972 -10.830   6.718  1.00  0.00    -0.242 N 
HETATM    8  H   UNL     1      43.300 -10.175   6.322  1.00  0.00     0.192 HD
HETATM    9  O   UNL     1      45.530 -11.194   8.410  1.00  0.00    -0.264 OA
BRANCH   7  10
HETATM   10  N   UNL     1      44.159 -12.050   6.144  1.00  0.00    -0.183 NA
HETATM   11  C   UNL     1      43.398 -13.006   6.581  1.00  0.00     0.153 C 
BRANCH  11  12
HETATM   12  C   UNL     1      43.514 -14.376   6.043  1.00  0.00     0.016 A 
HETATM   13  C   UNL     1      43.105 -14.710   4.752  1.00  0.00     0.079 A 
HETATM   14  C   UNL     1      43.226 -16.024   4.289  1.00  0.00     0.066 A 
HETATM   15  C   UNL     1      43.756 -17.054   5.087  1.00  0.00     0.032 A 
HETATM   16  C   UNL     1      44.164 -16.681   6.382  1.00  0.00     0.030 A 
HETATM   17  C   UNL     1      44.049 -15.367   6.860  1.00  0.00     0.018 A 
BRANCH  13  18
HETATM   18  O   UNL     1      42.572 -13.800   3.876  1.00  0.00    -0.360 OA
HETATM   19  H   UNL     1      43.222 -13.669   3.153  1.00  0.00     0.217 HD
ENDBRANCH  13  18
BRANCH  15  20
HETATM   20  N   UNL     1      43.861 -18.363   4.631  1.00  0.00    -0.382 N 
BRANCH  20  21
HETATM   21  C   UNL     1      43.612 -19.512   5.514  1.00  0.00     0.118 C 
HETATM   22  C   UNL     1      44.472 -20.704   5.126  1.00  0.00     0.026 C 
ENDBRANCH  20  21
BRANCH  20  23
HETATM   23  C   UNL     1      44.272 -18.677   3.253  1.00  0.00     0.118 C 
HETATM   24  C   UNL     1      43.070 -18.863   2.337  1.00  0.00     0.026 C 
ENDBRANCH  20  23
ENDBRANCH  15  20
ENDBRANCH  11  12
ENDBRANCH   7  10
ENDBRANCH   5   6
BRANCH   1  25
HETATM   25  C   UNL     1      42.073  -9.727   9.537  1.00  0.00     0.296 C 
BRANCH  25  26
HETATM   26  N   UNL     1      40.767  -9.269   8.912  1.00  0.00    -0.066 N 
HETATM   27  H   UNL     1      40.817  -8.229   8.893  1.00  0.00     0.280 HD
BRANCH  26  28
HETATM   28  C   UNL     1      39.576  -9.617   9.791  1.00  0.00     0.231 C 
HETATM   29  C   UNL     1      39.932  -9.487  11.262  1.00  0.00     0.034 C 
ENDBRANCH  26  28
BRANCH  26  30
HETATM   30  C   UNL     1      40.600  -9.773   7.495  1.00  0.00     0.231 C 
HETATM   31  C   UNL     1      39.278 -10.503   7.331  1.00  0.00     0.034 C 
ENDBRANCH  26  30
ENDBRANCH  25  26
ENDBRANCH   1  25
BRANCH   2  32
HETATM   32  C   UNL     1      42.735  -6.744  10.473  1.00  0.00     0.225 A 
HETATM   33  N   UNL     1      42.051  -5.678  10.052  1.00  0.00    -0.081 NA
HETATM   34  O   UNL     1      41.474  -5.169  11.219  1.00  0.00    -0.103 OA
HETATM   35  N   UNL     1      41.797  -5.951  12.318  1.00  0.00    -0.083 NA
HETATM   36  C   UNL     1      42.575  -6.928  11.858  1.00  0.00     0.201 A 
BRANCH  36  37
HETATM   37  N   UNL     1      43.098  -7.904  12.615  1.00  0.00    -0.379 N 
HETATM   38  H   UNL     1      43.991  -7.763  13.082  1.00  0.00     0.158 HD
HETATM   39  H   UNL     1      42.572  -8.713  12.939  1.00  0.00     0.158 HD
ENDBRANCH  36  37
ENDBRANCH   2  32
TORSDOF 13
ENDMDL
MODEL 3
REMARK VINA RESULT:      -7.0      3.813     10.372
REMARK  13 active torsions:
REMARK  status: ('A' for Active; 'I' for Inactive)
REMARK    1  A    between atoms: C_2  and  N_3 
REMARK    2  A    between atoms: N_3  and  C_5 
REMARK    3  A    between atoms: N_3  and  C_34 
REMARK    4  A    between atoms: C_5  and  C_6 
REMARK    5  A    between atoms: N_7  and  C_8 
REMARK    6  A    between atoms: C_12  and  N_13 
REMARK    7  A    between atoms: C_16  and  C_17 
REMARK       I    between atoms: C_17  and  N_18 
REMARK    8  A    between atoms: N_18  and  N_19 
REMARK    9  A    between atoms: C_20  and  C_21 
REMARK   10  A    between atoms: C_22  and  O_23 
REMARK   11  A    between atoms: C_25  and  N_26 
REMARK   12  A    between atoms: N_26  and  C_27 
REMARK   13  A    between atoms: N_26  and  C_29 
ROOT
HETATM    1  C   UNL     1      43.124 -10.705   6.853  1.00  0.00     0.096 A 
HETATM    2  N   UNL     1      43.584 -11.585   5.873  1.00  0.00    -0.215 N 
HETATM    3  N   UNL     1      44.621 -12.301   6.392  1.00  0.00     0.012 NA
HETATM    4  N   UNL     1      44.908 -11.850   7.601  1.00  0.00    -0.152 NA
HETATM    5  C   UNL     1      44.025 -10.859   7.899  1.00  0.00     0.170 A 
ENDROOT
BRANCH   5   6
HETATM    6  C   UNL     1      44.048 -10.094   9.136  1.00  0.00     0.293 C 
HETATM    7  N   UNL     1      43.593 -10.785  10.241  1.00  0.00    -0.242 N 
HETATM    8  H   UNL     1      43.289 -11.753  10.152  1.00  0.00     0.192 HD
HETATM    9  O   UNL     1      44.466  -8.936   9.127  1.00  0.00    -0.264 OA
BRANCH   7  10
HETATM   10  N   UNL     1      43.522 -10.154  11.445  1.00  0.00    -0.183 NA
HETATM   11  C   UNL     1      42.391  -9.583  11.722  1.00  0.00     0.153 C 
BRANCH  11  12
HETATM   12  C   UNL     1      42.195  -8.858  12.993  1.00  0.00     0.016 A 
HETATM   13  C   UNL     1      41.141  -9.140  13.861  1.00  0.00     0.079 A 
HETATM   14  C   UNL     1      40.991  -8.420  15.051  1.00  0.00     0.066 A 
HETATM   15  C   UNL     1      41.880  -7.396  15.424  1.00  0.00     0.032 A 
HETATM   16  C   UNL     1      42.936  -7.142  14.529  1.00  0.00     0.030 A 
HETATM   17  C   UNL     1      43.099  -7.856  13.332  1.00  0.00     0.018 A 
BRANCH  13  18
HETATM   18  O   UNL     1      40.207 -10.113  13.613  1.00  0.00    -0.360 OA
HETATM   19  H   UNL     1      40.615 -10.978  13.828  1.00  0.00     0.217 HD
ENDBRANCH  13  18
BRANCH  15  20
HETATM   20  N   UNL     1      41.721  -6.671  16.599  1.00  0.00    -0.382 N 
BRANCH  20  21
HETATM   21  C   UNL     1      41.758  -7.320  17.918  1.00  0.00     0.118 C 
HETATM   22  C   UNL     1      40.365  -7.436  18.516  1.00  0.00     0.026 C 
ENDBRANCH  20  21
BRANCH  20  23
HETATM   23  C   UNL     1      41.460  -5.223  16.591  1.00  0.00     0.118 C 
HETATM   24  C   UNL     1      40.203  -4.883  15.802  1.00  0.00     0.026 C 
ENDBRANCH  20  23
ENDBRANCH  15  20
ENDBRANCH  11  12
ENDBRANCH   7  10
ENDBRANCH   5   6
BRANCH   1  25
HETATM   25  C   UNL     1      41.894  -9.874   6.791  1.00  0.00     0.296 C 
BRANCH  25  26
HETATM   26  N   UNL     1      40.683 -10.487   7.471  1.00  0.00    -0.066 N 
HETATM   27  H   UNL     1      41.050 -11.291   8.020  1.00  0.00     0.280 HD
BRANCH  26  28
HETATM   28  C   UNL     1      39.713 -11.076   6.459  1.00  0.00     0.231 C 
HETATM   29  C   UNL     1      39.737 -10.286   5.163  1.00  0.00     0.034 C 
ENDBRANCH  26  28
BRANCH  26  30
HETATM   30  C   UNL     1      40.006  -9.520   8.419  1.00  0.00     0.231 C 
HETATM   31  C   UNL     1      40.806  -8.236   8.548  1.00  0.00     0.034 C 
ENDBRANCH  26  30
ENDBRANCH  25  26
ENDBRANCH   1  25
BRANCH   2  32
HETATM   32  C   UNL     1      43.166 -11.740   4.530  1.00  0.00     0.225 A 
HETATM   33  N   UNL     1      43.155 -10.693   3.703  1.00  0.00    -0.081 NA
HETATM   34  O   UNL     1      42.723 -11.231   2.488  1.00  0.00    -0.103 OA
HETATM   35  N   UNL     1      42.506 -12.598   2.594  1.00  0.00    -0.083 NA
HETATM   36  C   UNL     1      42.783 -12.915   3.857  1.00  0.00     0.201 A 
BRANCH  36  37
HETATM   37  N   UNL     1      42.700 -14.153   4.366  1.00  0.00    -0.379 N 
HETATM   38  H   UNL     1      42.254 -14.895   3.831  1.00  0.00     0.158 HD
HETATM   39  H   UNL     1      43.239 -14.473   5.168  1.00  0.00     0.158 HD
ENDBRANCH  36  37
ENDBRANCH   2  32
TORSDOF 13
ENDMDL
MODEL 4
REMARK VINA RESULT:      -6.9      1.719      3.172
REMARK  13 active torsions:
REMARK  status: ('A' for Active; 'I' for Inactive)
REMARK    1  A    between atoms: C_2  and  N_3 
REMARK    2  A    between atoms: N_3  and  C_5 
REMARK    3  A    between atoms: N_3  and  C_34 
REMARK    4  A    between atoms: C_5  and  C_6 
REMARK    5  A    between atoms: N_7  and  C_8 
REMARK    6  A    between atoms: C_12  and  N_13 
REMARK    7  A    between atoms: C_16  and  C_17 
REMARK       I    between atoms: C_17  and  N_18 
REMARK    8  A    between atoms: N_18  and  N_19 
REMARK    9  A    between atoms: C_20  and  C_21 
REMARK   10  A    between atoms: C_22  and  O_23 
REMARK   11  A    between atoms: C_25  and  N_26 
REMARK   12  A    between atoms: N_26  and  C_27 
REMARK   13  A    between atoms: N_26  and  C_29 
ROOT
HETATM    1  C   UNL     1      41.180  -8.888   8.467  1.00  0.00     0.096 A 
HETATM    2  N   UNL     1      40.194  -8.077   9.029  1.00  0.00    -0.215 N 
HETATM    3  N   UNL     1      38.988  -8.449   8.515  1.00  0.00     0.012 NA
HETATM    4  N   UNL     1      39.169  -9.373   7.586  1.00  0.00    -0.152 NA
HETATM    5  C   UNL     1      40.500  -9.643   7.519  1.00  0.00     0.170 A 
ENDROOT
BRANCH   5   6
HETATM    6  C   UNL     1      41.093 -10.586   6.583  1.00  0.00     0.293 C 
HETATM    7  N   UNL     1      40.507 -11.836   6.588  1.00  0.00    -0.242 N 
HETATM    8  H   UNL     1      39.719 -12.031   7.203  1.00  0.00     0.192 HD
HETATM    9  O   UNL     1      42.027 -10.226   5.867  1.00  0.00    -0.264 OA
BRANCH   7  10
HETATM   10  N   UNL     1      41.010 -12.816   5.788  1.00  0.00    -0.183 NA
HETATM   11  C   UNL     1      41.325 -13.927   6.380  1.00  0.00     0.153 C 
BRANCH  11  12
HETATM   12  C   UNL     1      41.890 -15.059   5.620  1.00  0.00     0.016 A 
HETATM   13  C   UNL     1      41.231 -15.634   4.533  1.00  0.00     0.079 A 
HETATM   14  C   UNL     1      41.801 -16.712   3.849  1.00  0.00     0.066 A 
HETATM   15  C   UNL     1      43.044 -17.260   4.216  1.00  0.00     0.032 A 
HETATM   16  C   UNL     1      43.684 -16.653   5.313  1.00  0.00     0.030 A 
HETATM   17  C   UNL     1      43.124 -15.570   6.008  1.00  0.00     0.018 A 
BRANCH  13  18
HETATM   18  O   UNL     1      40.016 -15.194   4.076  1.00  0.00    -0.360 OA
HETATM   19  H   UNL     1      39.523 -15.974   3.744  1.00  0.00     0.217 HD
ENDBRANCH  13  18
BRANCH  15  20
HETATM   20  N   UNL     1      43.601 -18.342   3.545  1.00  0.00    -0.382 N 
BRANCH  20  21
HETATM   21  C   UNL     1      43.152 -18.733   2.201  1.00  0.00     0.118 C 
HETATM   22  C   UNL     1      43.465 -20.194   1.916  1.00  0.00     0.026 C 
ENDBRANCH  20  21
BRANCH  20  23
HETATM   23  C   UNL     1      44.640 -19.187   4.157  1.00  0.00     0.118 C 
HETATM   24  C   UNL     1      44.071 -20.063   5.265  1.00  0.00     0.026 C 
ENDBRANCH  20  23
ENDBRANCH  15  20
ENDBRANCH  11  12
ENDBRANCH   7  10
ENDBRANCH   5   6
BRANCH   1  25
HETATM   25  C   UNL     1      42.606  -8.963   8.878  1.00  0.00     0.296 C 
BRANCH  25  26
HETATM   26  N   UNL     1      43.010 -10.280   9.517  1.00  0.00    -0.066 N 
HETATM   27  H   UNL     1      42.216 -10.929   9.343  1.00  0.00     0.280 HD
BRANCH  26  28
HETATM   28  C   UNL     1      43.127 -10.154  11.028  1.00  0.00     0.231 C 
HETATM   29  C   UNL     1      43.602  -8.766  11.421  1.00  0.00     0.034 C 
ENDBRANCH  26  28
BRANCH  26  30
HETATM   30  C   UNL     1      44.260 -10.862   8.893  1.00  0.00     0.231 C 
HETATM   31  C   UNL     1      44.994  -9.816   8.071  1.00  0.00     0.034 C 
ENDBRANCH  26  30
ENDBRANCH  25  26
ENDBRANCH   1  25
BRANCH   2  32
HETATM   32  C   UNL     1      40.321  -6.991   9.928  1.00  0.00     0.225 A 
HETATM   33  N   UNL     1      40.518  -5.754   9.465  1.00  0.00    -0.081 NA
HETATM   34  O   UNL     1      40.561  -4.969  10.621  1.00  0.00    -0.103 OA
HETATM   35  N   UNL     1      40.364  -5.739  11.757  1.00  0.00    -0.083 NA
HETATM   36  C   UNL     1      40.212  -6.991  11.330  1.00  0.00     0.201 A 
BRANCH  36  37
HETATM   37  N   UNL     1      39.993  -8.046  12.129  1.00  0.00    -0.379 N 
HETATM   38  H   UNL     1      40.441  -8.096  13.041  1.00  0.00     0.158 HD
HETATM   39  H   UNL     1      39.240  -8.716  11.988  1.00  0.00     0.158 HD
ENDBRANCH  36  37
ENDBRANCH   2  32
TORSDOF 13
ENDMDL
MODEL 5
REMARK VINA RESULT:      -6.9      4.244      5.316
REMARK  13 active torsions:
REMARK  status: ('A' for Active; 'I' for Inactive)
REMARK    1  A    between atoms: C_2  and  N_3 
REMARK    2  A    between atoms: N_3  and  C_5 
REMARK    3  A    between atoms: N_3  and  C_34 
REMARK    4  A    between atoms: C_5  and  C_6 
REMARK    5  A    between atoms: N_7  and  C_8 
REMARK    6  A    between atoms: C_12  and  N_13 
REMARK    7  A    between atoms: C_16  and  C_17 
REMARK       I    between atoms: C_17  and  N_18 
REMARK    8  A    between atoms: N_18  and  N_19 
REMARK    9  A    between atoms: C_20  and  C_21 
REMARK   10  A    between atoms: C_22  and  O_23 
REMARK   11  A    between atoms: C_25  and  N_26 
REMARK   12  A    between atoms: N_26  and  C_27 
REMARK   13  A    between atoms: N_26  and  C_29 
ROOT
HETATM    1  C   UNL     1      43.266 -10.099   8.129  1.00  0.00     0.096 A 
HETATM    2  N   UNL     1      43.923 -10.165   9.359  1.00  0.00    -0.215 N 
HETATM    3  N   UNL     1      45.005 -10.981   9.224  1.00  0.00     0.012 NA
HETATM    4  N   UNL     1      45.008 -11.515   8.015  1.00  0.00    -0.152 NA
HETATM    5  C   UNL     1      43.945 -11.012   7.333  1.00  0.00     0.170 A 
ENDROOT
BRANCH   5   6
HETATM    6  C   UNL     1      43.596 -11.395   5.973  1.00  0.00     0.293 C 
HETATM    7  N   UNL     1      42.409 -12.092   5.866  1.00  0.00    -0.242 N 
HETATM    8  H   UNL     1      41.852 -12.287   6.696  1.00  0.00     0.192 HD
HETATM    9  O   UNL     1      44.337 -11.078   5.043  1.00  0.00    -0.264 OA
BRANCH   7  10
HETATM   10  N   UNL     1      42.005 -12.545   4.647  1.00  0.00    -0.183 NA
HETATM   11  C   UNL     1      41.163 -11.790   4.011  1.00  0.00     0.153 C 
BRANCH  11  12
HETATM   12  C   UNL     1      40.645 -12.179   2.685  1.00  0.00     0.016 A 
HETATM   13  C   UNL     1      41.387 -12.944   1.786  1.00  0.00     0.079 A 
HETATM   14  C   UNL     1      40.856 -13.280   0.536  1.00  0.00     0.066 A 
HETATM   15  C   UNL     1      39.573 -12.871   0.132  1.00  0.00     0.032 A 
HETATM   16  C   UNL     1      38.849 -12.106   1.066  1.00  0.00     0.030 A 
HETATM   17  C   UNL     1      39.368 -11.761   2.323  1.00  0.00     0.018 A 
BRANCH  13  18
HETATM   18  O   UNL     1      42.649 -13.404   2.058  1.00  0.00    -0.360 OA
HETATM   19  H   UNL     1      42.601 -14.382   2.122  1.00  0.00     0.217 HD
ENDBRANCH  13  18
BRANCH  15  20
HETATM   20  N   UNL     1      39.053 -13.193  -1.116  1.00  0.00    -0.382 N 
BRANCH  20  21
HETATM   21  C   UNL     1      39.735 -14.134  -2.018  1.00  0.00     0.118 C 
HETATM   22  C   UNL     1      38.738 -15.004  -2.766  1.00  0.00     0.026 C 
ENDBRANCH  20  21
BRANCH  20  23
HETATM   23  C   UNL     1      37.818 -12.579  -1.628  1.00  0.00     0.118 C 
HETATM   24  C   UNL     1      38.113 -11.359  -2.491  1.00  0.00     0.026 C 
ENDBRANCH  20  23
ENDBRANCH  15  20
ENDBRANCH  11  12
ENDBRANCH   7  10
ENDBRANCH   5   6
BRANCH   1  25
HETATM   25  C   UNL     1      42.156  -9.182   7.766  1.00  0.00     0.296 C 
BRANCH  25  26
HETATM   26  N   UNL     1      40.775  -9.673   8.164  1.00  0.00    -0.066 N 
HETATM   27  H   UNL     1      40.912 -10.650   8.493  1.00  0.00     0.280 HD
BRANCH  26  28
HETATM   28  C   UNL     1      39.847  -9.760   6.962  1.00  0.00     0.231 C 
HETATM   29  C   UNL     1      39.032 -11.041   6.999  1.00  0.00     0.034 C 
ENDBRANCH  26  28
BRANCH  26  30
HETATM   30  C   UNL     1      40.178  -8.859   9.291  1.00  0.00     0.231 C 
HETATM   31  C   UNL     1      39.811  -9.748  10.467  1.00  0.00     0.034 C 
ENDBRANCH  26  30
ENDBRANCH  25  26
ENDBRANCH   1  25
BRANCH   2  32
HETATM   32  C   UNL     1      43.574  -9.583  10.602  1.00  0.00     0.225 A 
HETATM   33  N   UNL     1      43.371  -8.267  10.695  1.00  0.00    -0.081 NA
HETATM   34  O   UNL     1      43.024  -8.078  12.036  1.00  0.00    -0.103 OA
HETATM   35  N   UNL     1      42.997  -9.284  12.721  1.00  0.00    -0.083 NA
HETATM   36  C   UNL     1      43.335 -10.217  11.835  1.00  0.00     0.201 A 
BRANCH  36  37
HETATM   37  N   UNL     1      43.421 -11.528  12.106  1.00  0.00    -0.379 N 
HETATM   38  H   UNL     1      43.911 -11.844  12.939  1.00  0.00     0.158 HD
HETATM   39  H   UNL     1      42.850 -12.238  11.653  1.00  0.00     0.158 HD
ENDBRANCH  36  37
ENDBRANCH   2  32
TORSDOF 13
ENDMDL
MODEL 6
REMARK VINA RESULT:      -6.9      4.967     10.706
REMARK  13 active torsions:
REMARK  status: ('A' for Active; 'I' for Inactive)
REMARK    1  A    between atoms: C_2  and  N_3 
REMARK    2  A    between atoms: N_3  and  C_5 
REMARK    3  A    between atoms: N_3  and  C_34 
REMARK    4  A    between atoms: C_5  and  C_6 
REMARK    5  A    between atoms: N_7  and  C_8 
REMARK    6  A    between atoms: C_12  and  N_13 
REMARK    7  A    between atoms: C_16  and  C_17 
REMARK       I    between atoms: C_17  and  N_18 
REMARK    8  A    between atoms: N_18  and  N_19 
REMARK    9  A    between atoms: C_20  and  C_21 
REMARK   10  A    between atoms: C_22  and  O_23 
REMARK   11  A    between atoms: C_25  and  N_26 
REMARK   12  A    between atoms: N_26  and  C_27 
REMARK   13  A    between atoms: N_26  and  C_29 
ROOT
HETATM    1  C   UNL     1      41.341 -12.315   0.974  1.00  0.00     0.096 A 
HETATM    2  N   UNL     1      40.921 -11.880  -0.284  1.00  0.00    -0.215 N 
HETATM    3  N   UNL     1      41.279 -10.574  -0.427  1.00  0.00     0.012 NA
HETATM    4  N   UNL     1      41.804 -10.132   0.703  1.00  0.00    -0.152 NA
HETATM    5  C   UNL     1      41.833 -11.168   1.583  1.00  0.00     0.170 A 
ENDROOT
BRANCH   5   6
HETATM    6  C   UNL     1      42.312 -11.059   2.953  1.00  0.00     0.293 C 
HETATM    7  N   UNL     1      41.311 -10.939   3.897  1.00  0.00    -0.242 N 
HETATM    8  H   UNL     1      40.334 -10.945   3.612  1.00  0.00     0.192 HD
HETATM    9  O   UNL     1      43.521 -11.092   3.179  1.00  0.00    -0.264 OA
BRANCH   7  10
HETATM   10  N   UNL     1      41.642 -10.780   5.208  1.00  0.00    -0.183 NA
HETATM   11  C   UNL     1      40.874  -9.991   5.896  1.00  0.00     0.153 C 
BRANCH  11  12
HETATM   12  C   UNL     1      41.136  -9.732   7.325  1.00  0.00     0.016 A 
HETATM   13  C   UNL     1      42.423  -9.726   7.862  1.00  0.00     0.079 A 
HETATM   14  C   UNL     1      42.621  -9.484   9.225  1.00  0.00     0.066 A 
HETATM   15  C   UNL     1      41.552  -9.239  10.105  1.00  0.00     0.032 A 
HETATM   16  C   UNL     1      40.268  -9.246   9.530  1.00  0.00     0.030 A 
HETATM   17  C   UNL     1      40.053  -9.487   8.165  1.00  0.00     0.018 A 
BRANCH  13  18
HETATM   18  O   UNL     1      43.548  -9.951   7.111  1.00  0.00    -0.360 OA
HETATM   19  H   UNL     1      43.442 -10.821   6.671  1.00  0.00     0.217 HD
ENDBRANCH  13  18
BRANCH  15  20
HETATM   20  N   UNL     1      41.750  -9.014  11.463  1.00  0.00    -0.382 N 
BRANCH  20  21
HETATM   21  C   UNL     1      40.631  -8.711  12.367  1.00  0.00     0.118 C 
HETATM   22  C   UNL     1      40.261  -9.919  13.213  1.00  0.00     0.026 C 
ENDBRANCH  20  21
BRANCH  20  23
HETATM   23  C   UNL     1      43.093  -9.020  12.065  1.00  0.00     0.118 C 
HETATM   24  C   UNL     1      43.274  -7.868  13.046  1.00  0.00     0.026 C 
ENDBRANCH  20  23
ENDBRANCH  15  20
ENDBRANCH  11  12
ENDBRANCH   7  10
ENDBRANCH   5   6
BRANCH   1  25
HETATM   25  C   UNL     1      41.332 -13.713   1.476  1.00  0.00     0.296 C 
BRANCH  25  26
HETATM   26  N   UNL     1      42.442 -14.038   2.461  1.00  0.00    -0.066 N 
HETATM   27  H   UNL     1      42.890 -13.126   2.685  1.00  0.00     0.280 HD
BRANCH  26  28
HETATM   28  C   UNL     1      43.524 -14.893   1.819  1.00  0.00     0.231 C 
HETATM   29  C   UNL     1      43.084 -16.343   1.723  1.00  0.00     0.034 C 
ENDBRANCH  26  28
BRANCH  26  30
HETATM   30  C   UNL     1      41.914 -14.648   3.741  1.00  0.00     0.231 C 
HETATM   31  C   UNL     1      42.858 -14.379   4.900  1.00  0.00     0.034 C 
ENDBRANCH  26  30
ENDBRANCH  25  26
ENDBRANCH   1  25
BRANCH   2  32
HETATM   32  C   UNL     1      40.188 -12.569  -1.279  1.00  0.00     0.225 A 
HETATM   33  N   UNL     1      38.932 -12.955  -1.044  1.00  0.00    -0.081 NA
HETATM   34  O   UNL     1      38.539 -13.560  -2.242  1.00  0.00    -0.103 OA
HETATM   35  N   UNL     1      39.554 -13.505  -3.187  1.00  0.00    -0.083 NA
HETATM   36  C   UNL     1      40.574 -12.890  -2.593  1.00  0.00     0.201 A 
BRANCH  36  37
HETATM   37  N   UNL     1      41.753 -12.635  -3.180  1.00  0.00    -0.379 N 
HETATM   38  H   UNL     1      41.835 -12.667  -4.193  1.00  0.00     0.158 HD
HETATM   39  H   UNL     1      42.540 -12.198  -2.703  1.00  0.00     0.158 HD
ENDBRANCH  36  37
ENDBRANCH   2  32
TORSDOF 13
ENDMDL
MODEL 7
REMARK VINA RESULT:      -6.8      5.265     10.917
REMARK  13 active torsions:
REMARK  status: ('A' for Active; 'I' for Inactive)
REMARK    1  A    between atoms: C_2  and  N_3 
REMARK    2  A    between atoms: N_3  and  C_5 
REMARK    3  A    between atoms: N_3  and  C_34 
REMARK    4  A    between atoms: C_5  and  C_6 
REMARK    5  A    between atoms: N_7  and  C_8 
REMARK    6  A    between atoms: C_12  and  N_13 
REMARK    7  A    between atoms: C_16  and  C_17 
REMARK       I    between atoms: C_17  and  N_18 
REMARK    8  A    between atoms: N_18  and  N_19 
REMARK    9  A    between atoms: C_20  and  C_21 
REMARK   10  A    between atoms: C_22  and  O_23 
REMARK   11  A    between atoms: C_25  and  N_26 
REMARK   12  A    between atoms: N_26  and  C_27 
REMARK   13  A    between atoms: N_26  and  C_29 
ROOT
HETATM    1  C   UNL     1      41.221 -12.216   0.792  1.00  0.00     0.096 A 
HETATM    2  N   UNL     1      40.878 -11.961  -0.536  1.00  0.00    -0.215 N 
HETATM    3  N   UNL     1      41.282 -10.698  -0.848  1.00  0.00     0.012 NA
HETATM    4  N   UNL     1      41.763 -10.107   0.233  1.00  0.00    -0.152 NA
HETATM    5  C   UNL     1      41.716 -11.003   1.254  1.00  0.00     0.170 A 
ENDROOT
BRANCH   5   6
HETATM    6  C   UNL     1      42.128 -10.705   2.618  1.00  0.00     0.293 C 
HETATM    7  N   UNL     1      41.230  -9.933   3.327  1.00  0.00    -0.242 N 
HETATM    8  H   UNL     1      40.358  -9.632   2.895  1.00  0.00     0.192 HD
HETATM    9  O   UNL     1      43.195 -11.148   3.041  1.00  0.00    -0.264 OA
BRANCH   7  10
HETATM   10  N   UNL     1      41.532  -9.549   4.598  1.00  0.00    -0.183 NA
HETATM   11  C   UNL     1      40.690  -9.912   5.516  1.00  0.00     0.153 C 
BRANCH  11  12
HETATM   12  C   UNL     1      40.903  -9.548   6.930  1.00  0.00     0.016 A 
HETATM   13  C   UNL     1      39.905  -9.676   7.896  1.00  0.00     0.079 A 
HETATM   14  C   UNL     1      40.152  -9.309   9.222  1.00  0.00     0.066 A 
HETATM   15  C   UNL     1      41.396  -8.803   9.641  1.00  0.00     0.032 A 
HETATM   16  C   UNL     1      42.382  -8.692   8.643  1.00  0.00     0.030 A 
HETATM   17  C   UNL     1      42.149  -9.056   7.308  1.00  0.00     0.018 A 
BRANCH  13  18
HETATM   18  O   UNL     1      38.652 -10.156   7.617  1.00  0.00    -0.360 OA
HETATM   19  H   UNL     1      38.743 -11.102   7.376  1.00  0.00     0.217 HD
ENDBRANCH  13  18
BRANCH  15  20
HETATM   20  N   UNL     1      41.634  -8.424  10.957  1.00  0.00    -0.382 N 
BRANCH  20  21
HETATM   21  C   UNL     1      40.982  -7.249  11.553  1.00  0.00     0.118 C 
HETATM   22  C   UNL     1      41.085  -6.037  10.641  1.00  0.00     0.026 C 
ENDBRANCH  20  21
BRANCH  20  23
HETATM   23  C   UNL     1      42.587  -9.147  11.815  1.00  0.00     0.118 C 
HETATM   24  C   UNL     1      43.457  -8.190  12.620  1.00  0.00     0.026 C 
ENDBRANCH  20  23
ENDBRANCH  15  20
ENDBRANCH  11  12
ENDBRANCH   7  10
ENDBRANCH   5   6
BRANCH   1  25
HETATM   25  C   UNL     1      41.145 -13.525   1.491  1.00  0.00     0.296 C 
BRANCH  25  26
HETATM   26  N   UNL     1      39.735 -13.985   1.818  1.00  0.00    -0.066 N 
HETATM   27  H   UNL     1      39.182 -13.822   0.952  1.00  0.00     0.280 HD
BRANCH  26  28
HETATM   28  C   UNL     1      39.100 -13.117   2.893  1.00  0.00     0.231 C 
HETATM   29  C   UNL     1      39.863 -13.230   4.201  1.00  0.00     0.034 C 
ENDBRANCH  26  28
BRANCH  26  30
HETATM   30  C   UNL     1      39.677 -15.458   2.162  1.00  0.00     0.231 C 
HETATM   31  C   UNL     1      41.054 -16.092   2.069  1.00  0.00     0.034 C 
ENDBRANCH  26  30
ENDBRANCH  25  26
ENDBRANCH   1  25
BRANCH   2  32
HETATM   32  C   UNL     1      40.175 -12.772  -1.460  1.00  0.00     0.225 A 
HETATM   33  N   UNL     1      38.950 -13.215  -1.170  1.00  0.00    -0.081 NA
HETATM   34  O   UNL     1      38.579 -13.938  -2.307  1.00  0.00    -0.103 OA
HETATM   35  N   UNL     1      39.574 -13.896  -3.274  1.00  0.00    -0.083 NA
HETATM   36  C   UNL     1      40.561 -13.172  -2.751  1.00  0.00     0.201 A 
BRANCH  36  37
HETATM   37  N   UNL     1      41.713 -12.892  -3.380  1.00  0.00    -0.379 N 
HETATM   38  H   UNL     1      41.718 -12.258  -4.176  1.00  0.00     0.158 HD
HETATM   39  H   UNL     1      42.633 -13.097  -2.994  1.00  0.00     0.158 HD
ENDBRANCH  36  37
ENDBRANCH   2  32
TORSDOF 13
ENDMDL
MODEL 8
REMARK VINA RESULT:      -6.6      3.777     11.014
REMARK  13 active torsions:
REMARK  status: ('A' for Active; 'I' for Inactive)
REMARK    1  A    between atoms: C_2  and  N_3 
REMARK    2  A    between atoms: N_3  and  C_5 
REMARK    3  A    between atoms: N_3  and  C_34 
REMARK    4  A    between atoms: C_5  and  C_6 
REMARK    5  A    between atoms: N_7  and  C_8 
REMARK    6  A    between atoms: C_12  and  N_13 
REMARK    7  A    between atoms: C_16  and  C_17 
REMARK       I    between atoms: C_17  and  N_18 
REMARK    8  A    between atoms: N_18  and  N_19 
REMARK    9  A    between atoms: C_20  and  C_21 
REMARK   10  A    between atoms: C_22  and  O_23 
REMARK   11  A    between atoms: C_25  and  N_26 
REMARK   12  A    between atoms: N_26  and  C_27 
REMARK   13  A    between atoms: N_26  and  C_29 
ROOT
HETATM    1  C   UNL     1      40.560 -10.755   6.752  1.00  0.00     0.096 A 
HETATM    2  N   UNL     1      40.144 -11.720   5.833  1.00  0.00    -0.215 N 
HETATM    3  N   UNL     1      38.792 -11.854   5.935  1.00  0.00     0.012 NA
HETATM    4  N   UNL     1      38.348 -11.111   6.933  1.00  0.00    -0.152 NA
HETATM    5  C   UNL     1      39.408 -10.446   7.465  1.00  0.00     0.170 A 
ENDROOT
BRANCH   5   6
HETATM    6  C   UNL     1      39.318  -9.554   8.611  1.00  0.00     0.293 C 
HETATM    7  N   UNL     1      39.761 -10.106   9.797  1.00  0.00    -0.242 N 
HETATM    8  H   UNL     1      40.124 -11.057   9.816  1.00  0.00     0.192 HD
HETATM    9  O   UNL     1      38.886  -8.412   8.460  1.00  0.00    -0.264 OA
BRANCH   7  10
HETATM   10  N   UNL     1      39.678  -9.381  10.946  1.00  0.00    -0.183 NA
HETATM   11  C   UNL     1      40.754  -9.340  11.670  1.00  0.00     0.153 C 
BRANCH  11  12
HETATM   12  C   UNL     1      40.785  -8.593  12.944  1.00  0.00     0.016 A 
HETATM   13  C   UNL     1      40.018  -7.449  13.160  1.00  0.00     0.079 A 
HETATM   14  C   UNL     1      40.088  -6.771  14.381  1.00  0.00     0.066 A 
HETATM   15  C   UNL     1      40.920  -7.200  15.430  1.00  0.00     0.032 A 
HETATM   16  C   UNL     1      41.676  -8.360  15.181  1.00  0.00     0.030 A 
HETATM   17  C   UNL     1      41.616  -9.052  13.962  1.00  0.00     0.018 A 
BRANCH  13  18
HETATM   18  O   UNL     1      39.168  -6.929  12.218  1.00  0.00    -0.360 OA
HETATM   19  H   UNL     1      38.910  -7.659  11.617  1.00  0.00     0.217 HD
ENDBRANCH  13  18
BRANCH  15  20
HETATM   20  N   UNL     1      41.000  -6.514  16.637  1.00  0.00    -0.382 N 
BRANCH  20  21
HETATM   21  C   UNL     1      41.245  -7.212  17.907  1.00  0.00     0.118 C 
HETATM   22  C   UNL     1      39.972  -7.847  18.445  1.00  0.00     0.026 C 
ENDBRANCH  20  21
BRANCH  20  23
HETATM   23  C   UNL     1      40.797  -5.059  16.721  1.00  0.00     0.118 C 
HETATM   24  C   UNL     1      41.745  -4.417  17.726  1.00  0.00     0.026 C 
ENDBRANCH  20  23
ENDBRANCH  15  20
ENDBRANCH  11  12
ENDBRANCH   7  10
ENDBRANCH   5   6
BRANCH   1  25
HETATM   25  C   UNL     1      41.914 -10.153   6.853  1.00  0.00     0.296 C 
BRANCH  25  26
HETATM   26  N   UNL     1      42.823 -10.810   7.878  1.00  0.00    -0.066 N 
HETATM   27  H   UNL     1      42.200 -11.411   8.456  1.00  0.00     0.280 HD
BRANCH  26  28
HETATM   28  C   UNL     1      43.422  -9.787   8.829  1.00  0.00     0.231 C 
HETATM   29  C   UNL     1      42.872  -8.400   8.550  1.00  0.00     0.034 C 
ENDBRANCH  26  28
BRANCH  26  30
HETATM   30  C   UNL     1      43.878 -11.682   7.234  1.00  0.00     0.231 C 
HETATM   31  C   UNL     1      45.265 -11.098   7.441  1.00  0.00     0.034 C 
ENDBRANCH  26  30
ENDBRANCH  25  26
ENDBRANCH   1  25
BRANCH   2  32
HETATM   32  C   UNL     1      40.913 -12.521   4.956  1.00  0.00     0.225 A 
HETATM   33  N   UNL     1      41.783 -11.956   4.116  1.00  0.00    -0.081 NA
HETATM   34  O   UNL     1      42.359 -13.043   3.452  1.00  0.00    -0.103 OA
HETATM   35  N   UNL     1      41.848 -14.245   3.920  1.00  0.00    -0.083 NA
HETATM   36  C   UNL     1      40.954 -13.924   4.853  1.00  0.00     0.201 A 
BRANCH  36  37
HETATM   37  N   UNL     1      40.235 -14.812   5.555  1.00  0.00    -0.379 N 
HETATM   38  H   UNL     1      39.221 -14.746   5.573  1.00  0.00     0.158 HD
HETATM   39  H   UNL     1      40.610 -15.690   5.911  1.00  0.00     0.158 HD
ENDBRANCH  36  37
ENDBRANCH   2  32
TORSDOF 13
ENDMDL
MODEL 9
REMARK VINA RESULT:      -6.5      5.244     10.933
REMARK  13 active torsions:
REMARK  status: ('A' for Active; 'I' for Inactive)
REMARK    1  A    between atoms: C_2  and  N_3 
REMARK    2  A    between atoms: N_3  and  C_5 
REMARK    3  A    between atoms: N_3  and  C_34 
REMARK    4  A    between atoms: C_5  and  C_6 
REMARK    5  A    between atoms: N_7  and  C_8 
REMARK    6  A    between atoms: C_12  and  N_13 
REMARK    7  A    between atoms: C_16  and  C_17 
REMARK       I    between atoms: C_17  and  N_18 
REMARK    8  A    between atoms: N_18  and  N_19 
REMARK    9  A    between atoms: C_20  and  C_21 
REMARK   10  A    between atoms: C_22  and  O_23 
REMARK   11  A    between atoms: C_25  and  N_26 
REMARK   12  A    between atoms: N_26  and  C_27 
REMARK   13  A    between atoms: N_26  and  C_29 
ROOT
HETATM    1  C   UNL     1      40.033 -12.485   1.104  1.00  0.00     0.096 A 
HETATM    2  N   UNL     1      39.280 -12.427  -0.070  1.00  0.00    -0.215 N 
HETATM    3  N   UNL     1      38.094 -11.818   0.211  1.00  0.00     0.012 NA
HETATM    4  N   UNL     1      38.014 -11.586   1.510  1.00  0.00    -0.152 NA
HETATM    5  C   UNL     1      39.174 -12.004   2.083  1.00  0.00     0.170 A 
ENDROOT
BRANCH   5   6
HETATM    6  C   UNL     1      39.443 -11.945   3.512  1.00  0.00     0.293 C 
HETATM    7  N   UNL     1      39.542 -10.664   4.019  1.00  0.00    -0.242 N 
HETATM    8  H   UNL     1      39.415  -9.860   3.408  1.00  0.00     0.192 HD
HETATM    9  O   UNL     1      39.548 -12.989   4.154  1.00  0.00    -0.264 OA
BRANCH   7  10
HETATM   10  N   UNL     1      39.841 -10.486   5.335  1.00  0.00    -0.183 NA
HETATM   11  C   UNL     1      40.847  -9.706   5.588  1.00  0.00     0.153 C 
BRANCH  11  12
HETATM   12  C   UNL     1      41.274  -9.442   6.976  1.00  0.00     0.016 A 
HETATM   13  C   UNL     1      40.371  -9.367   8.036  1.00  0.00     0.079 A 
HETATM   14  C   UNL     1      40.822  -9.106   9.333  1.00  0.00     0.066 A 
HETATM   15  C   UNL     1      42.183  -8.910   9.628  1.00  0.00     0.032 A 
HETATM   16  C   UNL     1      43.068  -8.998   8.537  1.00  0.00     0.030 A 
HETATM   17  C   UNL     1      42.630  -9.260   7.230  1.00  0.00     0.018 A 
BRANCH  13  18
HETATM   18  O   UNL     1      39.019  -9.540   7.881  1.00  0.00    -0.360 OA
HETATM   19  H   UNL     1      38.576  -9.096   8.634  1.00  0.00     0.217 HD
ENDBRANCH  13  18
BRANCH  15  20
HETATM   20  N   UNL     1      42.628  -8.635  10.916  1.00  0.00    -0.382 N 
BRANCH  20  21
HETATM   21  C   UNL     1      43.812  -9.297  11.483  1.00  0.00     0.118 C 
HETATM   22  C   UNL     1      43.580 -10.790  11.656  1.00  0.00     0.026 C 
ENDBRANCH  20  21
BRANCH  20  23
HETATM   23  C   UNL     1      41.915  -7.701  11.803  1.00  0.00     0.118 C 
HETATM   24  C   UNL     1      42.697  -7.436  13.084  1.00  0.00     0.026 C 
ENDBRANCH  20  23
ENDBRANCH  15  20
ENDBRANCH  11  12
ENDBRANCH   7  10
ENDBRANCH   5   6
BRANCH   1  25
HETATM   25  C   UNL     1      41.457 -12.890   1.223  1.00  0.00     0.296 C 
BRANCH  25  26
HETATM   26  N   UNL     1      41.682 -14.208   1.942  1.00  0.00    -0.066 N 
HETATM   27  H   UNL     1      41.314 -14.065   2.905  1.00  0.00     0.280 HD
BRANCH  26  28
HETATM   28  C   UNL     1      43.164 -14.513   2.099  1.00  0.00     0.231 C 
HETATM   29  C   UNL     1      43.479 -15.923   1.633  1.00  0.00     0.034 C 
ENDBRANCH  26  28
BRANCH  26  30
HETATM   30  C   UNL     1      40.927 -15.350   1.298  1.00  0.00     0.231 C 
HETATM   31  C   UNL     1      39.818 -15.849   2.208  1.00  0.00     0.034 C 
ENDBRANCH  26  30
ENDBRANCH  25  26
ENDBRANCH   1  25
BRANCH   2  32
HETATM   32  C   UNL     1      39.572 -12.939  -1.357  1.00  0.00     0.225 A 
HETATM   33  N   UNL     1      38.863 -13.954  -1.855  1.00  0.00    -0.081 NA
HETATM   34  O   UNL     1      39.412 -14.153  -3.125  1.00  0.00    -0.103 OA
HETATM   35  N   UNL     1      40.422 -13.239  -3.383  1.00  0.00    -0.083 NA
HETATM   36  C   UNL     1      40.521 -12.485  -2.290  1.00  0.00     0.201 A 
BRANCH  36  37
HETATM   37  N   UNL     1      41.389 -11.472  -2.141  1.00  0.00    -0.379 N 
HETATM   38  H   UNL     1      41.047 -10.528  -1.982  1.00  0.00     0.158 HD
HETATM   39  H   UNL     1      42.383 -11.600  -1.961  1.00  0.00     0.158 HD
ENDBRANCH  36  37
ENDBRANCH   2  32
TORSDOF 13
ENDMDL
MODEL 10
REMARK VINA RESULT:      -6.5      6.687     10.450
REMARK  13 active torsions:
REMARK  status: ('A' for Active; 'I' for Inactive)
REMARK    1  A    between atoms: C_2  and  N_3 
REMARK    2  A    between atoms: N_3  and  C_5 
REMARK    3  A    between atoms: N_3  and  C_34 
REMARK    4  A    between atoms: C_5  and  C_6 
REMARK    5  A    between atoms: N_7  and  C_8 
REMARK    6  A    between atoms: C_12  and  N_13 
REMARK    7  A    between atoms: C_16  and  C_17 
REMARK       I    between atoms: C_17  and  N_18 
REMARK    8  A    between atoms: N_18  and  N_19 
REMARK    9  A    between atoms: C_20  and  C_21 
REMARK   10  A    between atoms: C_22  and  O_23 
REMARK   11  A    between atoms: C_25  and  N_26 
REMARK   12  A    between atoms: N_26  and  C_27 
REMARK   13  A    between atoms: N_26  and  C_29 
ROOT
HETATM    1  C   UNL     1      41.819 -15.468   3.588  1.00  0.00     0.096 A 
HETATM    2  N   UNL     1      42.821 -16.257   4.155  1.00  0.00    -0.215 N 
HETATM    3  N   UNL     1      43.383 -17.010   3.169  1.00  0.00     0.012 NA
HETATM    4  N   UNL     1      42.726 -16.821   2.038  1.00  0.00    -0.152 NA
HETATM    5  C   UNL     1      41.751 -15.902   2.270  1.00  0.00     0.170 A 
ENDROOT
BRANCH   5   6
HETATM    6  C   UNL     1      40.794 -15.460   1.267  1.00  0.00     0.293 C 
HETATM    7  N   UNL     1      41.228 -14.402   0.494  1.00  0.00    -0.242 N 
HETATM    8  H   UNL     1      42.154 -14.005   0.641  1.00  0.00     0.192 HD
HETATM    9  O   UNL     1      39.712 -16.039   1.163  1.00  0.00    -0.264 OA
BRANCH   7  10
HETATM   10  N   UNL     1      40.397 -13.872  -0.445  1.00  0.00    -0.183 NA
HETATM   11  C   UNL     1      39.690 -12.851  -0.067  1.00  0.00     0.153 C 
BRANCH  11  12
HETATM   12  C   UNL     1      38.745 -12.196  -0.993  1.00  0.00     0.016 A 
HETATM   13  C   UNL     1      37.935 -12.916  -1.869  1.00  0.00     0.079 A 
HETATM   14  C   UNL     1      37.061 -12.250  -2.734  1.00  0.00     0.066 A 
HETATM   15  C   UNL     1      36.958 -10.848  -2.763  1.00  0.00     0.032 A 
HETATM   16  C   UNL     1      37.786 -10.152  -1.862  1.00  0.00     0.030 A 
HETATM   17  C   UNL     1      38.667 -10.806  -0.988  1.00  0.00     0.018 A 
BRANCH  13  18
HETATM   18  O   UNL     1      37.940 -14.286  -1.939  1.00  0.00    -0.360 OA
HETATM   19  H   UNL     1      38.324 -14.537  -2.806  1.00  0.00     0.217 HD
ENDBRANCH  13  18
BRANCH  15  20
HETATM   20  N   UNL     1      36.100 -10.188  -3.635  1.00  0.00    -0.382 N 
BRANCH  20  21
HETATM   21  C   UNL     1      34.724 -10.652  -3.865  1.00  0.00     0.118 C 
HETATM   22  C   UNL     1      33.765 -10.068  -2.840  1.00  0.00     0.026 C 
ENDBRANCH  20  21
BRANCH  20  23
HETATM   23  C   UNL     1      36.532  -9.015  -4.413  1.00  0.00     0.118 C 
HETATM   24  C   UNL     1      36.004  -9.063  -5.841  1.00  0.00     0.026 C 
ENDBRANCH  20  23
ENDBRANCH  15  20
ENDBRANCH  11  12
ENDBRANCH   7  10
ENDBRANCH   5   6
BRANCH   1  25
HETATM   25  C   UNL     1      41.080 -14.363   4.251  1.00  0.00     0.296 C 
BRANCH  25  26
HETATM   26  N   UNL     1      41.927 -13.148   4.586  1.00  0.00    -0.066 N 
HETATM   27  H   UNL     1      42.733 -13.514   5.132  1.00  0.00     0.280 HD
BRANCH  26  28
HETATM   28  C   UNL     1      41.190 -12.193   5.511  1.00  0.00     0.231 C 
HETATM   29  C   UNL     1      39.787 -12.695   5.802  1.00  0.00     0.034 C 
ENDBRANCH  26  28
BRANCH  26  30
HETATM   30  C   UNL     1      42.453 -12.455   3.347  1.00  0.00     0.231 C 
HETATM   31  C   UNL     1      43.659 -11.593   3.679  1.00  0.00     0.034 C 
ENDBRANCH  26  30
ENDBRANCH  25  26
ENDBRANCH   1  25
BRANCH   2  32
HETATM   32  C   UNL     1      43.216 -16.379   5.509  1.00  0.00     0.225 A 
HETATM   33  N   UNL     1      43.267 -15.302   6.295  1.00  0.00    -0.081 NA
HETATM   34  O   UNL     1      43.659 -15.813   7.536  1.00  0.00    -0.103 OA
HETATM   35  N   UNL     1      43.811 -17.191   7.485  1.00  0.00    -0.083 NA
HETATM   36  C   UNL     1      43.534 -17.544   6.232  1.00  0.00     0.201 A 
BRANCH  36  37
HETATM   37  N   UNL     1      43.564 -18.804   5.772  1.00  0.00    -0.379 N 
HETATM   38  H   UNL     1      42.716 -19.367   5.776  1.00  0.00     0.158 HD
HETATM   39  H   UNL     1      44.326 -19.186   5.216  1.00  0.00     0.158 HD
ENDBRANCH  36  37
ENDBRANCH   2  32
TORSDOF 13
ENDMDL
