MODEL 1
REMARK VINA RESULT:      -8.5      0.000      0.000
REMARK  10 active torsions:
REMARK  status: ('A' for Active; 'I' for Inactive)
REMARK    1  A    between atoms: C_2  and  O_3 
REMARK    2  A    between atoms: O_3  and  C_4 
REMARK    3  A    between atoms: C_4  and  C_5 
REMARK    4  A    between atoms: C_6  and  C_7 
REMARK    5  A    between atoms: C_7  and  O_8 
REMARK    6  A    between atoms: O_8  and  C_9 
REMARK    7  A    between atoms: C_9  and  C_10 
REMARK       I    between atoms: C_10  and  N_11 
REMARK    8  A    between atoms: N_11  and  C_12 
REMARK    9  A    between atoms: C_13  and  C_14 
REMARK       I    between atoms: C_14  and  N_15 
REMARK   10  A    between atoms: N_15  and  C_16 
ROOT
HETATM    1  C   UNL     1      43.893 -15.615   6.810  1.00  0.00     0.282 C 
ENDROOT
BRANCH   1   2
HETATM    2  O   UNL     1      43.004 -14.497   6.921  1.00  0.00    -0.307 OA
BRANCH   2   3
HETATM    3  C   UNL     1      43.119 -13.509   5.992  1.00  0.00     0.318 C 
HETATM    4  O   UNL     1      43.029 -13.671   4.782  1.00  0.00    -0.257 OA
BRANCH   3   5
HETATM    5  C   UNL     1      43.419 -12.262   6.657  1.00  0.00     0.160 A 
HETATM    6  C   UNL     1      42.761 -11.037   6.650  1.00  0.00     0.018 A 
HETATM    7  C   UNL     1      43.534 -10.164   7.479  1.00  0.00     0.009 A 
HETATM    8  C   UNL     1      44.614 -10.914   7.921  1.00  0.00     0.087 A 
HETATM    9  C   UNL     1      43.435  -8.825   7.905  1.00  0.00     0.015 A 
HETATM   10  O   UNL     1      44.552 -12.176   7.424  1.00  0.00    -0.303 OA
HETATM   11  C   UNL     1      45.618 -10.431   8.759  1.00  0.00     0.038 A 
HETATM   12  C   UNL     1      45.502  -9.100   9.168  1.00  0.00     0.003 A 
HETATM   13  C   UNL     1      44.429  -8.309   8.750  1.00  0.00     0.001 A 
BRANCH   6  14
HETATM   14  C   UNL     1      41.490 -10.729   5.941  1.00  0.00     0.210 C 
BRANCH  14  15
HETATM   15  O   UNL     1      40.410 -10.678   6.873  1.00  0.00    -0.387 OA
BRANCH  15  16
HETATM   16  C   UNL     1      39.207 -11.198   6.315  1.00  0.00     0.163 C 
HETATM   17  C   UNL     1      39.529 -12.505   5.619  1.00  0.00     0.033 C 
ENDBRANCH  15  16
ENDBRANCH  14  15
ENDBRANCH   6  14
ENDBRANCH   3   5
ENDBRANCH   2   3
ENDBRANCH   1   2
BRANCH   1  18
HETATM   18  C   UNL     1      43.291 -16.703   5.922  1.00  0.00     0.246 C 
HETATM   19  N   UNL     1      44.224 -17.296   5.084  1.00  0.00    -0.324 N 
HETATM   20  H   UNL     1      45.064 -16.751   4.916  1.00  0.00     0.169 HD
HETATM   21  O   UNL     1      42.093 -16.972   5.950  1.00  0.00    -0.271 OA
BRANCH  19  22
HETATM   22  C   UNL     1      43.961 -18.384   4.228  1.00  0.00     0.050 A 
HETATM   23  C   UNL     1      43.508 -18.270   2.901  1.00  0.00     0.058 A 
HETATM   24  C   UNL     1      43.343 -19.426   2.116  1.00  0.00     0.019 A 
HETATM   25  C   UNL     1      43.613 -20.686   2.650  1.00  0.00     0.001 A 
HETATM   26  C   UNL     1      44.012 -20.804   3.978  1.00  0.00     0.002 A 
HETATM   27  C   UNL     1      44.172 -19.661   4.766  1.00  0.00     0.030 A 
BRANCH  23  28
HETATM   28  C   UNL     1      42.956 -17.003   2.356  1.00  0.00     0.254 C 
HETATM   29  N   UNL     1      41.695 -16.667   2.816  1.00  0.00    -0.352 N 
HETATM   30  H   UNL     1      41.148 -17.394   3.260  1.00  0.00     0.163 HD
HETATM   31  O   UNL     1      43.633 -16.309   1.604  1.00  0.00    -0.268 OA
BRANCH  29  32
HETATM   32  C   UNL     1      41.035 -15.468   2.407  1.00  0.00     0.084 A 
HETATM   33  C   UNL     1      40.289 -15.411   1.105  1.00  0.00     0.027 A 
HETATM   34  C   UNL     1      39.534 -15.385   2.402  1.00  0.00     0.027 A 
ENDBRANCH  29  32
ENDBRANCH  23  28
ENDBRANCH  19  22
ENDBRANCH   1  18
TORSDOF 10
ENDMDL
MODEL 2
REMARK VINA RESULT:      -8.4      2.834      8.456
REMARK  10 active torsions:
REMARK  status: ('A' for Active; 'I' for Inactive)
REMARK    1  A    between atoms: C_2  and  O_3 
REMARK    2  A    between atoms: O_3  and  C_4 
REMARK    3  A    between atoms: C_4  and  C_5 
REMARK    4  A    between atoms: C_6  and  C_7 
REMARK    5  A    between atoms: C_7  and  O_8 
REMARK    6  A    between atoms: O_8  and  C_9 
REMARK    7  A    between atoms: C_9  and  C_10 
REMARK       I    between atoms: C_10  and  N_11 
REMARK    8  A    between atoms: N_11  and  C_12 
REMARK    9  A    between atoms: C_13  and  C_14 
REMARK       I    between atoms: C_14  and  N_15 
REMARK   10  A    between atoms: N_15  and  C_16 
ROOT
HETATM    1  C   UNL     1      40.325 -11.809   5.690  1.00  0.00     0.282 C 
ENDROOT
BRANCH   1   2
HETATM    2  O   UNL     1      40.535 -12.997   4.918  1.00  0.00    -0.307 OA
BRANCH   2   3
HETATM    3  C   UNL     1      40.392 -14.193   5.554  1.00  0.00     0.318 C 
HETATM    4  O   UNL     1      39.772 -14.362   6.597  1.00  0.00    -0.257 OA
BRANCH   3   5
HETATM    5  C   UNL     1      41.133 -15.205   4.837  1.00  0.00     0.160 A 
HETATM    6  C   UNL     1      40.971 -15.726   3.558  1.00  0.00     0.018 A 
HETATM    7  C   UNL     1      41.987 -16.719   3.400  1.00  0.00     0.009 A 
HETATM    8  C   UNL     1      42.687 -16.743   4.598  1.00  0.00     0.087 A 
HETATM    9  C   UNL     1      42.393 -17.596   2.375  1.00  0.00     0.015 A 
HETATM   10  O   UNL     1      42.173 -15.837   5.467  1.00  0.00    -0.303 OA
HETATM   11  C   UNL     1      43.768 -17.584   4.862  1.00  0.00     0.038 A 
HETATM   12  C   UNL     1      44.152 -18.447   3.832  1.00  0.00     0.003 A 
HETATM   13  C   UNL     1      43.478 -18.454   2.608  1.00  0.00     0.001 A 
BRANCH   6  14
HETATM   14  C   UNL     1      39.957 -15.295   2.558  1.00  0.00     0.210 C 
BRANCH  14  15
HETATM   15  O   UNL     1      40.411 -14.130   1.870  1.00  0.00    -0.387 OA
BRANCH  15  16
HETATM   16  C   UNL     1      40.955 -14.450   0.594  1.00  0.00     0.163 C 
HETATM   17  C   UNL     1      39.814 -14.808  -0.337  1.00  0.00     0.033 C 
ENDBRANCH  15  16
ENDBRANCH  14  15
ENDBRANCH   6  14
ENDBRANCH   3   5
ENDBRANCH   2   3
ENDBRANCH   1   2
BRANCH   1  18
HETATM   18  C   UNL     1      41.641 -11.063   5.910  1.00  0.00     0.246 C 
HETATM   19  N   UNL     1      42.493 -11.715   6.789  1.00  0.00    -0.324 N 
HETATM   20  H   UNL     1      42.047 -12.384   7.409  1.00  0.00     0.169 HD
HETATM   21  O   UNL     1      41.870  -9.983   5.372  1.00  0.00    -0.271 OA
BRANCH  19  22
HETATM   22  C   UNL     1      43.802 -11.297   7.101  1.00  0.00     0.050 A 
HETATM   23  C   UNL     1      44.165 -10.593   8.263  1.00  0.00     0.058 A 
HETATM   24  C   UNL     1      45.516 -10.285   8.503  1.00  0.00     0.019 A 
HETATM   25  C   UNL     1      46.499 -10.662   7.587  1.00  0.00     0.001 A 
HETATM   26  C   UNL     1      46.136 -11.314   6.412  1.00  0.00     0.002 A 
HETATM   27  C   UNL     1      44.795 -11.617   6.163  1.00  0.00     0.030 A 
BRANCH  23  28
HETATM   28  C   UNL     1      43.161  -9.936   9.140  1.00  0.00     0.254 C 
HETATM   29  N   UNL     1      43.236 -10.279  10.477  1.00  0.00    -0.352 N 
HETATM   30  H   UNL     1      43.763 -11.109  10.721  1.00  0.00     0.163 HD
HETATM   31  O   UNL     1      42.383  -9.109   8.674  1.00  0.00    -0.268 OA
BRANCH  29  32
HETATM   32  C   UNL     1      42.360  -9.716  11.454  1.00  0.00     0.084 A 
HETATM   33  C   UNL     1      42.401 -10.186  12.880  1.00  0.00     0.027 A 
HETATM   34  C   UNL     1      42.894  -8.812  12.531  1.00  0.00     0.027 A 
ENDBRANCH  29  32
ENDBRANCH  23  28
ENDBRANCH  19  22
ENDBRANCH   1  18
TORSDOF 10
ENDMDL
MODEL 3
REMARK VINA RESULT:      -8.2      2.102      7.854
REMARK  10 active torsions:
REMARK  status: ('A' for Active; 'I' for Inactive)
REMARK    1  A    between atoms: C_2  and  O_3 
REMARK    2  A    between atoms: O_3  and  C_4 
REMARK    3  A    between atoms: C_4  and  C_5 
REMARK    4  A    between atoms: C_6  and  C_7 
REMARK    5  A    between atoms: C_7  and  O_8 
REMARK    6  A    between atoms: O_8  and  C_9 
REMARK    7  A    between atoms: C_9  and  C_10 
REMARK       I    between atoms: C_10  and  N_11 
REMARK    8  A    between atoms: N_11  and  C_12 
REMARK    9  A    between atoms: C_13  and  C_14 
REMARK       I    between atoms: C_14  and  N_15 
REMARK   10  A    between atoms: N_15  and  C_16 
ROOT
HETATM    1  C   UNL     1      40.854 -15.318   6.370  1.00  0.00     0.282 C 
ENDROOT
BRANCH   1   2
HETATM    2  O   UNL     1      42.068 -15.383   7.126  1.00  0.00    -0.307 OA
BRANCH   2   3
HETATM    3  C   UNL     1      43.241 -15.308   6.438  1.00  0.00     0.318 C 
HETATM    4  O   UNL     1      44.004 -14.351   6.457  1.00  0.00    -0.257 OA
BRANCH   3   5
HETATM    5  C   UNL     1      43.406 -16.505   5.647  1.00  0.00     0.160 A 
HETATM    6  C   UNL     1      43.383 -16.705   4.271  1.00  0.00     0.018 A 
HETATM    7  C   UNL     1      43.584 -18.107   4.068  1.00  0.00     0.009 A 
HETATM    8  C   UNL     1      43.701 -18.663   5.334  1.00  0.00     0.087 A 
HETATM    9  C   UNL     1      43.683 -18.963   2.954  1.00  0.00     0.015 A 
HETATM   10  O   UNL     1      43.589 -17.703   6.287  1.00  0.00    -0.303 OA
HETATM   11  C   UNL     1      43.905 -20.020   5.582  1.00  0.00     0.038 A 
HETATM   12  C   UNL     1      43.998 -20.851   4.463  1.00  0.00     0.003 A 
HETATM   13  C   UNL     1      43.890 -20.333   3.170  1.00  0.00     0.001 A 
BRANCH   6  14
HETATM   14  C   UNL     1      43.216 -15.651   3.234  1.00  0.00     0.210 C 
BRANCH  14  15
HETATM   15  O   UNL     1      41.833 -15.482   2.927  1.00  0.00    -0.387 OA
BRANCH  15  16
HETATM   16  C   UNL     1      41.635 -15.123   1.563  1.00  0.00     0.163 C 
HETATM   17  C   UNL     1      40.188 -15.391   1.202  1.00  0.00     0.033 C 
ENDBRANCH  15  16
ENDBRANCH  14  15
ENDBRANCH   6  14
ENDBRANCH   3   5
ENDBRANCH   2   3
ENDBRANCH   1   2
BRANCH   1  18
HETATM   18  C   UNL     1      40.521 -13.874   5.997  1.00  0.00     0.246 C 
HETATM   19  N   UNL     1      41.365 -13.357   5.025  1.00  0.00    -0.324 N 
HETATM   20  H   UNL     1      42.255 -13.835   4.926  1.00  0.00     0.169 HD
HETATM   21  O   UNL     1      39.613 -13.256   6.548  1.00  0.00    -0.271 OA
BRANCH  19  22
HETATM   22  C   UNL     1      41.229 -12.085   4.435  1.00  0.00     0.050 A 
HETATM   23  C   UNL     1      41.868 -10.917   4.888  1.00  0.00     0.058 A 
HETATM   24  C   UNL     1      41.712  -9.712   4.179  1.00  0.00     0.019 A 
HETATM   25  C   UNL     1      40.916  -9.666   3.035  1.00  0.00     0.001 A 
HETATM   26  C   UNL     1      40.241 -10.808   2.614  1.00  0.00     0.002 A 
HETATM   27  C   UNL     1      40.386 -12.007   3.317  1.00  0.00     0.030 A 
BRANCH  23  28
HETATM   28  C   UNL     1      42.508 -10.830   6.227  1.00  0.00     0.254 C 
HETATM   29  N   UNL     1      43.861 -11.118   6.250  1.00  0.00    -0.352 N 
HETATM   30  H   UNL     1      44.252 -11.602   5.451  1.00  0.00     0.163 HD
HETATM   31  O   UNL     1      41.856 -10.463   7.199  1.00  0.00    -0.268 OA
BRANCH  29  32
HETATM   32  C   UNL     1      44.628 -11.054   7.453  1.00  0.00     0.084 A 
HETATM   33  C   UNL     1      46.121 -10.898   7.401  1.00  0.00     0.027 A 
HETATM   34  C   UNL     1      45.267  -9.763   7.886  1.00  0.00     0.027 A 
ENDBRANCH  29  32
ENDBRANCH  23  28
ENDBRANCH  19  22
ENDBRANCH   1  18
TORSDOF 10
ENDMDL
MODEL 4
REMARK VINA RESULT:      -7.8      2.723      8.878
REMARK  10 active torsions:
REMARK  status: ('A' for Active; 'I' for Inactive)
REMARK    1  A    between atoms: C_2  and  O_3 
REMARK    2  A    between atoms: O_3  and  C_4 
REMARK    3  A    between atoms: C_4  and  C_5 
REMARK    4  A    between atoms: C_6  and  C_7 
REMARK    5  A    between atoms: C_7  and  O_8 
REMARK    6  A    between atoms: O_8  and  C_9 
REMARK    7  A    between atoms: C_9  and  C_10 
REMARK       I    between atoms: C_10  and  N_11 
REMARK    8  A    between atoms: N_11  and  C_12 
REMARK    9  A    between atoms: C_13  and  C_14 
REMARK       I    between atoms: C_14  and  N_15 
REMARK   10  A    between atoms: N_15  and  C_16 
ROOT
HETATM    1  C   UNL     1      42.134 -13.574   6.001  1.00  0.00     0.282 C 
ENDROOT
BRANCH   1   2
HETATM    2  O   UNL     1      43.072 -14.618   5.717  1.00  0.00    -0.307 OA
BRANCH   2   3
HETATM    3  C   UNL     1      42.856 -15.832   6.297  1.00  0.00     0.318 C 
HETATM    4  O   UNL     1      42.589 -16.005   7.479  1.00  0.00    -0.257 OA
BRANCH   3   5
HETATM    5  C   UNL     1      43.047 -16.871   5.312  1.00  0.00     0.160 A 
HETATM    6  C   UNL     1      42.710 -16.931   3.965  1.00  0.00     0.018 A 
HETATM    7  C   UNL     1      43.129 -18.219   3.506  1.00  0.00     0.009 A 
HETATM    8  C   UNL     1      43.679 -18.858   4.608  1.00  0.00     0.087 A 
HETATM    9  C   UNL     1      43.107 -18.912   2.279  1.00  0.00     0.015 A 
HETATM   10  O   UNL     1      43.626 -18.052   5.699  1.00  0.00    -0.303 OA
HETATM   11  C   UNL     1      44.208 -20.147   4.589  1.00  0.00     0.038 A 
HETATM   12  C   UNL     1      44.174 -20.817   3.362  1.00  0.00     0.003 A 
HETATM   13  C   UNL     1      43.633 -20.211   2.226  1.00  0.00     0.001 A 
BRANCH   6  14
HETATM   14  C   UNL     1      42.073 -15.846   3.171  1.00  0.00     0.210 C 
BRANCH  14  15
HETATM   15  O   UNL     1      40.797 -16.273   2.694  1.00  0.00    -0.387 OA
BRANCH  15  16
HETATM   16  C   UNL     1      40.362 -15.496   1.583  1.00  0.00     0.163 C 
HETATM   17  C   UNL     1      41.436 -14.474   1.264  1.00  0.00     0.033 C 
ENDBRANCH  15  16
ENDBRANCH  14  15
ENDBRANCH   6  14
ENDBRANCH   3   5
ENDBRANCH   2   3
ENDBRANCH   1   2
BRANCH   1  18
HETATM   18  C   UNL     1      42.847 -12.234   6.175  1.00  0.00     0.246 C 
HETATM   19  N   UNL     1      43.423 -12.086   7.428  1.00  0.00    -0.324 N 
HETATM   20  H   UNL     1      43.043 -12.686   8.153  1.00  0.00     0.169 HD
HETATM   21  O   UNL     1      42.859 -11.387   5.286  1.00  0.00    -0.271 OA
BRANCH  19  22
HETATM   22  C   UNL     1      44.215 -10.990   7.827  1.00  0.00     0.050 A 
HETATM   23  C   UNL     1      43.749  -9.892   8.571  1.00  0.00     0.058 A 
HETATM   24  C   UNL     1      44.646  -8.885   8.971  1.00  0.00     0.019 A 
HETATM   25  C   UNL     1      45.994  -8.963   8.622  1.00  0.00     0.001 A 
HETATM   26  C   UNL     1      46.447 -10.023   7.841  1.00  0.00     0.002 A 
HETATM   27  C   UNL     1      45.560 -11.023   7.434  1.00  0.00     0.030 A 
BRANCH  23  28
HETATM   28  C   UNL     1      42.301  -9.611   8.752  1.00  0.00     0.254 C 
HETATM   29  N   UNL     1      41.866  -9.591  10.065  1.00  0.00    -0.352 N 
HETATM   30  H   UNL     1      42.466 -10.010  10.765  1.00  0.00     0.163 HD
HETATM   31  O   UNL     1      41.596  -9.357   7.780  1.00  0.00    -0.268 OA
BRANCH  29  32
HETATM   32  C   UNL     1      40.509  -9.310  10.409  1.00  0.00     0.084 A 
HETATM   33  C   UNL     1      39.853 -10.007  11.567  1.00  0.00     0.027 A 
HETATM   34  C   UNL     1      40.180  -8.545  11.661  1.00  0.00     0.027 A 
ENDBRANCH  29  32
ENDBRANCH  23  28
ENDBRANCH  19  22
ENDBRANCH   1  18
TORSDOF 10
ENDMDL
MODEL 5
REMARK VINA RESULT:      -7.8      3.418      8.132
REMARK  10 active torsions:
REMARK  status: ('A' for Active; 'I' for Inactive)
REMARK    1  A    between atoms: C_2  and  O_3 
REMARK    2  A    between atoms: O_3  and  C_4 
REMARK    3  A    between atoms: C_4  and  C_5 
REMARK    4  A    between atoms: C_6  and  C_7 
REMARK    5  A    between atoms: C_7  and  O_8 
REMARK    6  A    between atoms: O_8  and  C_9 
REMARK    7  A    between atoms: C_9  and  C_10 
REMARK       I    between atoms: C_10  and  N_11 
REMARK    8  A    between atoms: N_11  and  C_12 
REMARK    9  A    between atoms: C_13  and  C_14 
REMARK       I    between atoms: C_14  and  N_15 
REMARK   10  A    between atoms: N_15  and  C_16 
ROOT
HETATM    1  C   UNL     1      40.640 -15.040   1.654  1.00  0.00     0.282 C 
ENDROOT
BRANCH   1   2
HETATM    2  O   UNL     1      41.588 -14.814   2.704  1.00  0.00    -0.307 OA
BRANCH   2   3
HETATM    3  C   UNL     1      42.890 -15.125   2.451  1.00  0.00     0.318 C 
HETATM    4  O   UNL     1      43.673 -14.413   1.836  1.00  0.00    -0.257 OA
BRANCH   3   5
HETATM    5  C   UNL     1      43.175 -16.442   2.972  1.00  0.00     0.160 A 
HETATM    6  C   UNL     1      43.519 -16.868   4.250  1.00  0.00     0.018 A 
HETATM    7  C   UNL     1      43.701 -18.284   4.164  1.00  0.00     0.009 A 
HETATM    8  C   UNL     1      43.469 -18.618   2.837  1.00  0.00     0.087 A 
HETATM    9  C   UNL     1      44.033 -19.317   5.062  1.00  0.00     0.015 A 
HETATM   10  O   UNL     1      43.158 -17.512   2.116  1.00  0.00    -0.303 OA
HETATM   11  C   UNL     1      43.547 -19.913   2.326  1.00  0.00     0.038 A 
HETATM   12  C   UNL     1      43.880 -20.922   3.234  1.00  0.00     0.003 A 
HETATM   13  C   UNL     1      44.118 -20.631   4.580  1.00  0.00     0.001 A 
BRANCH   6  14
HETATM   14  C   UNL     1      43.635 -16.008   5.459  1.00  0.00     0.210 C 
BRANCH  14  15
HETATM   15  O   UNL     1      42.350 -15.819   6.050  1.00  0.00    -0.387 OA
BRANCH  15  16
HETATM   16  C   UNL     1      42.094 -14.446   6.327  1.00  0.00     0.163 C 
HETATM   17  C   UNL     1      43.410 -13.696   6.287  1.00  0.00     0.033 C 
ENDBRANCH  15  16
ENDBRANCH  14  15
ENDBRANCH   6  14
ENDBRANCH   3   5
ENDBRANCH   2   3
ENDBRANCH   1   2
BRANCH   1  18
HETATM   18  C   UNL     1      40.267 -13.727   0.967  1.00  0.00     0.246 C 
HETATM   19  N   UNL     1      41.200 -13.325   0.022  1.00  0.00    -0.324 N 
HETATM   20  H   UNL     1      42.125 -13.730   0.128  1.00  0.00     0.169 HD
HETATM   21  O   UNL     1      39.253 -13.103   1.271  1.00  0.00    -0.271 OA
BRANCH  19  22
HETATM   22  C   UNL     1      41.063 -12.203  -0.819  1.00  0.00     0.050 A 
HETATM   23  C   UNL     1      41.223 -10.868  -0.409  1.00  0.00     0.058 A 
HETATM   24  C   UNL     1      41.129  -9.829  -1.353  1.00  0.00     0.019 A 
HETATM   25  C   UNL     1      40.863 -10.115  -2.692  1.00  0.00     0.001 A 
HETATM   26  C   UNL     1      40.654 -11.432  -3.090  1.00  0.00     0.002 A 
HETATM   27  C   UNL     1      40.739 -12.468  -2.157  1.00  0.00     0.030 A 
BRANCH  23  28
HETATM   28  C   UNL     1      41.245 -10.474   1.024  1.00  0.00     0.254 C 
HETATM   29  N   UNL     1      40.034 -10.036   1.530  1.00  0.00    -0.352 N 
HETATM   30  H   UNL     1      39.315  -9.773   0.867  1.00  0.00     0.163 HD
HETATM   31  O   UNL     1      42.271 -10.604   1.684  1.00  0.00    -0.268 OA
BRANCH  29  32
HETATM   32  C   UNL     1      39.881  -9.645   2.895  1.00  0.00     0.084 A 
HETATM   33  C   UNL     1      38.608  -9.005   3.369  1.00  0.00     0.027 A 
HETATM   34  C   UNL     1      38.952 -10.398   3.807  1.00  0.00     0.027 A 
ENDBRANCH  29  32
ENDBRANCH  23  28
ENDBRANCH  19  22
ENDBRANCH   1  18
TORSDOF 10
ENDMDL
MODEL 6
REMARK VINA RESULT:      -7.7      1.804      3.544
REMARK  10 active torsions:
REMARK  status: ('A' for Active; 'I' for Inactive)
REMARK    1  A    between atoms: C_2  and  O_3 
REMARK    2  A    between atoms: O_3  and  C_4 
REMARK    3  A    between atoms: C_4  and  C_5 
REMARK    4  A    between atoms: C_6  and  C_7 
REMARK    5  A    between atoms: C_7  and  O_8 
REMARK    6  A    between atoms: O_8  and  C_9 
REMARK    7  A    between atoms: C_9  and  C_10 
REMARK       I    between atoms: C_10  and  N_11 
REMARK    8  A    between atoms: N_11  and  C_12 
REMARK    9  A    between atoms: C_13  and  C_14 
REMARK       I    between atoms: C_14  and  N_15 
REMARK   10  A    between atoms: N_15  and  C_16 
ROOT
HETATM    1  C   UNL     1      43.091 -14.440   7.190  1.00  0.00     0.282 C 
ENDROOT
BRANCH   1   2
HETATM    2  O   UNL     1      44.031 -13.626   6.481  1.00  0.00    -0.307 OA
BRANCH   2   3
HETATM    3  C   UNL     1      44.106 -12.310   6.824  1.00  0.00     0.318 C 
HETATM    4  O   UNL     1      44.706 -11.873   7.797  1.00  0.00    -0.257 OA
BRANCH   3   5
HETATM    5  C   UNL     1      43.321 -11.530   5.895  1.00  0.00     0.160 A 
HETATM    6  C   UNL     1      42.472 -10.447   6.095  1.00  0.00     0.018 A 
HETATM    7  C   UNL     1      41.955 -10.102   4.807  1.00  0.00     0.009 A 
HETATM    8  C   UNL     1      42.515 -11.006   3.916  1.00  0.00     0.087 A 
HETATM    9  C   UNL     1      41.080  -9.122   4.298  1.00  0.00     0.015 A 
HETATM   10  O   UNL     1      43.334 -11.870   4.567  1.00  0.00    -0.303 OA
HETATM   11  C   UNL     1      42.266 -11.017   2.544  1.00  0.00     0.038 A 
HETATM   12  C   UNL     1      41.393 -10.038   2.061  1.00  0.00     0.003 A 
HETATM   13  C   UNL     1      40.809  -9.105   2.922  1.00  0.00     0.001 A 
BRANCH   6  14
HETATM   14  C   UNL     1      42.197  -9.777   7.394  1.00  0.00     0.210 C 
BRANCH  14  15
HETATM   15  O   UNL     1      42.760  -8.465   7.398  1.00  0.00    -0.387 OA
BRANCH  15  16
HETATM   16  C   UNL     1      43.321  -8.135   8.664  1.00  0.00     0.163 C 
HETATM   17  C   UNL     1      44.810  -8.415   8.616  1.00  0.00     0.033 C 
ENDBRANCH  15  16
ENDBRANCH  14  15
ENDBRANCH   6  14
ENDBRANCH   3   5
ENDBRANCH   2   3
ENDBRANCH   1   2
BRANCH   1  18
HETATM   18  C   UNL     1      42.859 -15.763   6.461  1.00  0.00     0.246 C 
HETATM   19  N   UNL     1      43.426 -15.792   5.195  1.00  0.00    -0.324 N 
HETATM   20  H   UNL     1      43.618 -14.883   4.786  1.00  0.00     0.169 HD
HETATM   21  O   UNL     1      42.203 -16.672   6.963  1.00  0.00    -0.271 OA
BRANCH  19  22
HETATM   22  C   UNL     1      43.441 -16.914   4.344  1.00  0.00     0.050 A 
HETATM   23  C   UNL     1      42.612 -17.080   3.220  1.00  0.00     0.058 A 
HETATM   24  C   UNL     1      42.761 -18.215   2.401  1.00  0.00     0.019 A 
HETATM   25  C   UNL     1      43.716 -19.184   2.706  1.00  0.00     0.001 A 
HETATM   26  C   UNL     1      44.502 -19.047   3.847  1.00  0.00     0.002 A 
HETATM   27  C   UNL     1      44.355 -17.926   4.668  1.00  0.00     0.030 A 
BRANCH  23  28
HETATM   28  C   UNL     1      41.412 -16.236   2.985  1.00  0.00     0.254 C 
HETATM   29  N   UNL     1      41.176 -15.906   1.663  1.00  0.00    -0.352 N 
HETATM   30  H   UNL     1      41.937 -16.027   1.006  1.00  0.00     0.163 HD
HETATM   31  O   UNL     1      40.679 -15.932   3.922  1.00  0.00    -0.268 OA
BRANCH  29  32
HETATM   32  C   UNL     1      40.050 -15.122   1.267  1.00  0.00     0.084 A 
HETATM   33  C   UNL     1      40.175 -13.636   1.092  1.00  0.00     0.027 A 
HETATM   34  C   UNL     1      39.984 -14.516  -0.108  1.00  0.00     0.027 A 
ENDBRANCH  29  32
ENDBRANCH  23  28
ENDBRANCH  19  22
ENDBRANCH   1  18
TORSDOF 10
ENDMDL
MODEL 7
REMARK VINA RESULT:      -7.7      1.714      2.283
REMARK  10 active torsions:
REMARK  status: ('A' for Active; 'I' for Inactive)
REMARK    1  A    between atoms: C_2  and  O_3 
REMARK    2  A    between atoms: O_3  and  C_4 
REMARK    3  A    between atoms: C_4  and  C_5 
REMARK    4  A    between atoms: C_6  and  C_7 
REMARK    5  A    between atoms: C_7  and  O_8 
REMARK    6  A    between atoms: O_8  and  C_9 
REMARK    7  A    between atoms: C_9  and  C_10 
REMARK       I    between atoms: C_10  and  N_11 
REMARK    8  A    between atoms: N_11  and  C_12 
REMARK    9  A    between atoms: C_13  and  C_14 
REMARK       I    between atoms: C_14  and  N_15 
REMARK   10  A    between atoms: N_15  and  C_16 
ROOT
HETATM    1  C   UNL     1      43.460 -13.633   7.124  1.00  0.00     0.282 C 
ENDROOT
BRANCH   1   2
HETATM    2  O   UNL     1      44.028 -12.773   6.129  1.00  0.00    -0.307 OA
BRANCH   2   3
HETATM    3  C   UNL     1      44.857 -11.780   6.557  1.00  0.00     0.318 C 
HETATM    4  O   UNL     1      45.979 -11.566   6.117  1.00  0.00    -0.257 OA
BRANCH   3   5
HETATM    5  C   UNL     1      44.224 -11.066   7.643  1.00  0.00     0.160 A 
HETATM    6  C   UNL     1      43.157 -10.175   7.655  1.00  0.00     0.018 A 
HETATM    7  C   UNL     1      42.989  -9.773   9.017  1.00  0.00     0.009 A 
HETATM    8  C   UNL     1      43.973 -10.437   9.736  1.00  0.00     0.087 A 
HETATM    9  C   UNL     1      42.111  -8.925   9.720  1.00  0.00     0.015 A 
HETATM   10  O   UNL     1      44.722 -11.212   8.911  1.00  0.00    -0.303 OA
HETATM   11  C   UNL     1      44.158 -10.318  11.112  1.00  0.00     0.038 A 
HETATM   12  C   UNL     1      43.278  -9.470  11.789  1.00  0.00     0.003 A 
HETATM   13  C   UNL     1      42.270  -8.784  11.107  1.00  0.00     0.001 A 
BRANCH   6  14
HETATM   14  C   UNL     1      42.345  -9.762   6.479  1.00  0.00     0.210 C 
BRANCH  14  15
HETATM   15  O   UNL     1      41.174 -10.572   6.384  1.00  0.00    -0.387 OA
BRANCH  15  16
HETATM   16  C   UNL     1      39.989  -9.811   6.594  1.00  0.00     0.163 C 
HETATM   17  C   UNL     1      38.995 -10.673   7.347  1.00  0.00     0.033 C 
ENDBRANCH  15  16
ENDBRANCH  14  15
ENDBRANCH   6  14
ENDBRANCH   3   5
ENDBRANCH   2   3
ENDBRANCH   1   2
BRANCH   1  18
HETATM   18  C   UNL     1      43.216 -15.031   6.559  1.00  0.00     0.246 C 
HETATM   19  N   UNL     1      43.525 -15.132   5.210  1.00  0.00    -0.324 N 
HETATM   20  H   UNL     1      43.546 -14.253   4.704  1.00  0.00     0.169 HD
HETATM   21  O   UNL     1      42.761 -15.939   7.251  1.00  0.00    -0.271 OA
BRANCH  19  22
HETATM   22  C   UNL     1      43.479 -16.324   4.460  1.00  0.00     0.050 A 
HETATM   23  C   UNL     1      42.674 -16.528   3.325  1.00  0.00     0.058 A 
HETATM   24  C   UNL     1      42.759 -17.739   2.614  1.00  0.00     0.019 A 
HETATM   25  C   UNL     1      43.629 -18.745   3.036  1.00  0.00     0.001 A 
HETATM   26  C   UNL     1      44.388 -18.565   4.188  1.00  0.00     0.002 A 
HETATM   27  C   UNL     1      44.303 -17.368   4.904  1.00  0.00     0.030 A 
BRANCH  23  28
HETATM   28  C   UNL     1      41.549 -15.622   2.975  1.00  0.00     0.254 C 
HETATM   29  N   UNL     1      41.277 -15.521   1.623  1.00  0.00    -0.352 N 
HETATM   30  H   UNL     1      41.987 -15.840   0.975  1.00  0.00     0.163 HD
HETATM   31  O   UNL     1      40.900 -15.075   3.860  1.00  0.00    -0.268 OA
BRANCH  29  32
HETATM   32  C   UNL     1      40.211 -14.711   1.123  1.00  0.00     0.084 A 
HETATM   33  C   UNL     1      40.501 -13.474   0.324  1.00  0.00     0.027 A 
HETATM   34  C   UNL     1      39.903 -14.675  -0.349  1.00  0.00     0.027 A 
ENDBRANCH  29  32
ENDBRANCH  23  28
ENDBRANCH  19  22
ENDBRANCH   1  18
TORSDOF 10
ENDMDL
MODEL 8
REMARK VINA RESULT:      -7.7      4.546      7.489
REMARK  10 active torsions:
REMARK  status: ('A' for Active; 'I' for Inactive)
REMARK    1  A    between atoms: C_2  and  O_3 
REMARK    2  A    between atoms: O_3  and  C_4 
REMARK    3  A    between atoms: C_4  and  C_5 
REMARK    4  A    between atoms: C_6  and  C_7 
REMARK    5  A    between atoms: C_7  and  O_8 
REMARK    6  A    between atoms: O_8  and  C_9 
REMARK    7  A    between atoms: C_9  and  C_10 
REMARK       I    between atoms: C_10  and  N_11 
REMARK    8  A    between atoms: N_11  and  C_12 
REMARK    9  A    between atoms: C_13  and  C_14 
REMARK       I    between atoms: C_14  and  N_15 
REMARK   10  A    between atoms: N_15  and  C_16 
ROOT
HETATM    1  C   UNL     1      40.733 -14.582   0.777  1.00  0.00     0.282 C 
ENDROOT
BRANCH   1   2
HETATM    2  O   UNL     1      41.104 -13.363   0.123  1.00  0.00    -0.307 OA
BRANCH   2   3
HETATM    3  C   UNL     1      40.233 -12.318   0.201  1.00  0.00     0.318 C 
HETATM    4  O   UNL     1      39.250 -12.280   0.930  1.00  0.00    -0.257 OA
BRANCH   3   5
HETATM    5  C   UNL     1      40.623 -11.301  -0.747  1.00  0.00     0.160 A 
HETATM    6  C   UNL     1      40.326 -11.143  -2.097  1.00  0.00     0.018 A 
HETATM    7  C   UNL     1      41.009  -9.960  -2.520  1.00  0.00     0.009 A 
HETATM    8  C   UNL     1      41.684  -9.488  -1.403  1.00  0.00     0.087 A 
HETATM    9  C   UNL     1      41.126  -9.236  -3.722  1.00  0.00     0.015 A 
HETATM   10  O   UNL     1      41.458 -10.296  -0.336  1.00  0.00    -0.303 OA
HETATM   11  C   UNL     1      42.479  -8.344  -1.389  1.00  0.00     0.038 A 
HETATM   12  C   UNL     1      42.583  -7.642  -2.593  1.00  0.00     0.003 A 
HETATM   13  C   UNL     1      41.918  -8.079  -3.741  1.00  0.00     0.001 A 
BRANCH   6  14
HETATM   14  C   UNL     1      39.444 -12.024  -2.909  1.00  0.00     0.210 C 
BRANCH  14  15
HETATM   15  O   UNL     1      40.141 -13.216  -3.270  1.00  0.00    -0.387 OA
BRANCH  15  16
HETATM   16  C   UNL     1      39.482 -14.380  -2.782  1.00  0.00     0.163 C 
HETATM   17  C   UNL     1      38.143 -14.501  -3.481  1.00  0.00     0.033 C 
ENDBRANCH  15  16
ENDBRANCH  14  15
ENDBRANCH   6  14
ENDBRANCH   3   5
ENDBRANCH   2   3
ENDBRANCH   1   2
BRANCH   1  18
HETATM   18  C   UNL     1      41.896 -15.132   1.603  1.00  0.00     0.246 C 
HETATM   19  N   UNL     1      41.593 -16.329   2.236  1.00  0.00    -0.324 N 
HETATM   20  H   UNL     1      40.603 -16.517   2.355  1.00  0.00     0.169 HD
HETATM   21  O   UNL     1      42.962 -14.530   1.700  1.00  0.00    -0.271 OA
BRANCH  19  22
HETATM   22  C   UNL     1      42.505 -17.097   2.985  1.00  0.00     0.050 A 
HETATM   23  C   UNL     1      42.760 -16.928   4.358  1.00  0.00     0.058 A 
HETATM   24  C   UNL     1      43.645 -17.799   5.019  1.00  0.00     0.019 A 
HETATM   25  C   UNL     1      44.283 -18.822   4.317  1.00  0.00     0.001 A 
HETATM   26  C   UNL     1      44.071 -18.959   2.948  1.00  0.00     0.002 A 
HETATM   27  C   UNL     1      43.199 -18.093   2.284  1.00  0.00     0.030 A 
BRANCH  23  28
HETATM   28  C   UNL     1      42.329 -15.716   5.103  1.00  0.00     0.254 C 
HETATM   29  N   UNL     1      43.136 -14.606   4.935  1.00  0.00    -0.352 N 
HETATM   30  H   UNL     1      44.063 -14.752   4.553  1.00  0.00     0.163 HD
HETATM   31  O   UNL     1      41.290 -15.732   5.756  1.00  0.00    -0.268 OA
BRANCH  29  32
HETATM   32  C   UNL     1      42.845 -13.356   5.562  1.00  0.00     0.084 A 
HETATM   33  C   UNL     1      43.569 -12.940   6.810  1.00  0.00     0.027 A 
HETATM   34  C   UNL     1      43.839 -12.228   5.517  1.00  0.00     0.027 A 
ENDBRANCH  29  32
ENDBRANCH  23  28
ENDBRANCH  19  22
ENDBRANCH   1  18
TORSDOF 10
ENDMDL
MODEL 9
REMARK VINA RESULT:      -7.7      2.510      8.451
REMARK  10 active torsions:
REMARK  status: ('A' for Active; 'I' for Inactive)
REMARK    1  A    between atoms: C_2  and  O_3 
REMARK    2  A    between atoms: O_3  and  C_4 
REMARK    3  A    between atoms: C_4  and  C_5 
REMARK    4  A    between atoms: C_6  and  C_7 
REMARK    5  A    between atoms: C_7  and  O_8 
REMARK    6  A    between atoms: O_8  and  C_9 
REMARK    7  A    between atoms: C_9  and  C_10 
REMARK       I    between atoms: C_10  and  N_11 
REMARK    8  A    between atoms: N_11  and  C_12 
REMARK    9  A    between atoms: C_13  and  C_14 
REMARK       I    between atoms: C_14  and  N_15 
REMARK   10  A    between atoms: N_15  and  C_16 
ROOT
HETATM    1  C   UNL     1      42.431 -13.018   3.129  1.00  0.00     0.282 C 
ENDROOT
BRANCH   1   2
HETATM    2  O   UNL     1      43.225 -14.165   2.804  1.00  0.00    -0.307 OA
BRANCH   2   3
HETATM    3  C   UNL     1      42.619 -15.172   2.115  1.00  0.00     0.318 C 
HETATM    4  O   UNL     1      41.853 -15.014   1.173  1.00  0.00    -0.257 OA
BRANCH   3   5
HETATM    5  C   UNL     1      42.979 -16.439   2.709  1.00  0.00     0.160 A 
HETATM    6  C   UNL     1      43.410 -16.761   3.991  1.00  0.00     0.018 A 
HETATM    7  C   UNL     1      43.636 -18.173   3.993  1.00  0.00     0.009 A 
HETATM    8  C   UNL     1      43.342 -18.609   2.709  1.00  0.00     0.087 A 
HETATM    9  C   UNL     1      44.054 -19.129   4.940  1.00  0.00     0.015 A 
HETATM   10  O   UNL     1      42.951 -17.568   1.932  1.00  0.00    -0.303 OA
HETATM   11  C   UNL     1      43.436 -19.934   2.287  1.00  0.00     0.038 A 
HETATM   12  C   UNL     1      43.854 -20.865   3.242  1.00  0.00     0.003 A 
HETATM   13  C   UNL     1      44.158 -20.471   4.547  1.00  0.00     0.001 A 
BRANCH   6  14
HETATM   14  C   UNL     1      43.563 -15.814   5.129  1.00  0.00     0.210 C 
BRANCH  14  15
HETATM   15  O   UNL     1      44.266 -16.444   6.199  1.00  0.00    -0.387 OA
BRANCH  15  16
HETATM   16  C   UNL     1      43.511 -16.428   7.407  1.00  0.00     0.163 C 
HETATM   17  C   UNL     1      43.043 -15.009   7.660  1.00  0.00     0.033 C 
ENDBRANCH  15  16
ENDBRANCH  14  15
ENDBRANCH   6  14
ENDBRANCH   3   5
ENDBRANCH   2   3
ENDBRANCH   1   2
BRANCH   1  18
HETATM   18  C   UNL     1      43.249 -11.997   3.919  1.00  0.00     0.246 C 
HETATM   19  N   UNL     1      43.123 -12.147   5.292  1.00  0.00    -0.324 N 
HETATM   20  H   UNL     1      42.297 -12.652   5.598  1.00  0.00     0.169 HD
HETATM   21  O   UNL     1      43.912 -11.126   3.360  1.00  0.00    -0.271 OA
BRANCH  19  22
HETATM   22  C   UNL     1      43.833 -11.401   6.253  1.00  0.00     0.050 A 
HETATM   23  C   UNL     1      43.248 -10.515   7.175  1.00  0.00     0.058 A 
HETATM   24  C   UNL     1      44.050  -9.872   8.136  1.00  0.00     0.019 A 
HETATM   25  C   UNL     1      45.426 -10.098   8.170  1.00  0.00     0.001 A 
HETATM   26  C   UNL     1      46.014 -10.934   7.226  1.00  0.00     0.002 A 
HETATM   27  C   UNL     1      45.225 -11.570   6.265  1.00  0.00     0.030 A 
BRANCH  23  28
HETATM   28  C   UNL     1      41.851 -10.028   7.033  1.00  0.00     0.254 C 
HETATM   29  N   UNL     1      41.103 -10.043   8.197  1.00  0.00    -0.352 N 
HETATM   30  H   UNL     1      41.446 -10.601   8.969  1.00  0.00     0.163 HD
HETATM   31  O   UNL     1      41.455  -9.595   5.955  1.00  0.00    -0.268 OA
BRANCH  29  32
HETATM   32  C   UNL     1      39.751  -9.583   8.234  1.00  0.00     0.084 A 
HETATM   33  C   UNL     1      39.025  -9.449   9.542  1.00  0.00     0.027 A 
HETATM   34  C   UNL     1      39.421  -8.220   8.778  1.00  0.00     0.027 A 
ENDBRANCH  29  32
ENDBRANCH  23  28
ENDBRANCH  19  22
ENDBRANCH   1  18
TORSDOF 10
ENDMDL
MODEL 10
REMARK VINA RESULT:      -7.5      2.852      8.196
REMARK  10 active torsions:
REMARK  status: ('A' for Active; 'I' for Inactive)
REMARK    1  A    between atoms: C_2  and  O_3 
REMARK    2  A    between atoms: O_3  and  C_4 
REMARK    3  A    between atoms: C_4  and  C_5 
REMARK    4  A    between atoms: C_6  and  C_7 
REMARK    5  A    between atoms: C_7  and  O_8 
REMARK    6  A    between atoms: O_8  and  C_9 
REMARK    7  A    between atoms: C_9  and  C_10 
REMARK       I    between atoms: C_10  and  N_11 
REMARK    8  A    between atoms: N_11  and  C_12 
REMARK    9  A    between atoms: C_13  and  C_14 
REMARK       I    between atoms: C_14  and  N_15 
REMARK   10  A    between atoms: N_15  and  C_16 
ROOT
HETATM    1  C   UNL     1      39.951 -10.998   5.772  1.00  0.00     0.282 C 
ENDROOT
BRANCH   1   2
HETATM    2  O   UNL     1      39.997 -12.429   5.803  1.00  0.00    -0.307 OA
BRANCH   2   3
HETATM    3  C   UNL     1      39.990 -13.083   4.608  1.00  0.00     0.318 C 
HETATM    4  O   UNL     1      39.232 -12.836   3.679  1.00  0.00    -0.257 OA
BRANCH   3   5
HETATM    5  C   UNL     1      40.974 -14.141   4.638  1.00  0.00     0.160 A 
HETATM    6  C   UNL     1      41.110 -15.288   3.865  1.00  0.00     0.018 A 
HETATM    7  C   UNL     1      42.263 -15.971   4.366  1.00  0.00     0.009 A 
HETATM    8  C   UNL     1      42.739 -15.199   5.416  1.00  0.00     0.087 A 
HETATM    9  C   UNL     1      42.956 -17.154   4.043  1.00  0.00     0.015 A 
HETATM   10  O   UNL     1      41.962 -14.100   5.587  1.00  0.00    -0.303 OA
HETATM   11  C   UNL     1      43.858 -15.517   6.183  1.00  0.00     0.038 A 
HETATM   12  C   UNL     1      44.530 -16.696   5.847  1.00  0.00     0.003 A 
HETATM   13  C   UNL     1      44.088 -17.502   4.795  1.00  0.00     0.001 A 
BRANCH   6  14
HETATM   14  C   UNL     1      40.239 -15.688   2.728  1.00  0.00     0.210 C 
BRANCH  14  15
HETATM   15  O   UNL     1      40.941 -15.533   1.495  1.00  0.00    -0.387 OA
BRANCH  15  16
HETATM   16  C   UNL     1      40.572 -14.332   0.825  1.00  0.00     0.163 C 
HETATM   17  C   UNL     1      39.841 -14.701  -0.450  1.00  0.00     0.033 C 
ENDBRANCH  15  16
ENDBRANCH  14  15
ENDBRANCH   6  14
ENDBRANCH   3   5
ENDBRANCH   2   3
ENDBRANCH   1   2
BRANCH   1  18
HETATM   18  C   UNL     1      41.333 -10.404   6.040  1.00  0.00     0.246 C 
HETATM   19  N   UNL     1      42.142 -11.234   6.801  1.00  0.00    -0.324 N 
HETATM   20  H   UNL     1      41.651 -11.936   7.347  1.00  0.00     0.169 HD
HETATM   21  O   UNL     1      41.647  -9.287   5.635  1.00  0.00    -0.271 OA
BRANCH  19  22
HETATM   22  C   UNL     1      43.490 -10.975   7.120  1.00  0.00     0.050 A 
HETATM   23  C   UNL     1      43.922 -10.216   8.222  1.00  0.00     0.058 A 
HETATM   24  C   UNL     1      45.298 -10.079   8.481  1.00  0.00     0.019 A 
HETATM   25  C   UNL     1      46.237 -10.680   7.644  1.00  0.00     0.001 A 
HETATM   26  C   UNL     1      45.812 -11.389   6.523  1.00  0.00     0.002 A 
HETATM   27  C   UNL     1      44.448 -11.524   6.255  1.00  0.00     0.030 A 
BRANCH  23  28
HETATM   28  C   UNL     1      43.003  -9.340   8.994  1.00  0.00     0.254 C 
HETATM   29  N   UNL     1      42.724  -8.119   8.406  1.00  0.00    -0.352 N 
HETATM   30  H   UNL     1      43.336  -7.805   7.663  1.00  0.00     0.163 HD
HETATM   31  O   UNL     1      42.504  -9.741  10.040  1.00  0.00    -0.268 OA
BRANCH  29  32
HETATM   32  C   UNL     1      41.839  -7.174   9.008  1.00  0.00     0.084 A 
HETATM   33  C   UNL     1      42.363  -6.126   9.947  1.00  0.00     0.027 A 
HETATM   34  C   UNL     1      41.863  -5.729   8.589  1.00  0.00     0.027 A 
ENDBRANCH  29  32
ENDBRANCH  23  28
ENDBRANCH  19  22
ENDBRANCH   1  18
TORSDOF 10
ENDMDL
