MODEL 1
REMARK VINA RESULT:      -8.9      0.000      0.000
REMARK  9 active torsions:
REMARK  status: ('A' for Active; 'I' for Inactive)
REMARK    1  A    between atoms: C_4  and  C_5 
REMARK    2  A    between atoms: C_5  and  N_6 
REMARK    3  A    between atoms: C_12  and  N_13 
REMARK       I    between atoms: N_13  and  C_14 
REMARK    4  A    between atoms: N_13  and  C_27 
REMARK    5  A    between atoms: C_14  and  C_15 
REMARK    6  A    between atoms: C_15  and  C_16 
REMARK    7  A    between atoms: C_27  and  C_28 
REMARK    8  A    between atoms: C_28  and  C_29 
REMARK    9  A    between atoms: C_35  and  N_36 
ROOT
HETATM    1  N   UNL     1      40.633 -13.747   0.417  1.00  0.00    -0.310 N 
HETATM    2  C   UNL     1      40.054 -14.330  -0.729  1.00  0.00     0.228 C 
HETATM    3  O   UNL     1      39.371 -15.364  -0.678  1.00  0.00    -0.273 OA
ENDROOT
BRANCH   1   4
HETATM    4  C   UNL     1      40.856 -14.570   1.570  1.00  0.00     0.144 C 
HETATM    5  C   UNL     1      39.849 -14.478   2.691  1.00  0.00     0.279 C 
HETATM    6  N   UNL     1      39.805 -15.530   3.543  1.00  0.00    -0.273 N 
HETATM    7  O   UNL     1      39.105 -13.513   2.850  1.00  0.00    -0.265 OA
HETATM    8  C   UNL     1      40.968 -16.084   3.961  1.00  0.00     0.331 C 
HETATM    9  H   UNL     1      39.133 -15.433   4.291  1.00  0.00     0.173 HD
HETATM   10  N   UNL     1      42.020 -16.034   3.058  1.00  0.00    -0.284 N 
HETATM   11  O   UNL     1      41.034 -16.543   5.099  1.00  0.00    -0.246 OA
HETATM   12  C   UNL     1      41.911 -15.405   1.808  1.00  0.00     0.117 C 
BRANCH  10  13
HETATM   13  C   UNL     1      43.310 -16.527   3.552  1.00  0.00     0.173 C 
BRANCH  13  14
HETATM   14  C   UNL     1      43.534 -18.023   3.524  1.00  0.00    -0.040 A 
HETATM   15  C   UNL     1      43.270 -18.828   2.409  1.00  0.00     0.009 A 
HETATM   16  C   UNL     1      43.480 -20.209   2.464  1.00  0.00     0.001 A 
HETATM   17  C   UNL     1      43.954 -20.803   3.632  1.00  0.00     0.000 A 
HETATM   18  C   UNL     1      44.218 -20.019   4.750  1.00  0.00     0.001 A 
HETATM   19  C   UNL     1      44.009 -18.639   4.697  1.00  0.00     0.009 A 
ENDBRANCH  13  14
ENDBRANCH  10  13
BRANCH  12  20
HETATM   20  N   UNL     1      42.857 -15.669   0.825  1.00  0.00    -0.286 NA
HETATM   21  H   UNL     1      43.495 -14.870   0.720  1.00  0.00     0.125 HD
HETATM   22  H   UNL     1      43.396 -16.513   0.971  1.00  0.00     0.125 HD
ENDBRANCH  12  20
ENDBRANCH   1   4
BRANCH   1  23
HETATM   23  C   UNL     1      41.400 -12.469   0.399  1.00  0.00     0.137 C 
BRANCH  23  24
HETATM   24  C   UNL     1      40.874 -11.187   1.090  1.00  0.00     0.054 C 
BRANCH  24  25
HETATM   25  C   UNL     1      39.551 -10.544   0.754  1.00  0.00    -0.082 C 
HETATM   26  C   UNL     1      39.645  -9.039   0.566  1.00  0.00     0.034 C 
HETATM   27  C   UNL     1      38.395  -8.397  -0.033  1.00  0.00     0.005 C 
HETATM   28  C   UNL     1      37.135  -8.972   0.597  1.00  0.00     0.004 C 
HETATM   29  C   UNL     1      37.066 -10.485   0.388  1.00  0.00     0.027 C 
HETATM   30  C   UNL     1      38.372 -11.183   0.653  1.00  0.00    -0.024 C 
ENDBRANCH  24  25
ENDBRANCH  23  24
ENDBRANCH   1  23
BRANCH   2  31
HETATM   31  C   UNL     1      40.298 -13.698  -2.093  1.00  0.00     0.144 C 
BRANCH  31  32
HETATM   32  C   UNL     1      39.174 -12.807  -2.526  1.00  0.00    -0.021 A 
HETATM   33  C   UNL     1      39.286 -11.420  -2.872  1.00  0.00    -0.001 A 
HETATM   34  C   UNL     1      37.997 -10.946  -3.115  1.00  0.00     0.042 A 
HETATM   35  C   UNL     1      40.365 -10.520  -2.981  1.00  0.00     0.014 A 
HETATM   36  C   UNL     1      37.733  -9.611  -3.446  1.00  0.00     0.030 A 
HETATM   37  N   UNL     1      37.139 -12.009  -2.959  1.00  0.00    -0.365 N 
HETATM   38  C   UNL     1      38.821  -8.738  -3.541  1.00  0.00     0.002 A 
HETATM   39  C   UNL     1      40.121  -9.184  -3.318  1.00  0.00     0.001 A 
HETATM   40  H   UNL     1      36.137 -11.956  -3.079  1.00  0.00     0.165 HD
HETATM   41  C   UNL     1      37.834 -13.132  -2.597  1.00  0.00     0.097 A 
ENDBRANCH  31  32
ENDBRANCH   2  31
TORSDOF 9
ENDMDL
MODEL 2
REMARK VINA RESULT:      -8.7      3.152      4.496
REMARK  9 active torsions:
REMARK  status: ('A' for Active; 'I' for Inactive)
REMARK    1  A    between atoms: C_4  and  C_5 
REMARK    2  A    between atoms: C_5  and  N_6 
REMARK    3  A    between atoms: C_12  and  N_13 
REMARK       I    between atoms: N_13  and  C_14 
REMARK    4  A    between atoms: N_13  and  C_27 
REMARK    5  A    between atoms: C_14  and  C_15 
REMARK    6  A    between atoms: C_15  and  C_16 
REMARK    7  A    between atoms: C_27  and  C_28 
REMARK    8  A    between atoms: C_28  and  C_29 
REMARK    9  A    between atoms: C_35  and  N_36 
ROOT
HETATM    1  N   UNL     1      41.525 -12.963   3.215  1.00  0.00    -0.310 N 
HETATM    2  C   UNL     1      40.652 -13.153   2.123  1.00  0.00     0.228 C 
HETATM    3  O   UNL     1      39.815 -14.067   2.090  1.00  0.00    -0.273 OA
ENDROOT
BRANCH   1   4
HETATM    4  C   UNL     1      41.800 -14.075   4.077  1.00  0.00     0.144 C 
HETATM    5  C   UNL     1      41.112 -14.097   5.421  1.00  0.00     0.279 C 
HETATM    6  N   UNL     1      41.016 -15.305   6.024  1.00  0.00    -0.273 N 
HETATM    7  O   UNL     1      40.662 -13.089   5.963  1.00  0.00    -0.265 OA
HETATM    8  C   UNL     1      42.084 -16.138   5.997  1.00  0.00     0.331 C 
HETATM    9  H   UNL     1      40.565 -15.285   6.928  1.00  0.00     0.173 HD
HETATM   10  N   UNL     1      42.895 -16.044   4.876  1.00  0.00    -0.284 N 
HETATM   11  O   UNL     1      42.290 -16.872   6.961  1.00  0.00    -0.246 OA
HETATM   12  C   UNL     1      42.662 -15.111   3.853  1.00  0.00     0.117 C 
BRANCH  10  13
HETATM   13  C   UNL     1      44.114 -16.859   4.899  1.00  0.00     0.173 C 
BRANCH  13  14
HETATM   14  C   UNL     1      44.018 -18.260   4.334  1.00  0.00    -0.040 A 
HETATM   15  C   UNL     1      43.820 -18.537   2.976  1.00  0.00     0.009 A 
HETATM   16  C   UNL     1      43.719 -19.858   2.528  1.00  0.00     0.001 A 
HETATM   17  C   UNL     1      43.814 -20.916   3.430  1.00  0.00     0.000 A 
HETATM   18  C   UNL     1      44.007 -20.657   4.784  1.00  0.00     0.001 A 
HETATM   19  C   UNL     1      44.109 -19.339   5.232  1.00  0.00     0.009 A 
ENDBRANCH  13  14
ENDBRANCH  10  13
BRANCH  12  20
HETATM   20  N   UNL     1      43.283 -15.279   2.622  1.00  0.00    -0.286 NA
HETATM   21  H   UNL     1      44.165 -15.794   2.735  1.00  0.00     0.125 HD
HETATM   22  H   UNL     1      42.716 -15.732   1.918  1.00  0.00     0.125 HD
ENDBRANCH  12  20
ENDBRANCH   1   4
BRANCH   1  23
HETATM   23  C   UNL     1      42.493 -11.834   3.316  1.00  0.00     0.137 C 
BRANCH  23  24
HETATM   24  C   UNL     1      43.812 -11.954   4.118  1.00  0.00     0.054 C 
BRANCH  24  25
HETATM   25  C   UNL     1      44.012 -11.351   5.486  1.00  0.00    -0.082 C 
HETATM   26  C   UNL     1      45.410 -11.571   6.041  1.00  0.00     0.034 C 
HETATM   27  C   UNL     1      45.729 -10.753   7.291  1.00  0.00     0.005 C 
HETATM   28  C   UNL     1      44.555 -10.760   8.259  1.00  0.00     0.004 C 
HETATM   29  C   UNL     1      43.302 -10.187   7.596  1.00  0.00     0.027 C 
HETATM   30  C   UNL     1      43.075 -10.706   6.202  1.00  0.00    -0.024 C 
ENDBRANCH  24  25
ENDBRANCH  23  24
ENDBRANCH   1  23
BRANCH   2  31
HETATM   31  C   UNL     1      40.755 -12.231   0.915  1.00  0.00     0.144 C 
BRANCH  31  32
HETATM   32  C   UNL     1      39.485 -12.174   0.123  1.00  0.00    -0.021 A 
HETATM   33  C   UNL     1      39.147 -13.017  -0.986  1.00  0.00    -0.001 A 
HETATM   34  C   UNL     1      37.930 -12.566  -1.497  1.00  0.00     0.042 A 
HETATM   35  C   UNL     1      39.776 -14.110  -1.616  1.00  0.00     0.014 A 
HETATM   36  C   UNL     1      37.319 -13.145  -2.617  1.00  0.00     0.030 A 
HETATM   37  N   UNL     1      37.526 -11.514  -0.709  1.00  0.00    -0.365 N 
HETATM   38  C   UNL     1      37.968 -14.224  -3.224  1.00  0.00     0.002 A 
HETATM   39  C   UNL     1      39.177 -14.706  -2.730  1.00  0.00     0.001 A 
HETATM   40  H   UNL     1      36.670 -10.995  -0.846  1.00  0.00     0.165 HD
HETATM   41  C   UNL     1      38.457 -11.264   0.264  1.00  0.00     0.097 A 
ENDBRANCH  31  32
ENDBRANCH   2  31
TORSDOF 9
ENDMDL
MODEL 3
REMARK VINA RESULT:      -8.4      5.826      8.937
REMARK  9 active torsions:
REMARK  status: ('A' for Active; 'I' for Inactive)
REMARK    1  A    between atoms: C_4  and  C_5 
REMARK    2  A    between atoms: C_5  and  N_6 
REMARK    3  A    between atoms: C_12  and  N_13 
REMARK       I    between atoms: N_13  and  C_14 
REMARK    4  A    between atoms: N_13  and  C_27 
REMARK    5  A    between atoms: C_14  and  C_15 
REMARK    6  A    between atoms: C_15  and  C_16 
REMARK    7  A    between atoms: C_27  and  C_28 
REMARK    8  A    between atoms: C_28  and  C_29 
REMARK    9  A    between atoms: C_35  and  N_36 
ROOT
HETATM    1  N   UNL     1      40.871 -11.169   5.423  1.00  0.00    -0.310 N 
HETATM    2  C   UNL     1      42.163 -11.677   5.666  1.00  0.00     0.228 C 
HETATM    3  O   UNL     1      42.738 -11.544   6.756  1.00  0.00    -0.273 OA
ENDROOT
BRANCH   1   4
HETATM    4  C   UNL     1      40.389 -10.093   6.240  1.00  0.00     0.144 C 
HETATM    5  C   UNL     1      40.776  -8.691   5.838  1.00  0.00     0.279 C 
HETATM    6  N   UNL     1      39.993  -7.695   6.313  1.00  0.00    -0.273 N 
HETATM    7  O   UNL     1      41.747  -8.438   5.128  1.00  0.00    -0.265 OA
HETATM    8  C   UNL     1      39.574  -7.747   7.601  1.00  0.00     0.331 C 
HETATM    9  H   UNL     1      40.286  -6.767   6.040  1.00  0.00     0.173 HD
HETATM   10  N   UNL     1      39.382  -9.018   8.122  1.00  0.00    -0.284 N 
HETATM   11  O   UNL     1      39.438  -6.698   8.225  1.00  0.00    -0.246 OA
HETATM   12  C   UNL     1      39.652 -10.183   7.386  1.00  0.00     0.117 C 
BRANCH  10  13
HETATM   13  C   UNL     1      39.043  -9.079   9.547  1.00  0.00     0.173 C 
BRANCH  13  14
HETATM   14  C   UNL     1      40.172  -9.358  10.515  1.00  0.00    -0.040 A 
HETATM   15  C   UNL     1      41.527  -9.233  10.184  1.00  0.00     0.009 A 
HETATM   16  C   UNL     1      42.518  -9.531  11.126  1.00  0.00     0.001 A 
HETATM   17  C   UNL     1      42.168  -9.957  12.405  1.00  0.00     0.000 A 
HETATM   18  C   UNL     1      40.826 -10.090  12.748  1.00  0.00     0.001 A 
HETATM   19  C   UNL     1      39.836  -9.793  11.810  1.00  0.00     0.009 A 
ENDBRANCH  13  14
ENDBRANCH  10  13
BRANCH  12  20
HETATM   20  N   UNL     1      39.135 -11.398   7.819  1.00  0.00    -0.286 NA
HETATM   21  H   UNL     1      38.170 -11.278   8.151  1.00  0.00     0.125 HD
HETATM   22  H   UNL     1      39.165 -12.140   7.132  1.00  0.00     0.125 HD
ENDBRANCH  12  20
ENDBRANCH   1   4
BRANCH   1  23
HETATM   23  C   UNL     1      40.127 -11.372   4.147  1.00  0.00     0.137 C 
BRANCH  23  24
HETATM   24  C   UNL     1      39.387 -12.695   3.830  1.00  0.00     0.054 C 
BRANCH  24  25
HETATM   25  C   UNL     1      39.711 -13.566   2.642  1.00  0.00    -0.082 C 
HETATM   26  C   UNL     1      40.096 -12.773   1.403  1.00  0.00     0.034 C 
HETATM   27  C   UNL     1      40.684 -13.614   0.272  1.00  0.00     0.005 C 
HETATM   28  C   UNL     1      39.902 -14.907   0.093  1.00  0.00     0.004 C 
HETATM   29  C   UNL     1      39.911 -15.730   1.382  1.00  0.00     0.027 C 
HETATM   30  C   UNL     1      39.650 -14.909   2.615  1.00  0.00    -0.024 C 
ENDBRANCH  24  25
ENDBRANCH  23  24
ENDBRANCH   1  23
BRANCH   2  31
HETATM   31  C   UNL     1      42.912 -12.385   4.544  1.00  0.00     0.144 C 
BRANCH  31  32
HETATM   32  C   UNL     1      42.850 -13.877   4.661  1.00  0.00    -0.021 A 
HETATM   33  C   UNL     1      43.059 -14.813   3.595  1.00  0.00    -0.001 A 
HETATM   34  C   UNL     1      42.811 -16.088   4.106  1.00  0.00     0.042 A 
HETATM   35  C   UNL     1      43.415 -14.692   2.237  1.00  0.00     0.014 A 
HETATM   36  C   UNL     1      42.887 -17.245   3.320  1.00  0.00     0.030 A 
HETATM   37  N   UNL     1      42.500 -15.936   5.437  1.00  0.00    -0.365 N 
HETATM   38  C   UNL     1      43.237 -17.094   1.975  1.00  0.00     0.002 A 
HETATM   39  C   UNL     1      43.504 -15.837   1.439  1.00  0.00     0.001 A 
HETATM   40  H   UNL     1      42.278 -16.699   6.061  1.00  0.00     0.165 HD
HETATM   41  C   UNL     1      42.512 -14.611   5.780  1.00  0.00     0.097 A 
ENDBRANCH  31  32
ENDBRANCH   2  31
TORSDOF 9
ENDMDL
MODEL 4
REMARK VINA RESULT:      -8.4      5.881      9.892
REMARK  9 active torsions:
REMARK  status: ('A' for Active; 'I' for Inactive)
REMARK    1  A    between atoms: C_4  and  C_5 
REMARK    2  A    between atoms: C_5  and  N_6 
REMARK    3  A    between atoms: C_12  and  N_13 
REMARK       I    between atoms: N_13  and  C_14 
REMARK    4  A    between atoms: N_13  and  C_27 
REMARK    5  A    between atoms: C_14  and  C_15 
REMARK    6  A    between atoms: C_15  and  C_16 
REMARK    7  A    between atoms: C_27  and  C_28 
REMARK    8  A    between atoms: C_28  and  C_29 
REMARK    9  A    between atoms: C_35  and  N_36 
ROOT
HETATM    1  N   UNL     1      42.120 -12.818   5.792  1.00  0.00    -0.310 N 
HETATM    2  C   UNL     1      41.315 -13.854   5.276  1.00  0.00     0.228 C 
HETATM    3  O   UNL     1      40.609 -13.711   4.267  1.00  0.00    -0.273 OA
ENDROOT
BRANCH   1   4
HETATM    4  C   UNL     1      41.787 -11.461   5.467  1.00  0.00     0.144 C 
HETATM    5  C   UNL     1      42.600 -10.787   4.389  1.00  0.00     0.279 C 
HETATM    6  N   UNL     1      42.028  -9.717   3.789  1.00  0.00    -0.273 N 
HETATM    7  O   UNL     1      43.723 -11.163   4.059  1.00  0.00    -0.265 OA
HETATM    8  C   UNL     1      41.366  -8.814   4.553  1.00  0.00     0.331 C 
HETATM    9  H   UNL     1      42.602  -9.277   3.084  1.00  0.00     0.173 HD
HETATM   10  N   UNL     1      40.749  -9.320   5.688  1.00  0.00    -0.284 N 
HETATM   11  O   UNL     1      41.391  -7.629   4.230  1.00  0.00    -0.246 OA
HETATM   12  C   UNL     1      40.842 -10.671   6.057  1.00  0.00     0.117 C 
BRANCH  10  13
HETATM   13  C   UNL     1      40.133  -8.328   6.575  1.00  0.00     0.173 C 
BRANCH  13  14
HETATM   14  C   UNL     1      40.963  -7.830   7.737  1.00  0.00    -0.040 A 
HETATM   15  C   UNL     1      41.974  -6.869   7.614  1.00  0.00     0.009 A 
HETATM   16  C   UNL     1      42.717  -6.473   8.730  1.00  0.00     0.001 A 
HETATM   17  C   UNL     1      42.461  -7.031   9.980  1.00  0.00     0.000 A 
HETATM   18  C   UNL     1      41.463  -7.991  10.120  1.00  0.00     0.001 A 
HETATM   19  C   UNL     1      40.720  -8.386   9.007  1.00  0.00     0.009 A 
ENDBRANCH  13  14
ENDBRANCH  10  13
BRANCH  12  20
HETATM   20  N   UNL     1      39.950 -11.186   6.990  1.00  0.00    -0.286 NA
HETATM   21  H   UNL     1      40.162 -10.821   7.926  1.00  0.00     0.125 HD
HETATM   22  H   UNL     1      38.974 -11.024   6.778  1.00  0.00     0.125 HD
ENDBRANCH  12  20
ENDBRANCH   1   4
BRANCH   1  23
HETATM   23  C   UNL     1      43.032 -12.979   6.960  1.00  0.00     0.137 C 
BRANCH  23  24
HETATM   24  C   UNL     1      44.520 -12.556   6.904  1.00  0.00     0.054 C 
BRANCH  24  25
HETATM   25  C   UNL     1      45.057 -11.311   7.567  1.00  0.00    -0.082 C 
HETATM   26  C   UNL     1      44.147 -10.772   8.658  1.00  0.00     0.034 C 
HETATM   27  C   UNL     1      44.776  -9.683   9.525  1.00  0.00     0.005 C 
HETATM   28  C   UNL     1      45.553  -8.692   8.673  1.00  0.00     0.004 C 
HETATM   29  C   UNL     1      46.656  -9.400   7.886  1.00  0.00     0.027 C 
HETATM   30  C   UNL     1      46.200 -10.682   7.243  1.00  0.00    -0.024 C 
ENDBRANCH  24  25
ENDBRANCH  23  24
ENDBRANCH   1  23
BRANCH   2  31
HETATM   31  C   UNL     1      41.272 -15.196   5.997  1.00  0.00     0.144 C 
BRANCH  31  32
HETATM   32  C   UNL     1      42.416 -16.089   5.624  1.00  0.00    -0.021 A 
HETATM   33  C   UNL     1      42.573 -16.778   4.377  1.00  0.00    -0.001 A 
HETATM   34  C   UNL     1      43.713 -17.575   4.481  1.00  0.00     0.042 A 
HETATM   35  C   UNL     1      41.837 -16.813   3.175  1.00  0.00     0.014 A 
HETATM   36  C   UNL     1      44.144 -18.416   3.448  1.00  0.00     0.030 A 
HETATM   37  N   UNL     1      44.248 -17.352   5.728  1.00  0.00    -0.365 N 
HETATM   38  C   UNL     1      43.391 -18.436   2.270  1.00  0.00     0.002 A 
HETATM   39  C   UNL     1      42.256 -17.642   2.130  1.00  0.00     0.001 A 
HETATM   40  H   UNL     1      45.086 -17.796   6.076  1.00  0.00     0.165 HD
HETATM   41  C   UNL     1      43.473 -16.466   6.427  1.00  0.00     0.097 A 
ENDBRANCH  31  32
ENDBRANCH   2  31
TORSDOF 9
ENDMDL
MODEL 5
REMARK VINA RESULT:      -8.1      6.495      9.016
REMARK  9 active torsions:
REMARK  status: ('A' for Active; 'I' for Inactive)
REMARK    1  A    between atoms: C_4  and  C_5 
REMARK    2  A    between atoms: C_5  and  N_6 
REMARK    3  A    between atoms: C_12  and  N_13 
REMARK       I    between atoms: N_13  and  C_14 
REMARK    4  A    between atoms: N_13  and  C_27 
REMARK    5  A    between atoms: C_14  and  C_15 
REMARK    6  A    between atoms: C_15  and  C_16 
REMARK    7  A    between atoms: C_27  and  C_28 
REMARK    8  A    between atoms: C_28  and  C_29 
REMARK    9  A    between atoms: C_35  and  N_36 
ROOT
HETATM    1  N   UNL     1      40.766 -10.983   6.170  1.00  0.00    -0.310 N 
HETATM    2  C   UNL     1      39.538 -10.617   6.757  1.00  0.00     0.228 C 
HETATM    3  O   UNL     1      38.545 -11.359   6.743  1.00  0.00    -0.273 OA
ENDROOT
BRANCH   1   4
HETATM    4  C   UNL     1      40.767 -11.986   5.145  1.00  0.00     0.144 C 
HETATM    5  C   UNL     1      40.365 -11.556   3.755  1.00  0.00     0.279 C 
HETATM    6  N   UNL     1      40.780 -12.350   2.740  1.00  0.00    -0.273 N 
HETATM    7  O   UNL     1      39.694 -10.551   3.529  1.00  0.00    -0.265 OA
HETATM    8  C   UNL     1      40.705 -13.695   2.888  1.00  0.00     0.331 C 
HETATM    9  H   UNL     1      40.483 -12.046   1.824  1.00  0.00     0.173 HD
HETATM   10  N   UNL     1      40.865 -14.171   4.181  1.00  0.00    -0.284 N 
HETATM   11  O   UNL     1      40.460 -14.389   1.903  1.00  0.00    -0.246 OA
HETATM   12  C   UNL     1      41.042 -13.317   5.281  1.00  0.00     0.117 C 
BRANCH  10  13
HETATM   13  C   UNL     1      40.669 -15.612   4.360  1.00  0.00     0.173 C 
BRANCH  13  14
HETATM   14  C   UNL     1      41.863 -16.508   4.114  1.00  0.00    -0.040 A 
HETATM   15  C   UNL     1      42.838 -16.784   5.080  1.00  0.00     0.009 A 
HETATM   16  C   UNL     1      43.928 -17.605   4.774  1.00  0.00     0.001 A 
HETATM   17  C   UNL     1      44.058 -18.158   3.502  1.00  0.00     0.000 A 
HETATM   18  C   UNL     1      43.100 -17.891   2.529  1.00  0.00     0.001 A 
HETATM   19  C   UNL     1      42.010 -17.072   2.834  1.00  0.00     0.009 A 
ENDBRANCH  13  14
ENDBRANCH  10  13
BRANCH  12  20
HETATM   20  N   UNL     1      41.527 -13.835   6.476  1.00  0.00    -0.286 NA
HETATM   21  H   UNL     1      42.158 -14.625   6.292  1.00  0.00     0.125 HD
HETATM   22  H   UNL     1      41.992 -13.163   7.072  1.00  0.00     0.125 HD
ENDBRANCH  12  20
ENDBRANCH   1   4
BRANCH   1  23
HETATM   23  C   UNL     1      41.996 -10.143   6.230  1.00  0.00     0.137 C 
BRANCH  23  24
HETATM   24  C   UNL     1      43.349 -10.705   6.732  1.00  0.00     0.054 C 
BRANCH  24  25
HETATM   25  C   UNL     1      43.954 -10.350   8.068  1.00  0.00    -0.082 C 
HETATM   26  C   UNL     1      45.134  -9.399   7.959  1.00  0.00     0.034 C 
HETATM   27  C   UNL     1      45.597  -8.811   9.290  1.00  0.00     0.005 C 
HETATM   28  C   UNL     1      45.622  -9.877  10.375  1.00  0.00     0.004 C 
HETATM   29  C   UNL     1      44.237 -10.497  10.559  1.00  0.00     0.027 C 
HETATM   30  C   UNL     1      43.553 -10.824   9.260  1.00  0.00    -0.024 C 
ENDBRANCH  24  25
ENDBRANCH  23  24
ENDBRANCH   1  23
BRANCH   2  31
HETATM   31  C   UNL     1      39.398  -9.245   7.403  1.00  0.00     0.144 C 
BRANCH  31  32
HETATM   32  C   UNL     1      39.713  -9.261   8.868  1.00  0.00    -0.021 A 
HETATM   33  C   UNL     1      40.737  -8.496   9.517  1.00  0.00    -0.001 A 
HETATM   34  C   UNL     1      40.761  -8.882  10.856  1.00  0.00     0.042 A 
HETATM   35  C   UNL     1      41.660  -7.523   9.081  1.00  0.00     0.014 A 
HETATM   36  C   UNL     1      41.674  -8.355  11.779  1.00  0.00     0.030 A 
HETATM   37  N   UNL     1      39.769  -9.819  11.025  1.00  0.00    -0.365 N 
HETATM   38  C   UNL     1      42.581  -7.396  11.318  1.00  0.00     0.002 A 
HETATM   39  C   UNL     1      42.573  -6.979   9.990  1.00  0.00     0.001 A 
HETATM   40  H   UNL     1      39.555 -10.272  11.902  1.00  0.00     0.165 HD
HETATM   41  C   UNL     1      39.137 -10.062   9.835  1.00  0.00     0.097 A 
ENDBRANCH  31  32
ENDBRANCH   2  31
TORSDOF 9
ENDMDL
MODEL 6
REMARK VINA RESULT:      -8.1      6.016      8.639
REMARK  9 active torsions:
REMARK  status: ('A' for Active; 'I' for Inactive)
REMARK    1  A    between atoms: C_4  and  C_5 
REMARK    2  A    between atoms: C_5  and  N_6 
REMARK    3  A    between atoms: C_12  and  N_13 
REMARK       I    between atoms: N_13  and  C_14 
REMARK    4  A    between atoms: N_13  and  C_27 
REMARK    5  A    between atoms: C_14  and  C_15 
REMARK    6  A    between atoms: C_15  and  C_16 
REMARK    7  A    between atoms: C_27  and  C_28 
REMARK    8  A    between atoms: C_28  and  C_29 
REMARK    9  A    between atoms: C_35  and  N_36 
ROOT
HETATM    1  N   UNL     1      42.652 -12.115   5.371  1.00  0.00    -0.310 N 
HETATM    2  C   UNL     1      43.538 -12.036   4.277  1.00  0.00     0.228 C 
HETATM    3  O   UNL     1      44.501 -11.255   4.256  1.00  0.00    -0.273 OA
ENDROOT
BRANCH   1   4
HETATM    4  C   UNL     1      42.548 -10.991   6.256  1.00  0.00     0.144 C 
HETATM    5  C   UNL     1      41.733  -9.811   5.785  1.00  0.00     0.279 C 
HETATM    6  N   UNL     1      41.277  -8.977   6.748  1.00  0.00    -0.273 N 
HETATM    7  O   UNL     1      41.490  -9.591   4.600  1.00  0.00    -0.265 OA
HETATM    8  C   UNL     1      42.103  -8.638   7.768  1.00  0.00     0.331 C 
HETATM    9  H   UNL     1      40.749  -8.189   6.401  1.00  0.00     0.173 HD
HETATM   10  N   UNL     1      43.030  -9.601   8.139  1.00  0.00    -0.284 N 
HETATM   11  O   UNL     1      42.015  -7.514   8.256  1.00  0.00    -0.246 OA
HETATM   12  C   UNL     1      43.146 -10.831   7.474  1.00  0.00     0.117 C 
BRANCH  10  13
HETATM   13  C   UNL     1      43.999  -9.193   9.161  1.00  0.00     0.173 C 
BRANCH  13  14
HETATM   14  C   UNL     1      43.542  -9.236  10.603  1.00  0.00    -0.040 A 
HETATM   15  C   UNL     1      43.145 -10.409  11.257  1.00  0.00     0.009 A 
HETATM   16  C   UNL     1      42.713 -10.369  12.587  1.00  0.00     0.001 A 
HETATM   17  C   UNL     1      42.671  -9.160  13.277  1.00  0.00     0.000 A 
HETATM   18  C   UNL     1      43.058  -7.984  12.640  1.00  0.00     0.001 A 
HETATM   19  C   UNL     1      43.490  -8.023  11.314  1.00  0.00     0.009 A 
ENDBRANCH  13  14
ENDBRANCH  10  13
BRANCH  12  20
HETATM   20  N   UNL     1      43.838 -11.872   8.080  1.00  0.00    -0.286 NA
HETATM   21  H   UNL     1      44.746 -11.541   8.430  1.00  0.00     0.125 HD
HETATM   22  H   UNL     1      43.338 -12.336   8.827  1.00  0.00     0.125 HD
ENDBRANCH  12  20
ENDBRANCH   1   4
BRANCH   1  23
HETATM   23  C   UNL     1      41.527 -13.090   5.457  1.00  0.00     0.137 C 
BRANCH  23  24
HETATM   24  C   UNL     1      41.708 -14.499   6.073  1.00  0.00     0.054 C 
BRANCH  24  25
HETATM   25  C   UNL     1      42.538 -15.585   5.434  1.00  0.00    -0.082 C 
HETATM   26  C   UNL     1      41.896 -16.179   4.191  1.00  0.00     0.034 C 
HETATM   27  C   UNL     1      42.817 -17.082   3.373  1.00  0.00     0.005 C 
HETATM   28  C   UNL     1      43.625 -17.997   4.280  1.00  0.00     0.004 C 
HETATM   29  C   UNL     1      44.469 -17.183   5.261  1.00  0.00     0.027 C 
HETATM   30  C   UNL     1      43.715 -16.045   5.893  1.00  0.00    -0.024 C 
ENDBRANCH  24  25
ENDBRANCH  23  24
ENDBRANCH   1  23
BRANCH   2  31
HETATM   31  C   UNL     1      43.294 -12.908   3.053  1.00  0.00     0.144 C 
BRANCH  31  32
HETATM   32  C   UNL     1      42.271 -12.327   2.125  1.00  0.00    -0.021 A 
HETATM   33  C   UNL     1      41.380 -13.071   1.284  1.00  0.00    -0.001 A 
HETATM   34  C   UNL     1      40.670 -12.151   0.512  1.00  0.00     0.042 A 
HETATM   35  C   UNL     1      41.126 -14.444   1.094  1.00  0.00     0.014 A 
HETATM   36  C   UNL     1      39.730 -12.539  -0.451  1.00  0.00     0.030 A 
HETATM   37  N   UNL     1      41.086 -10.897   0.893  1.00  0.00    -0.365 N 
HETATM   38  C   UNL     1      39.504 -13.908  -0.623  1.00  0.00     0.002 A 
HETATM   39  C   UNL     1      40.186 -14.850   0.142  1.00  0.00     0.001 A 
HETATM   40  H   UNL     1      40.734 -10.035   0.500  1.00  0.00     0.165 HD
HETATM   41  C   UNL     1      42.055 -10.990   1.857  1.00  0.00     0.097 A 
ENDBRANCH  31  32
ENDBRANCH   2  31
TORSDOF 9
ENDMDL
MODEL 7
REMARK VINA RESULT:      -8.0      4.800      9.427
REMARK  9 active torsions:
REMARK  status: ('A' for Active; 'I' for Inactive)
REMARK    1  A    between atoms: C_4  and  C_5 
REMARK    2  A    between atoms: C_5  and  N_6 
REMARK    3  A    between atoms: C_12  and  N_13 
REMARK       I    between atoms: N_13  and  C_14 
REMARK    4  A    between atoms: N_13  and  C_27 
REMARK    5  A    between atoms: C_14  and  C_15 
REMARK    6  A    between atoms: C_15  and  C_16 
REMARK    7  A    between atoms: C_27  and  C_28 
REMARK    8  A    between atoms: C_28  and  C_29 
REMARK    9  A    between atoms: C_35  and  N_36 
ROOT
HETATM    1  N   UNL     1      41.884 -12.634   5.126  1.00  0.00    -0.310 N 
HETATM    2  C   UNL     1      42.846 -11.838   5.781  1.00  0.00     0.228 C 
HETATM    3  O   UNL     1      42.702 -10.618   5.944  1.00  0.00    -0.273 OA
ENDROOT
BRANCH   1   4
HETATM    4  C   UNL     1      40.966 -12.002   4.224  1.00  0.00     0.144 C 
HETATM    5  C   UNL     1      39.531 -11.871   4.676  1.00  0.00     0.279 C 
HETATM    6  N   UNL     1      38.794 -10.920   4.057  1.00  0.00    -0.273 N 
HETATM    7  O   UNL     1      39.033 -12.580   5.548  1.00  0.00    -0.265 OA
HETATM    8  C   UNL     1      38.910 -10.770   2.715  1.00  0.00     0.331 C 
HETATM    9  H   UNL     1      37.835 -10.867   4.369  1.00  0.00     0.173 HD
HETATM   10  N   UNL     1      40.155 -11.065   2.180  1.00  0.00    -0.284 N 
HETATM   11  O   UNL     1      37.922 -10.436   2.066  1.00  0.00    -0.246 OA
HETATM   12  C   UNL     1      41.219 -11.540   2.964  1.00  0.00     0.117 C 
BRANCH  10  13
HETATM   13  C   UNL     1      40.250 -11.016   0.718  1.00  0.00     0.173 C 
BRANCH  13  14
HETATM   14  C   UNL     1      39.872 -12.270  -0.041  1.00  0.00    -0.040 A 
HETATM   15  C   UNL     1      40.485 -13.513   0.159  1.00  0.00     0.009 A 
HETATM   16  C   UNL     1      40.098 -14.625  -0.596  1.00  0.00     0.001 A 
HETATM   17  C   UNL     1      39.099 -14.508  -1.560  1.00  0.00     0.000 A 
HETATM   18  C   UNL     1      38.483 -13.278  -1.775  1.00  0.00     0.001 A 
HETATM   19  C   UNL     1      38.867 -12.168  -1.021  1.00  0.00     0.009 A 
ENDBRANCH  13  14
ENDBRANCH  10  13
BRANCH  12  20
HETATM   20  N   UNL     1      42.512 -11.498   2.457  1.00  0.00    -0.286 NA
HETATM   21  H   UNL     1      42.543 -10.923   1.606  1.00  0.00     0.125 HD
HETATM   22  H   UNL     1      43.213 -11.174   3.110  1.00  0.00     0.125 HD
ENDBRANCH  12  20
ENDBRANCH   1   4
BRANCH   1  23
HETATM   23  C   UNL     1      41.996 -14.114   4.975  1.00  0.00     0.137 C 
BRANCH  23  24
HETATM   24  C   UNL     1      42.306 -14.778   3.612  1.00  0.00     0.054 C 
BRANCH  24  25
HETATM   25  C   UNL     1      42.770 -16.206   3.468  1.00  0.00    -0.082 C 
HETATM   26  C   UNL     1      43.652 -16.669   4.617  1.00  0.00     0.034 C 
HETATM   27  C   UNL     1      43.916 -18.174   4.643  1.00  0.00     0.005 C 
HETATM   28  C   UNL     1      44.210 -18.698   3.245  1.00  0.00     0.004 C 
HETATM   29  C   UNL     1      43.040 -18.415   2.303  1.00  0.00     0.027 C 
HETATM   30  C   UNL     1      42.492 -17.020   2.435  1.00  0.00    -0.024 C 
ENDBRANCH  24  25
ENDBRANCH  23  24
ENDBRANCH   1  23
BRANCH   2  31
HETATM   31  C   UNL     1      44.134 -12.481   6.280  1.00  0.00     0.144 C 
BRANCH  31  32
HETATM   32  C   UNL     1      45.012 -11.517   7.017  1.00  0.00    -0.021 A 
HETATM   33  C   UNL     1      44.728 -10.925   8.291  1.00  0.00    -0.001 A 
HETATM   34  C   UNL     1      45.749 -10.016   8.566  1.00  0.00     0.042 A 
HETATM   35  C   UNL     1      43.684 -11.066   9.228  1.00  0.00     0.014 A 
HETATM   36  C   UNL     1      45.769  -9.229   9.724  1.00  0.00     0.030 A 
HETATM   37  N   UNL     1      46.638 -10.078   7.518  1.00  0.00    -0.365 N 
HETATM   38  C   UNL     1      44.718  -9.384  10.632  1.00  0.00     0.002 A 
HETATM   39  C   UNL     1      43.691 -10.293  10.394  1.00  0.00     0.001 A 
HETATM   40  H   UNL     1      47.482  -9.525   7.453  1.00  0.00     0.165 HD
HETATM   41  C   UNL     1      46.201 -10.970   6.577  1.00  0.00     0.097 A 
ENDBRANCH  31  32
ENDBRANCH   2  31
TORSDOF 9
ENDMDL
MODEL 8
REMARK VINA RESULT:      -7.9      2.136      3.148
REMARK  9 active torsions:
REMARK  status: ('A' for Active; 'I' for Inactive)
REMARK    1  A    between atoms: C_4  and  C_5 
REMARK    2  A    between atoms: C_5  and  N_6 
REMARK    3  A    between atoms: C_12  and  N_13 
REMARK       I    between atoms: N_13  and  C_14 
REMARK    4  A    between atoms: N_13  and  C_27 
REMARK    5  A    between atoms: C_14  and  C_15 
REMARK    6  A    between atoms: C_15  and  C_16 
REMARK    7  A    between atoms: C_27  and  C_28 
REMARK    8  A    between atoms: C_28  and  C_29 
REMARK    9  A    between atoms: C_35  and  N_36 
ROOT
HETATM    1  N   UNL     1      41.014 -13.332   1.357  1.00  0.00    -0.310 N 
HETATM    2  C   UNL     1      40.467 -13.753   0.128  1.00  0.00     0.228 C 
HETATM    3  O   UNL     1      39.807 -14.797   0.016  1.00  0.00    -0.273 OA
ENDROOT
BRANCH   1   4
HETATM    4  C   UNL     1      41.236 -14.309   2.383  1.00  0.00     0.144 C 
HETATM    5  C   UNL     1      40.298 -14.295   3.566  1.00  0.00     0.279 C 
HETATM    6  N   UNL     1      40.221 -15.442   4.281  1.00  0.00    -0.273 N 
HETATM    7  O   UNL     1      39.635 -13.312   3.888  1.00  0.00    -0.265 OA
HETATM    8  C   UNL     1      41.362 -16.120   4.556  1.00  0.00     0.331 C 
HETATM    9  H   UNL     1      39.598 -15.398   5.075  1.00  0.00     0.173 HD
HETATM   10  N   UNL     1      42.367 -16.023   3.605  1.00  0.00    -0.284 N 
HETATM   11  O   UNL     1      41.452 -16.724   5.623  1.00  0.00    -0.246 OA
HETATM   12  C   UNL     1      42.238 -15.234   2.452  1.00  0.00     0.117 C 
BRANCH  10  13
HETATM   13  C   UNL     1      43.640 -16.659   3.955  1.00  0.00     0.173 C 
BRANCH  13  14
HETATM   14  C   UNL     1      43.714 -18.167   3.845  1.00  0.00    -0.040 A 
HETATM   15  C   UNL     1      44.080 -19.006   4.905  1.00  0.00     0.009 A 
HETATM   16  C   UNL     1      44.147 -20.390   4.723  1.00  0.00     0.001 A 
HETATM   17  C   UNL     1      43.852 -20.953   3.483  1.00  0.00     0.000 A 
HETATM   18  C   UNL     1      43.491 -20.133   2.418  1.00  0.00     0.001 A 
HETATM   19  C   UNL     1      43.422 -18.750   2.599  1.00  0.00     0.009 A 
ENDBRANCH  13  14
ENDBRANCH  10  13
BRANCH  12  20
HETATM   20  N   UNL     1      43.111 -15.431   1.389  1.00  0.00    -0.286 NA
HETATM   21  H   UNL     1      42.932 -16.341   0.945  1.00  0.00     0.125 HD
HETATM   22  H   UNL     1      43.096 -14.704   0.686  1.00  0.00     0.125 HD
ENDBRANCH  12  20
ENDBRANCH   1   4
BRANCH   1  23
HETATM   23  C   UNL     1      41.753 -12.049   1.539  1.00  0.00     0.137 C 
BRANCH  23  24
HETATM   24  C   UNL     1      42.831 -11.873   2.636  1.00  0.00     0.054 C 
BRANCH  24  25
HETATM   25  C   UNL     1      42.567 -11.198   3.960  1.00  0.00    -0.082 C 
HETATM   26  C   UNL     1      43.031 -12.016   5.154  1.00  0.00     0.034 C 
HETATM   27  C   UNL     1      43.027 -11.258   6.480  1.00  0.00     0.005 C 
HETATM   28  C   UNL     1      41.766 -10.419   6.621  1.00  0.00     0.004 C 
HETATM   29  C   UNL     1      41.651  -9.415   5.474  1.00  0.00     0.027 C 
HETATM   30  C   UNL     1      41.957 -10.012   4.127  1.00  0.00    -0.024 C 
ENDBRANCH  24  25
ENDBRANCH  23  24
ENDBRANCH   1  23
BRANCH   2  31
HETATM   31  C   UNL     1      40.720 -12.927  -1.126  1.00  0.00     0.144 C 
BRANCH  31  32
HETATM   32  C   UNL     1      39.453 -12.447  -1.766  1.00  0.00    -0.021 A 
HETATM   33  C   UNL     1      38.583 -11.430  -1.253  1.00  0.00    -0.001 A 
HETATM   34  C   UNL     1      37.474 -11.365  -2.096  1.00  0.00     0.042 A 
HETATM   35  C   UNL     1      38.628 -10.573  -0.134  1.00  0.00     0.014 A 
HETATM   36  C   UNL     1      36.401 -10.495  -1.867  1.00  0.00     0.030 A 
HETATM   37  N   UNL     1      37.678 -12.279  -3.102  1.00  0.00    -0.365 N 
HETATM   38  C   UNL     1      36.469  -9.660  -0.747  1.00  0.00     0.002 A 
HETATM   39  C   UNL     1      37.568  -9.693   0.106  1.00  0.00     0.001 A 
HETATM   40  H   UNL     1      37.032 -12.444  -3.863  1.00  0.00     0.165 HD
HETATM   41  C   UNL     1      38.860 -12.942  -2.911  1.00  0.00     0.097 A 
ENDBRANCH  31  32
ENDBRANCH   2  31
TORSDOF 9
ENDMDL
MODEL 9
REMARK VINA RESULT:      -7.8      4.420      7.100
REMARK  9 active torsions:
REMARK  status: ('A' for Active; 'I' for Inactive)
REMARK    1  A    between atoms: C_4  and  C_5 
REMARK    2  A    between atoms: C_5  and  N_6 
REMARK    3  A    between atoms: C_12  and  N_13 
REMARK       I    between atoms: N_13  and  C_14 
REMARK    4  A    between atoms: N_13  and  C_27 
REMARK    5  A    between atoms: C_14  and  C_15 
REMARK    6  A    between atoms: C_15  and  C_16 
REMARK    7  A    between atoms: C_27  and  C_28 
REMARK    8  A    between atoms: C_28  and  C_29 
REMARK    9  A    between atoms: C_35  and  N_36 
ROOT
HETATM    1  N   UNL     1      41.733 -12.499   3.134  1.00  0.00    -0.310 N 
HETATM    2  C   UNL     1      40.915 -11.377   2.890  1.00  0.00     0.228 C 
HETATM    3  O   UNL     1      41.042 -10.312   3.512  1.00  0.00    -0.273 OA
ENDROOT
BRANCH   1   4
HETATM    4  C   UNL     1      42.393 -12.607   4.403  1.00  0.00     0.144 C 
HETATM    5  C   UNL     1      41.641 -13.292   5.519  1.00  0.00     0.279 C 
HETATM    6  N   UNL     1      42.391 -13.778   6.535  1.00  0.00    -0.273 N 
HETATM    7  O   UNL     1      40.418 -13.409   5.533  1.00  0.00    -0.265 OA
HETATM    8  C   UNL     1      43.416 -13.028   7.010  1.00  0.00     0.331 C 
HETATM    9  H   UNL     1      41.860 -14.216   7.274  1.00  0.00     0.173 HD
HETATM   10  N   UNL     1      44.044 -12.208   6.084  1.00  0.00    -0.284 N 
HETATM   11  O   UNL     1      43.689 -13.084   8.207  1.00  0.00    -0.246 OA
HETATM   12  C   UNL     1      43.619 -12.115   4.750  1.00  0.00     0.117 C 
BRANCH  10  13
HETATM   13  C   UNL     1      45.073 -11.312   6.620  1.00  0.00     0.173 C 
BRANCH  13  14
HETATM   14  C   UNL     1      44.644 -10.323   7.682  1.00  0.00    -0.040 A 
HETATM   15  C   UNL     1      43.491  -9.534   7.587  1.00  0.00     0.009 A 
HETATM   16  C   UNL     1      43.169  -8.623   8.599  1.00  0.00     0.001 A 
HETATM   17  C   UNL     1      43.994  -8.489   9.714  1.00  0.00     0.000 A 
HETATM   18  C   UNL     1      45.146  -9.263   9.821  1.00  0.00     0.001 A 
HETATM   19  C   UNL     1      45.468 -10.172   8.812  1.00  0.00     0.009 A 
ENDBRANCH  13  14
ENDBRANCH  10  13
BRANCH  12  20
HETATM   20  N   UNL     1      44.466 -11.555   3.801  1.00  0.00    -0.286 NA
HETATM   21  H   UNL     1      43.950 -10.892   3.209  1.00  0.00     0.125 HD
HETATM   22  H   UNL     1      45.286 -11.100   4.180  1.00  0.00     0.125 HD
ENDBRANCH  12  20
ENDBRANCH   1   4
BRANCH   1  23
HETATM   23  C   UNL     1      41.651 -13.769   2.358  1.00  0.00     0.137 C 
BRANCH  23  24
HETATM   24  C   UNL     1      42.900 -14.639   2.074  1.00  0.00     0.054 C 
BRANCH  24  25
HETATM   25  C   UNL     1      43.069 -16.046   2.589  1.00  0.00    -0.082 C 
HETATM   26  C   UNL     1      43.445 -16.106   4.061  1.00  0.00     0.034 C 
HETATM   27  C   UNL     1      43.361 -17.501   4.678  1.00  0.00     0.005 C 
HETATM   28  C   UNL     1      43.942 -18.546   3.738  1.00  0.00     0.004 C 
HETATM   29  C   UNL     1      43.198 -18.548   2.402  1.00  0.00     0.027 C 
HETATM   30  C   UNL     1      42.947 -17.168   1.859  1.00  0.00    -0.024 C 
ENDBRANCH  24  25
ENDBRANCH  23  24
ENDBRANCH   1  23
BRANCH   2  31
HETATM   31  C   UNL     1      39.804 -11.474   1.853  1.00  0.00     0.144 C 
BRANCH  31  32
HETATM   32  C   UNL     1      40.306 -11.312   0.451  1.00  0.00    -0.021 A 
HETATM   33  C   UNL     1      40.185 -12.276  -0.603  1.00  0.00    -0.001 A 
HETATM   34  C   UNL     1      40.872 -11.775  -1.708  1.00  0.00     0.042 A 
HETATM   35  C   UNL     1      39.569 -13.540  -0.711  1.00  0.00     0.014 A 
HETATM   36  C   UNL     1      40.987 -12.482  -2.911  1.00  0.00     0.030 A 
HETATM   37  N   UNL     1      41.361 -10.540  -1.353  1.00  0.00    -0.365 N 
HETATM   38  C   UNL     1      40.372 -13.736  -2.988  1.00  0.00     0.002 A 
HETATM   39  C   UNL     1      39.668 -14.258  -1.907  1.00  0.00     0.001 A 
HETATM   40  H   UNL     1      41.900  -9.942  -1.965  1.00  0.00     0.165 HD
HETATM   41  C   UNL     1      41.035 -10.253  -0.055  1.00  0.00     0.097 A 
ENDBRANCH  31  32
ENDBRANCH   2  31
TORSDOF 9
ENDMDL
MODEL 10
REMARK VINA RESULT:      -7.8      4.180      8.497
REMARK  9 active torsions:
REMARK  status: ('A' for Active; 'I' for Inactive)
REMARK    1  A    between atoms: C_4  and  C_5 
REMARK    2  A    between atoms: C_5  and  N_6 
REMARK    3  A    between atoms: C_12  and  N_13 
REMARK       I    between atoms: N_13  and  C_14 
REMARK    4  A    between atoms: N_13  and  C_27 
REMARK    5  A    between atoms: C_14  and  C_15 
REMARK    6  A    between atoms: C_15  and  C_16 
REMARK    7  A    between atoms: C_27  and  C_28 
REMARK    8  A    between atoms: C_28  and  C_29 
REMARK    9  A    between atoms: C_35  and  N_36 
ROOT
HETATM    1  N   UNL     1      41.509 -13.660   3.911  1.00  0.00    -0.310 N 
HETATM    2  C   UNL     1      42.719 -14.368   4.066  1.00  0.00     0.228 C 
HETATM    3  O   UNL     1      43.608 -14.004   4.850  1.00  0.00    -0.273 OA
ENDROOT
BRANCH   1   4
HETATM    4  C   UNL     1      41.470 -12.274   4.280  1.00  0.00     0.144 C 
HETATM    5  C   UNL     1      41.876 -11.267   3.231  1.00  0.00     0.279 C 
HETATM    6  N   UNL     1      41.430 -10.002   3.413  1.00  0.00    -0.273 N 
HETATM    7  O   UNL     1      42.576 -11.550   2.261  1.00  0.00    -0.265 OA
HETATM    8  C   UNL     1      41.465  -9.468   4.658  1.00  0.00     0.331 C 
HETATM    9  H   UNL     1      41.731  -9.348   2.704  1.00  0.00     0.173 HD
HETATM   10  N   UNL     1      41.299 -10.363   5.704  1.00  0.00    -0.284 N 
HETATM   11  O   UNL     1      41.681  -8.265   4.783  1.00  0.00    -0.246 OA
HETATM   12  C   UNL     1      41.155 -11.744   5.498  1.00  0.00     0.117 C 
BRANCH  10  13
HETATM   13  C   UNL     1      41.452  -9.806   7.051  1.00  0.00     0.173 C 
BRANCH  13  14
HETATM   14  C   UNL     1      42.863  -9.620   7.566  1.00  0.00    -0.040 A 
HETATM   15  C   UNL     1      43.322  -8.441   8.166  1.00  0.00     0.009 A 
HETATM   16  C   UNL     1      44.648  -8.334   8.597  1.00  0.00     0.001 A 
HETATM   17  C   UNL     1      45.530  -9.400   8.435  1.00  0.00     0.000 A 
HETATM   18  C   UNL     1      45.091 -10.578   7.837  1.00  0.00     0.001 A 
HETATM   19  C   UNL     1      43.767 -10.686   7.407  1.00  0.00     0.009 A 
ENDBRANCH  13  14
ENDBRANCH  10  13
BRANCH  12  20
HETATM   20  N   UNL     1      40.663 -12.540   6.526  1.00  0.00    -0.286 NA
HETATM   21  H   UNL     1      40.512 -11.977   7.372  1.00  0.00     0.125 HD
HETATM   22  H   UNL     1      39.816 -13.046   6.302  1.00  0.00     0.125 HD
ENDBRANCH  12  20
ENDBRANCH   1   4
BRANCH   1  23
HETATM   23  C   UNL     1      40.393 -14.108   3.030  1.00  0.00     0.137 C 
BRANCH  23  24
HETATM   24  C   UNL     1      40.589 -14.334   1.511  1.00  0.00     0.054 C 
BRANCH  24  25
HETATM   25  C   UNL     1      39.812 -13.592   0.452  1.00  0.00    -0.082 C 
HETATM   26  C   UNL     1      39.688 -14.362  -0.853  1.00  0.00     0.034 C 
HETATM   27  C   UNL     1      38.690 -13.767  -1.845  1.00  0.00     0.005 C 
HETATM   28  C   UNL     1      38.823 -12.253  -1.906  1.00  0.00     0.004 C 
HETATM   29  C   UNL     1      38.585 -11.632  -0.530  1.00  0.00     0.027 C 
HETATM   30  C   UNL     1      39.290 -12.360   0.582  1.00  0.00    -0.024 C 
ENDBRANCH  24  25
ENDBRANCH  23  24
ENDBRANCH   1  23
BRANCH   2  31
HETATM   31  C   UNL     1      42.974 -15.606   3.217  1.00  0.00     0.144 C 
BRANCH  31  32
HETATM   32  C   UNL     1      43.436 -16.778   4.029  1.00  0.00    -0.021 A 
HETATM   33  C   UNL     1      43.535 -18.132   3.571  1.00  0.00    -0.001 A 
HETATM   34  C   UNL     1      43.904 -18.916   4.664  1.00  0.00     0.042 A 
HETATM   35  C   UNL     1      43.324 -18.766   2.330  1.00  0.00     0.014 A 
HETATM   36  C   UNL     1      44.058 -20.306   4.579  1.00  0.00     0.030 A 
HETATM   37  N   UNL     1      44.059 -18.068   5.735  1.00  0.00    -0.365 N 
HETATM   38  C   UNL     1      43.836 -20.909   3.338  1.00  0.00     0.002 A 
HETATM   39  C   UNL     1      43.480 -20.152   2.225  1.00  0.00     0.001 A 
HETATM   40  H   UNL     1      44.329 -18.365   6.663  1.00  0.00     0.165 HD
HETATM   41  C   UNL     1      43.772 -16.781   5.368  1.00  0.00     0.097 A 
ENDBRANCH  31  32
ENDBRANCH   2  31
TORSDOF 9
ENDMDL
