MODEL 1
REMARK VINA RESULT:      -9.0      0.000      0.000
REMARK  8 active torsions:
REMARK  status: ('A' for Active; 'I' for Inactive)
REMARK    1  A    between atoms: C_4  and  N_5 
REMARK       I    between atoms: N_5  and  C_6 
REMARK    2  A    between atoms: C_6  and  C_7 
REMARK    3  A    between atoms: C_10  and  N_11 
REMARK       I    between atoms: N_11  and  C_12 
REMARK       I    between atoms: C_12  and  N_21 
REMARK    4  A    between atoms: N_21  and  CA_22 
REMARK    5  A    between atoms: CA_22  and  C_23 
REMARK    6  A    between atoms: CA_22  and  CB_25 
REMARK    7  A    between atoms: C_23  and  O_24 
REMARK    8  A    between atoms: CB_25  and  CG_26 
ROOT
HETATM    1  N   UNK A   0      41.960 -12.296   3.936  1.00  0.00    -0.309 N 
HETATM    2  C   UNK A   0      42.365 -13.207   2.986  1.00  0.00     0.321 C 
HETATM    3  O   UNK A   0      43.514 -13.544   2.732  1.00  0.00    -0.247 OA
HETATM    4  H   UNK A   0      41.038 -11.914   3.793  1.00  0.00     0.170 HD
ATOM      5  N   TRP A   1      41.266 -13.728   2.337  1.00  0.00    -0.336 N 
ATOM      6  H   TRP A   1      40.436 -13.789   2.914  1.00  0.00     0.164 HD
ENDROOT
BRANCH   1   7
HETATM    7  C   UNK A   0      42.647 -11.911   5.099  1.00  0.00     0.036 A 
HETATM    8  C   UNK A   0      43.421 -12.787   5.859  1.00  0.00     0.030 A 
HETATM    9  C   UNK A   0      43.895 -12.410   7.122  1.00  0.00     0.019 A 
HETATM   10  C   UNK A   0      43.623 -11.133   7.630  1.00  0.00     0.032 A 
HETATM   11  C   UNK A   0      42.915 -10.229   6.826  1.00  0.00     0.019 A 
HETATM   12  C   UNK A   0      42.429 -10.615   5.573  1.00  0.00     0.030 A 
BRANCH  10  13
HETATM   13  C   UNK A   0      43.930 -10.721   9.040  1.00  0.00     0.256 C 
HETATM   14  N   UNK A   0      42.858 -10.315   9.815  1.00  0.00    -0.323 N 
HETATM   15  H   UNK A   0      41.930 -10.554   9.500  1.00  0.00     0.169 HD
HETATM   16  O   UNK A   0      45.101 -10.749   9.407  1.00  0.00    -0.267 OA
BRANCH  14  17
HETATM   17  C   UNK A   0      42.916  -9.579  11.019  1.00  0.00     0.035 A 
HETATM   18  C   UNK A   0      43.263  -8.228  11.088  1.00  0.00     0.029 A 
HETATM   19  C   UNK A   0      43.233  -7.548  12.309  1.00  0.00     0.002 A 
HETATM   20  C   UNK A   0      42.856  -8.212  13.472  1.00  0.00     0.000 A 
HETATM   21  C   UNK A   0      42.512  -9.560  13.417  1.00  0.00     0.002 A 
HETATM   22  C   UNK A   0      42.540 -10.239  12.195  1.00  0.00     0.029 A 
ENDBRANCH  14  17
ENDBRANCH  10  13
ENDBRANCH   1   7
BRANCH   5  23
ATOM     23  CA  TRP A   1      41.385 -14.868   1.430  1.00  0.00     0.114 C 
BRANCH  23  24
ATOM     24  C   TRP A   1      40.559 -14.597   0.157  1.00  0.00     0.189 C 
BRANCH  24  25
ATOM     25  O   TRP A   1      41.006 -13.424  -0.523  1.00  0.00    -0.399 OA
ATOM     26  H   TRP A   1      41.173 -12.751   0.160  1.00  0.00     0.209 HD
ENDBRANCH  24  25
ENDBRANCH  23  24
BRANCH  23  27
ATOM     27  CB  TRP A   1      41.056 -16.233   2.088  1.00  0.00     0.068 C 
BRANCH  27  28
ATOM     28  CG  TRP A   1      42.090 -16.811   3.015  1.00  0.00    -0.028 A 
ATOM     29  CD2 TRP A   1      42.156 -16.625   4.438  1.00  0.00    -0.002 A 
ATOM     30  CE2 TRP A   1      43.268 -17.325   4.905  1.00  0.00     0.042 A 
ATOM     31  CE3 TRP A   1      41.371 -15.921   5.375  1.00  0.00     0.014 A 
ATOM     32  CZ2 TRP A   1      43.625 -17.371   6.258  1.00  0.00     0.030 A 
ATOM     33  NE1 TRP A   1      43.870 -17.899   3.810  1.00  0.00    -0.365 N 
ATOM     34  CH2 TRP A   1      42.826 -16.670   7.166  1.00  0.00     0.002 A 
ATOM     35  CZ3 TRP A   1      41.717 -15.949   6.732  1.00  0.00     0.001 A 
ATOM     36  HE1 TRP A   1      44.707 -18.462   3.848  1.00  0.00     0.165 HD
ATOM     37  CD1 TRP A   1      43.184 -17.580   2.670  1.00  0.00     0.096 A 
ENDBRANCH  27  28
ENDBRANCH  23  27
ENDBRANCH   5  23
TORSDOF 8
ENDMDL
MODEL 2
REMARK VINA RESULT:      -8.9      1.727      2.498
REMARK  8 active torsions:
REMARK  status: ('A' for Active; 'I' for Inactive)
REMARK    1  A    between atoms: C_4  and  N_5 
REMARK       I    between atoms: N_5  and  C_6 
REMARK    2  A    between atoms: C_6  and  C_7 
REMARK    3  A    between atoms: C_10  and  N_11 
REMARK       I    between atoms: N_11  and  C_12 
REMARK       I    between atoms: C_12  and  N_21 
REMARK    4  A    between atoms: N_21  and  CA_22 
REMARK    5  A    between atoms: CA_22  and  C_23 
REMARK    6  A    between atoms: CA_22  and  CB_25 
REMARK    7  A    between atoms: C_23  and  O_24 
REMARK    8  A    between atoms: CB_25  and  CG_26 
ROOT
HETATM    1  N   UNK A   0      41.656 -12.915   5.116  1.00  0.00    -0.309 N 
HETATM    2  C   UNK A   0      41.764 -13.166   3.766  1.00  0.00     0.321 C 
HETATM    3  O   UNK A   0      42.092 -12.373   2.894  1.00  0.00    -0.247 OA
HETATM    4  H   UNK A   0      41.082 -13.570   5.625  1.00  0.00     0.170 HD
ATOM      5  N   TRP A   1      41.459 -14.485   3.508  1.00  0.00    -0.336 N 
ATOM      6  H   TRP A   1      41.700 -15.121   4.260  1.00  0.00     0.164 HD
ENDROOT
BRANCH   1   7
HETATM    7  C   UNK A   0      42.308 -11.915   5.855  1.00  0.00     0.036 A 
HETATM    8  C   UNK A   0      43.471 -12.139   6.590  1.00  0.00     0.030 A 
HETATM    9  C   UNK A   0      43.949 -11.172   7.484  1.00  0.00     0.019 A 
HETATM   10  C   UNK A   0      43.281  -9.950   7.631  1.00  0.00     0.032 A 
HETATM   11  C   UNK A   0      42.160  -9.698   6.828  1.00  0.00     0.019 A 
HETATM   12  C   UNK A   0      41.676 -10.673   5.949  1.00  0.00     0.030 A 
BRANCH  10  13
HETATM   13  C   UNK A   0      43.616  -8.946   8.695  1.00  0.00     0.256 C 
HETATM   14  N   UNK A   0      43.061  -9.157   9.945  1.00  0.00    -0.323 N 
HETATM   15  H   UNK A   0      42.688 -10.073  10.148  1.00  0.00     0.169 HD
HETATM   16  O   UNK A   0      44.337  -8.000   8.389  1.00  0.00    -0.267 OA
BRANCH  14  17
HETATM   17  C   UNK A   0      42.942  -8.213  10.988  1.00  0.00     0.035 A 
HETATM   18  C   UNK A   0      42.385  -6.942  10.827  1.00  0.00     0.029 A 
HETATM   19  C   UNK A   0      42.241  -6.086  11.923  1.00  0.00     0.002 A 
HETATM   20  C   UNK A   0      42.652  -6.492  13.189  1.00  0.00     0.000 A 
HETATM   21  C   UNK A   0      43.212  -7.755  13.361  1.00  0.00     0.002 A 
HETATM   22  C   UNK A   0      43.355  -8.612  12.265  1.00  0.00     0.029 A 
ENDBRANCH  14  17
ENDBRANCH  10  13
ENDBRANCH   1   7
BRANCH   5  23
ATOM     23  CA  TRP A   1      41.696 -15.080   2.194  1.00  0.00     0.114 C 
BRANCH  23  24
ATOM     24  C   TRP A   1      40.492 -15.963   1.808  1.00  0.00     0.189 C 
BRANCH  24  25
ATOM     25  O   TRP A   1      39.306 -15.573   2.502  1.00  0.00    -0.399 OA
ATOM     26  H   TRP A   1      39.593 -15.072   3.286  1.00  0.00     0.209 HD
ENDBRANCH  24  25
ENDBRANCH  23  24
BRANCH  23  27
ATOM     27  CB  TRP A   1      43.054 -15.819   2.072  1.00  0.00     0.068 C 
BRANCH  27  28
ATOM     28  CG  TRP A   1      43.424 -16.755   3.189  1.00  0.00    -0.028 A 
ATOM     29  CD2 TRP A   1      43.512 -18.186   3.106  1.00  0.00    -0.002 A 
ATOM     30  CE2 TRP A   1      43.878 -18.662   4.365  1.00  0.00     0.042 A 
ATOM     31  CE3 TRP A   1      43.310 -19.125   2.073  1.00  0.00     0.014 A 
ATOM     32  CZ2 TRP A   1      44.068 -20.022   4.638  1.00  0.00     0.030 A 
ATOM     33  NE1 TRP A   1      43.989 -17.568   5.190  1.00  0.00    -0.365 N 
ATOM     34  CH2 TRP A   1      43.868 -20.930   3.595  1.00  0.00     0.002 A 
ATOM     35  CZ3 TRP A   1      43.489 -20.490   2.330  1.00  0.00     0.001 A 
ATOM     36  HE1 TRP A   1      44.236 -17.614   6.168  1.00  0.00     0.165 HD
ATOM     37  CD1 TRP A   1      43.699 -16.422   4.501  1.00  0.00     0.096 A 
ENDBRANCH  27  28
ENDBRANCH  23  27
ENDBRANCH   5  23
TORSDOF 8
ENDMDL
MODEL 3
REMARK VINA RESULT:      -8.8      0.905      1.636
REMARK  8 active torsions:
REMARK  status: ('A' for Active; 'I' for Inactive)
REMARK    1  A    between atoms: C_4  and  N_5 
REMARK       I    between atoms: N_5  and  C_6 
REMARK    2  A    between atoms: C_6  and  C_7 
REMARK    3  A    between atoms: C_10  and  N_11 
REMARK       I    between atoms: N_11  and  C_12 
REMARK       I    between atoms: C_12  and  N_21 
REMARK    4  A    between atoms: N_21  and  CA_22 
REMARK    5  A    between atoms: CA_22  and  C_23 
REMARK    6  A    between atoms: CA_22  and  CB_25 
REMARK    7  A    between atoms: C_23  and  O_24 
REMARK    8  A    between atoms: CB_25  and  CG_26 
ROOT
HETATM    1  N   UNK A   0      41.977 -11.989   3.787  1.00  0.00    -0.309 N 
HETATM    2  C   UNK A   0      42.308 -12.969   2.878  1.00  0.00     0.321 C 
HETATM    3  O   UNK A   0      43.415 -13.454   2.690  1.00  0.00    -0.247 OA
HETATM    4  H   UNK A   0      41.118 -11.498   3.590  1.00  0.00     0.170 HD
ATOM      5  N   TRP A   1      41.184 -13.366   2.186  1.00  0.00    -0.336 N 
ATOM      6  H   TRP A   1      40.326 -13.306   2.721  1.00  0.00     0.164 HD
ENDROOT
BRANCH   1   7
HETATM    7  C   UNK A   0      42.650 -11.662   4.975  1.00  0.00     0.036 A 
HETATM    8  C   UNK A   0      43.407 -12.577   5.706  1.00  0.00     0.030 A 
HETATM    9  C   UNK A   0      43.866 -12.260   6.991  1.00  0.00     0.019 A 
HETATM   10  C   UNK A   0      43.597 -11.004   7.551  1.00  0.00     0.032 A 
HETATM   11  C   UNK A   0      42.908 -10.059   6.778  1.00  0.00     0.019 A 
HETATM   12  C   UNK A   0      42.437 -10.386   5.502  1.00  0.00     0.030 A 
BRANCH  10  13
HETATM   13  C   UNK A   0      43.888 -10.658   8.981  1.00  0.00     0.256 C 
HETATM   14  N   UNK A   0      42.815 -10.238   9.749  1.00  0.00    -0.323 N 
HETATM   15  H   UNK A   0      41.886 -10.428   9.405  1.00  0.00     0.169 HD
HETATM   16  O   UNK A   0      45.049 -10.745   9.372  1.00  0.00    -0.267 OA
BRANCH  14  17
HETATM   17  C   UNK A   0      42.875  -9.550  10.980  1.00  0.00     0.035 A 
HETATM   18  C   UNK A   0      43.252  -8.211  11.106  1.00  0.00     0.029 A 
HETATM   19  C   UNK A   0      43.223  -7.578  12.352  1.00  0.00     0.002 A 
HETATM   20  C   UNK A   0      42.815  -8.277  13.484  1.00  0.00     0.000 A 
HETATM   21  C   UNK A   0      42.439  -9.613  13.372  1.00  0.00     0.002 A 
HETATM   22  C   UNK A   0      42.468 -10.246  12.126  1.00  0.00     0.029 A 
ENDBRANCH  14  17
ENDBRANCH  10  13
ENDBRANCH   1   7
BRANCH   5  23
ATOM     23  CA  TRP A   1      41.200 -14.536   1.310  1.00  0.00     0.114 C 
BRANCH  23  24
ATOM     24  C   TRP A   1      40.489 -14.194  -0.014  1.00  0.00     0.189 C 
BRANCH  24  25
ATOM     25  O   TRP A   1      41.157 -13.145  -0.717  1.00  0.00    -0.399 OA
ATOM     26  H   TRP A   1      40.651 -12.330  -0.551  1.00  0.00     0.209 HD
ENDBRANCH  24  25
ENDBRANCH  23  24
BRANCH  23  27
ATOM     27  CB  TRP A   1      40.658 -15.827   1.974  1.00  0.00     0.068 C 
BRANCH  27  28
ATOM     28  CG  TRP A   1      41.309 -16.260   3.259  1.00  0.00    -0.028 A 
ATOM     29  CD2 TRP A   1      42.418 -17.163   3.389  1.00  0.00    -0.002 A 
ATOM     30  CE2 TRP A   1      42.700 -17.294   4.749  1.00  0.00     0.042 A 
ATOM     31  CE3 TRP A   1      43.210 -17.885   2.472  1.00  0.00     0.014 A 
ATOM     32  CZ2 TRP A   1      43.740 -18.096   5.236  1.00  0.00     0.030 A 
ATOM     33  NE1 TRP A   1      41.787 -16.521   5.424  1.00  0.00    -0.365 N 
ATOM     34  CH2 TRP A   1      44.513 -18.795   4.305  1.00  0.00     0.002 A 
ATOM     35  CZ3 TRP A   1      44.250 -18.697   2.942  1.00  0.00     0.001 A 
ATOM     36  HE1 TRP A   1      41.748 -16.430   6.429  1.00  0.00     0.165 HD
ATOM     37  CD1 TRP A   1      40.935 -15.913   4.543  1.00  0.00     0.096 A 
ENDBRANCH  27  28
ENDBRANCH  23  27
ENDBRANCH   5  23
TORSDOF 8
ENDMDL
MODEL 4
REMARK VINA RESULT:      -8.6      2.611     10.164
REMARK  8 active torsions:
REMARK  status: ('A' for Active; 'I' for Inactive)
REMARK    1  A    between atoms: C_4  and  N_5 
REMARK       I    between atoms: N_5  and  C_6 
REMARK    2  A    between atoms: C_6  and  C_7 
REMARK    3  A    between atoms: C_10  and  N_11 
REMARK       I    between atoms: N_11  and  C_12 
REMARK       I    between atoms: C_12  and  N_21 
REMARK    4  A    between atoms: N_21  and  CA_22 
REMARK    5  A    between atoms: CA_22  and  C_23 
REMARK    6  A    between atoms: CA_22  and  CB_25 
REMARK    7  A    between atoms: C_23  and  O_24 
REMARK    8  A    between atoms: CB_25  and  CG_26 
ROOT
HETATM    1  N   UNK A   0      43.451 -10.659   6.257  1.00  0.00    -0.309 N 
HETATM    2  C   UNK A   0      42.546 -10.072   7.113  1.00  0.00     0.321 C 
HETATM    3  O   UNK A   0      41.399 -10.436   7.334  1.00  0.00    -0.247 OA
HETATM    4  H   UNK A   0      44.208 -10.062   5.964  1.00  0.00     0.170 HD
ATOM      5  N   TRP A   1      43.123  -8.983   7.730  1.00  0.00    -0.336 N 
ATOM      6  H   TRP A   1      44.121  -9.071   7.878  1.00  0.00     0.164 HD
ENDROOT
BRANCH   1   7
HETATM    7  C   UNK A   0      43.474 -11.994   5.822  1.00  0.00     0.036 A 
HETATM    8  C   UNK A   0      42.913 -12.418   4.618  1.00  0.00     0.030 A 
HETATM    9  C   UNK A   0      42.765 -13.784   4.341  1.00  0.00     0.019 A 
HETATM   10  C   UNK A   0      43.208 -14.746   5.258  1.00  0.00     0.032 A 
HETATM   11  C   UNK A   0      43.847 -14.313   6.428  1.00  0.00     0.019 A 
HETATM   12  C   UNK A   0      43.977 -12.949   6.709  1.00  0.00     0.030 A 
BRANCH  10  13
HETATM   13  C   UNK A   0      42.919 -16.212   5.123  1.00  0.00     0.256 C 
HETATM   14  N   UNK A   0      44.005 -17.042   4.906  1.00  0.00    -0.323 N 
HETATM   15  H   UNK A   0      44.925 -16.678   5.103  1.00  0.00     0.169 HD
HETATM   16  O   UNK A   0      41.749 -16.578   5.191  1.00  0.00    -0.267 OA
BRANCH  14  17
HETATM   17  C   UNK A   0      43.972 -18.367   4.419  1.00  0.00     0.035 A 
HETATM   18  C   UNK A   0      44.043 -19.498   5.236  1.00  0.00     0.029 A 
HETATM   19  C   UNK A   0      43.937 -20.780   4.688  1.00  0.00     0.002 A 
HETATM   20  C   UNK A   0      43.759 -20.943   3.317  1.00  0.00     0.000 A 
HETATM   21  C   UNK A   0      43.690 -19.823   2.492  1.00  0.00     0.002 A 
HETATM   22  C   UNK A   0      43.795 -18.542   3.041  1.00  0.00     0.029 A 
ENDBRANCH  14  17
ENDBRANCH  10  13
ENDBRANCH   1   7
BRANCH   5  23
ATOM     23  CA  TRP A   1      42.465  -8.299   8.843  1.00  0.00     0.114 C 
BRANCH  23  24
ATOM     24  C   TRP A   1      42.317  -6.802   8.507  1.00  0.00     0.189 C 
BRANCH  24  25
ATOM     25  O   TRP A   1      42.473  -6.555   7.109  1.00  0.00    -0.399 OA
ATOM     26  H   TRP A   1      42.785  -5.638   7.020  1.00  0.00     0.209 HD
ENDBRANCH  24  25
ENDBRANCH  23  24
BRANCH  23  27
ATOM     27  CB  TRP A   1      43.133  -8.550  10.219  1.00  0.00     0.068 C 
BRANCH  27  28
ATOM     28  CG  TRP A   1      42.222  -8.860  11.374  1.00  0.00    -0.028 A 
ATOM     29  CD2 TRP A   1      42.322  -8.327  12.704  1.00  0.00    -0.002 A 
ATOM     30  CE2 TRP A   1      41.288  -8.879  13.460  1.00  0.00     0.042 A 
ATOM     31  CE3 TRP A   1      43.201  -7.425  13.338  1.00  0.00     0.014 A 
ATOM     32  CZ2 TRP A   1      41.080  -8.563  14.809  1.00  0.00     0.030 A 
ATOM     33  NE1 TRP A   1      40.596  -9.731  12.633  1.00  0.00    -0.365 N 
ATOM     34  CH2 TRP A   1      41.961  -7.661  15.410  1.00  0.00     0.002 A 
ATOM     35  CZ3 TRP A   1      43.013  -7.103  14.688  1.00  0.00     0.001 A 
ATOM     36  HE1 TRP A   1      39.796 -10.277  12.916  1.00  0.00     0.165 HD
ATOM     37  CD1 TRP A   1      41.160  -9.744  11.386  1.00  0.00     0.096 A 
ENDBRANCH  27  28
ENDBRANCH  23  27
ENDBRANCH   5  23
TORSDOF 8
ENDMDL
MODEL 5
REMARK VINA RESULT:      -8.4      2.921      9.227
REMARK  8 active torsions:
REMARK  status: ('A' for Active; 'I' for Inactive)
REMARK    1  A    between atoms: C_4  and  N_5 
REMARK       I    between atoms: N_5  and  C_6 
REMARK    2  A    between atoms: C_6  and  C_7 
REMARK    3  A    between atoms: C_10  and  N_11 
REMARK       I    between atoms: N_11  and  C_12 
REMARK       I    between atoms: C_12  and  N_21 
REMARK    4  A    between atoms: N_21  and  CA_22 
REMARK    5  A    between atoms: CA_22  and  C_23 
REMARK    6  A    between atoms: CA_22  and  CB_25 
REMARK    7  A    between atoms: C_23  and  O_24 
REMARK    8  A    between atoms: CB_25  and  CG_26 
ROOT
HETATM    1  N   UNK A   0      42.131 -10.792   5.820  1.00  0.00    -0.309 N 
HETATM    2  C   UNK A   0      40.924 -10.345   6.307  1.00  0.00     0.321 C 
HETATM    3  O   UNK A   0      39.845 -10.918   6.238  1.00  0.00    -0.247 OA
HETATM    4  H   UNK A   0      42.827 -10.074   5.682  1.00  0.00     0.170 HD
ATOM      5  N   TRP A   1      41.090  -9.124   6.925  1.00  0.00    -0.336 N 
ATOM      6  H   TRP A   1      41.997  -8.999   7.358  1.00  0.00     0.164 HD
ENDROOT
BRANCH   1   7
HETATM    7  C   UNK A   0      42.516 -12.120   5.575  1.00  0.00     0.036 A 
HETATM    8  C   UNK A   0      42.231 -12.795   4.388  1.00  0.00     0.030 A 
HETATM    9  C   UNK A   0      42.436 -14.178   4.286  1.00  0.00     0.019 A 
HETATM   10  C   UNK A   0      42.962 -14.899   5.366  1.00  0.00     0.032 A 
HETATM   11  C   UNK A   0      43.324 -14.201   6.526  1.00  0.00     0.019 A 
HETATM   12  C   UNK A   0      43.102 -12.823   6.630  1.00  0.00     0.030 A 
BRANCH  10  13
HETATM   13  C   UNK A   0      43.034 -16.397   5.402  1.00  0.00     0.256 C 
HETATM   14  N   UNK A   0      43.924 -16.997   4.528  1.00  0.00    -0.323 N 
HETATM   15  H   UNK A   0      44.640 -16.421   4.113  1.00  0.00     0.169 HD
HETATM   16  O   UNK A   0      42.294 -16.992   6.181  1.00  0.00    -0.267 OA
BRANCH  14  17
HETATM   17  C   UNK A   0      43.937 -18.353   4.134  1.00  0.00     0.035 A 
HETATM   18  C   UNK A   0      44.172 -19.416   5.009  1.00  0.00     0.029 A 
HETATM   19  C   UNK A   0      44.103 -20.737   4.558  1.00  0.00     0.002 A 
HETATM   20  C   UNK A   0      43.798 -21.009   3.228  1.00  0.00     0.000 A 
HETATM   21  C   UNK A   0      43.565 -19.958   2.345  1.00  0.00     0.002 A 
HETATM   22  C   UNK A   0      43.633 -18.637   2.796  1.00  0.00     0.029 A 
ENDBRANCH  14  17
ENDBRANCH  10  13
ENDBRANCH   1   7
BRANCH   5  23
ATOM     23  CA  TRP A   1      40.020  -8.516   7.714  1.00  0.00     0.114 C 
BRANCH  23  24
ATOM     24  C   TRP A   1      39.248  -7.508   6.839  1.00  0.00     0.189 C 
BRANCH  24  25
ATOM     25  O   TRP A   1      38.163  -8.130   6.150  1.00  0.00    -0.399 OA
ATOM     26  H   TRP A   1      38.556  -8.701   5.466  1.00  0.00     0.209 HD
ENDBRANCH  24  25
ENDBRANCH  23  24
BRANCH  23  27
ATOM     27  CB  TRP A   1      40.497  -7.911   9.060  1.00  0.00     0.068 C 
BRANCH  27  28
ATOM     28  CG  TRP A   1      41.228  -8.829  10.000  1.00  0.00    -0.028 A 
ATOM     29  CD2 TRP A   1      42.634  -9.121   9.984  1.00  0.00    -0.002 A 
ATOM     30  CE2 TRP A   1      42.892 -10.021  11.017  1.00  0.00     0.042 A 
ATOM     31  CE3 TRP A   1      43.715  -8.704   9.179  1.00  0.00     0.014 A 
ATOM     32  CZ2 TRP A   1      44.174 -10.510  11.297  1.00  0.00     0.030 A 
ATOM     33  NE1 TRP A   1      41.690 -10.286  11.628  1.00  0.00    -0.365 N 
ATOM     34  CH2 TRP A   1      45.228 -10.075  10.490  1.00  0.00     0.002 A 
ATOM     35  CZ3 TRP A   1      45.003  -9.188   9.440  1.00  0.00     0.001 A 
ATOM     36  HE1 TRP A   1      41.572 -10.914  12.410  1.00  0.00     0.165 HD
ATOM     37  CD1 TRP A   1      40.683  -9.593  11.014  1.00  0.00     0.096 A 
ENDBRANCH  27  28
ENDBRANCH  23  27
ENDBRANCH   5  23
TORSDOF 8
ENDMDL
MODEL 6
REMARK VINA RESULT:      -8.4      2.676      4.946
REMARK  8 active torsions:
REMARK  status: ('A' for Active; 'I' for Inactive)
REMARK    1  A    between atoms: C_4  and  N_5 
REMARK       I    between atoms: N_5  and  C_6 
REMARK    2  A    between atoms: C_6  and  C_7 
REMARK    3  A    between atoms: C_10  and  N_11 
REMARK       I    between atoms: N_11  and  C_12 
REMARK       I    between atoms: C_12  and  N_21 
REMARK    4  A    between atoms: N_21  and  CA_22 
REMARK    5  A    between atoms: CA_22  and  C_23 
REMARK    6  A    between atoms: CA_22  and  CB_25 
REMARK    7  A    between atoms: C_23  and  O_24 
REMARK    8  A    between atoms: CB_25  and  CG_26 
ROOT
HETATM    1  N   UNK A   0      42.683 -10.103   8.475  1.00  0.00    -0.309 N 
HETATM    2  C   UNK A   0      43.503 -10.930   7.740  1.00  0.00     0.321 C 
HETATM    3  O   UNK A   0      44.716 -11.048   7.847  1.00  0.00    -0.247 OA
HETATM    4  H   UNK A   0      41.791  -9.901   8.050  1.00  0.00     0.170 HD
ATOM      5  N   TRP A   1      42.752 -11.653   6.837  1.00  0.00    -0.336 N 
ATOM      6  H   TRP A   1      41.814 -11.863   7.154  1.00  0.00     0.164 HD
ENDROOT
BRANCH   1   7
HETATM    7  C   UNK A   0      42.919  -9.587   9.760  1.00  0.00     0.036 A 
HETATM    8  C   UNK A   0      43.222 -10.384  10.863  1.00  0.00     0.030 A 
HETATM    9  C   UNK A   0      43.224  -9.843  12.156  1.00  0.00     0.019 A 
HETATM   10  C   UNK A   0      42.951  -8.485  12.357  1.00  0.00     0.032 A 
HETATM   11  C   UNK A   0      42.729  -7.672  11.237  1.00  0.00     0.019 A 
HETATM   12  C   UNK A   0      42.711  -8.219   9.949  1.00  0.00     0.030 A 
BRANCH  10  13
HETATM   13  C   UNK A   0      42.749  -7.874  13.713  1.00  0.00     0.256 C 
HETATM   14  N   UNK A   0      41.570  -8.188  14.366  1.00  0.00    -0.323 N 
HETATM   15  H   UNK A   0      41.044  -8.983  14.036  1.00  0.00     0.169 HD
HETATM   16  O   UNK A   0      43.621  -7.125  14.144  1.00  0.00    -0.267 OA
BRANCH  14  17
HETATM   17  C   UNK A   0      41.000  -7.500  15.460  1.00  0.00     0.035 A 
HETATM   18  C   UNK A   0      40.051  -6.483  15.331  1.00  0.00     0.029 A 
HETATM   19  C   UNK A   0      39.482  -5.894  16.463  1.00  0.00     0.002 A 
HETATM   20  C   UNK A   0      39.855  -6.316  17.736  1.00  0.00     0.000 A 
HETATM   21  C   UNK A   0      40.803  -7.327  17.878  1.00  0.00     0.002 A 
HETATM   22  C   UNK A   0      41.371  -7.917  16.745  1.00  0.00     0.029 A 
ENDBRANCH  14  17
ENDBRANCH  10  13
ENDBRANCH   1   7
BRANCH   5  23
ATOM     23  CA  TRP A   1      43.332 -12.758   6.076  1.00  0.00     0.114 C 
BRANCH  23  24
ATOM     24  C   TRP A   1      43.597 -12.297   4.628  1.00  0.00     0.189 C 
BRANCH  24  25
ATOM     25  O   TRP A   1      44.575 -11.258   4.575  1.00  0.00    -0.399 OA
ATOM     26  H   TRP A   1      44.262 -10.613   3.917  1.00  0.00     0.209 HD
ENDBRANCH  24  25
ENDBRANCH  23  24
BRANCH  23  27
ATOM     27  CB  TRP A   1      42.514 -14.073   6.154  1.00  0.00     0.068 C 
BRANCH  27  28
ATOM     28  CG  TRP A   1      43.204 -15.332   5.708  1.00  0.00    -0.028 A 
ATOM     29  CD2 TRP A   1      42.913 -16.086   4.520  1.00  0.00    -0.002 A 
ATOM     30  CE2 TRP A   1      43.776 -17.181   4.492  1.00  0.00     0.042 A 
ATOM     31  CE3 TRP A   1      41.990 -15.939   3.463  1.00  0.00     0.014 A 
ATOM     32  CZ2 TRP A   1      43.775 -18.125   3.456  1.00  0.00     0.030 A 
ATOM     33  NE1 TRP A   1      44.549 -17.113   5.627  1.00  0.00    -0.365 N 
ATOM     34  CH2 TRP A   1      42.855 -17.951   2.419  1.00  0.00     0.002 A 
ATOM     35  CZ3 TRP A   1      41.969 -16.877   2.423  1.00  0.00     0.001 A 
ATOM     36  HE1 TRP A   1      45.261 -17.784   5.874  1.00  0.00     0.165 HD
ATOM     37  CD1 TRP A   1      44.200 -16.020   6.373  1.00  0.00     0.096 A 
ENDBRANCH  27  28
ENDBRANCH  23  27
ENDBRANCH   5  23
TORSDOF 8
ENDMDL
MODEL 7
REMARK VINA RESULT:      -8.3      2.417      3.761
REMARK  8 active torsions:
REMARK  status: ('A' for Active; 'I' for Inactive)
REMARK    1  A    between atoms: C_4  and  N_5 
REMARK       I    between atoms: N_5  and  C_6 
REMARK    2  A    between atoms: C_6  and  C_7 
REMARK    3  A    between atoms: C_10  and  N_11 
REMARK       I    between atoms: N_11  and  C_12 
REMARK       I    between atoms: C_12  and  N_21 
REMARK    4  A    between atoms: N_21  and  CA_22 
REMARK    5  A    between atoms: CA_22  and  C_23 
REMARK    6  A    between atoms: CA_22  and  CB_25 
REMARK    7  A    between atoms: C_23  and  O_24 
REMARK    8  A    between atoms: CB_25  and  CG_26 
ROOT
HETATM    1  N   UNK A   0      43.584 -11.564   6.404  1.00  0.00    -0.309 N 
HETATM    2  C   UNK A   0      43.399 -12.923   6.523  1.00  0.00     0.321 C 
HETATM    3  O   UNK A   0      43.656 -13.618   7.497  1.00  0.00    -0.247 OA
HETATM    4  H   UNK A   0      43.620 -11.221   5.456  1.00  0.00     0.170 HD
ATOM      5  N   TRP A   1      42.847 -13.425   5.364  1.00  0.00    -0.336 N 
ATOM      6  H   TRP A   1      42.240 -12.775   4.879  1.00  0.00     0.164 HD
ENDROOT
BRANCH   1   7
HETATM    7  C   UNK A   0      43.648 -10.615   7.437  1.00  0.00     0.036 A 
HETATM    8  C   UNK A   0      44.508 -10.726   8.529  1.00  0.00     0.030 A 
HETATM    9  C   UNK A   0      44.371  -9.876   9.635  1.00  0.00     0.019 A 
HETATM   10  C   UNK A   0      43.386  -8.882   9.649  1.00  0.00     0.032 A 
HETATM   11  C   UNK A   0      42.579  -8.722   8.514  1.00  0.00     0.019 A 
HETATM   12  C   UNK A   0      42.707  -9.582   7.418  1.00  0.00     0.030 A 
BRANCH  10  13
HETATM   13  C   UNK A   0      43.054  -8.063  10.861  1.00  0.00     0.256 C 
HETATM   14  N   UNK A   0      43.225  -8.676  12.091  1.00  0.00    -0.323 N 
HETATM   15  H   UNK A   0      43.789  -9.512  12.127  1.00  0.00     0.169 HD
HETATM   16  O   UNK A   0      42.635  -6.922  10.690  1.00  0.00    -0.267 OA
BRANCH  14  17
HETATM   17  C   UNK A   0      42.680  -8.262  13.325  1.00  0.00     0.035 A 
HETATM   18  C   UNK A   0      41.578  -8.870  13.932  1.00  0.00     0.029 A 
HETATM   19  C   UNK A   0      41.135  -8.447  15.189  1.00  0.00     0.002 A 
HETATM   20  C   UNK A   0      41.790  -7.413  15.851  1.00  0.00     0.000 A 
HETATM   21  C   UNK A   0      42.887  -6.797  15.255  1.00  0.00     0.002 A 
HETATM   22  C   UNK A   0      43.331  -7.220  13.999  1.00  0.00     0.029 A 
ENDBRANCH  14  17
ENDBRANCH  10  13
ENDBRANCH   1   7
BRANCH   5  23
ATOM     23  CA  TRP A   1      42.349 -14.797   5.288  1.00  0.00     0.114 C 
BRANCH  23  24
ATOM     24  C   TRP A   1      41.344 -15.040   6.431  1.00  0.00     0.189 C 
BRANCH  24  25
ATOM     25  O   TRP A   1      40.007 -15.158   5.942  1.00  0.00    -0.399 OA
ATOM     26  H   TRP A   1      39.682 -14.253   5.793  1.00  0.00     0.209 HD
ENDBRANCH  24  25
ENDBRANCH  23  24
BRANCH  23  27
ATOM     27  CB  TRP A   1      43.467 -15.870   5.224  1.00  0.00     0.068 C 
BRANCH  27  28
ATOM     28  CG  TRP A   1      43.420 -16.837   4.073  1.00  0.00    -0.028 A 
ATOM     29  CD2 TRP A   1      43.648 -18.254   4.143  1.00  0.00    -0.002 A 
ATOM     30  CE2 TRP A   1      43.516 -18.767   2.853  1.00  0.00     0.042 A 
ATOM     31  CE3 TRP A   1      43.959 -19.149   5.187  1.00  0.00     0.014 A 
ATOM     32  CZ2 TRP A   1      43.662 -20.128   2.558  1.00  0.00     0.030 A 
ATOM     33  NE1 TRP A   1      43.239 -17.706   2.025  1.00  0.00    -0.365 N 
ATOM     34  CH2 TRP A   1      43.962 -20.994   3.612  1.00  0.00     0.002 A 
ATOM     35  CZ3 TRP A   1      44.115 -20.513   4.909  1.00  0.00     0.001 A 
ATOM     36  HE1 TRP A   1      43.099 -17.780   1.028  1.00  0.00     0.165 HD
ATOM     37  CD1 TRP A   1      43.200 -16.541   2.742  1.00  0.00     0.096 A 
ENDBRANCH  27  28
ENDBRANCH  23  27
ENDBRANCH   5  23
TORSDOF 8
ENDMDL
MODEL 8
REMARK VINA RESULT:      -8.1      4.411      8.751
REMARK  8 active torsions:
REMARK  status: ('A' for Active; 'I' for Inactive)
REMARK    1  A    between atoms: C_4  and  N_5 
REMARK       I    between atoms: N_5  and  C_6 
REMARK    2  A    between atoms: C_6  and  C_7 
REMARK    3  A    between atoms: C_10  and  N_11 
REMARK       I    between atoms: N_11  and  C_12 
REMARK       I    between atoms: C_12  and  N_21 
REMARK    4  A    between atoms: N_21  and  CA_22 
REMARK    5  A    between atoms: CA_22  and  C_23 
REMARK    6  A    between atoms: CA_22  and  CB_25 
REMARK    7  A    between atoms: C_23  and  O_24 
REMARK    8  A    between atoms: CB_25  and  CG_26 
ROOT
HETATM    1  N   UNK A   0      40.265 -15.594   3.324  1.00  0.00    -0.309 N 
HETATM    2  C   UNK A   0      41.432 -15.585   4.055  1.00  0.00     0.321 C 
HETATM    3  O   UNK A   0      42.526 -15.176   3.690  1.00  0.00    -0.247 OA
HETATM    4  H   UNK A   0      39.563 -16.240   3.651  1.00  0.00     0.170 HD
ATOM      5  N   TRP A   1      41.203 -16.103   5.311  1.00  0.00    -0.336 N 
ATOM      6  H   TRP A   1      40.269 -15.931   5.665  1.00  0.00     0.164 HD
ENDROOT
BRANCH   1   7
HETATM    7  C   UNK A   0      39.926 -14.763   2.244  1.00  0.00     0.036 A 
HETATM    8  C   UNK A   0      40.055 -15.147   0.910  1.00  0.00     0.030 A 
HETATM    9  C   UNK A   0      39.918 -14.207  -0.121  1.00  0.00     0.019 A 
HETATM   10  C   UNK A   0      39.619 -12.870   0.173  1.00  0.00     0.032 A 
HETATM   11  C   UNK A   0      39.408 -12.509   1.511  1.00  0.00     0.019 A 
HETATM   12  C   UNK A   0      39.562 -13.447   2.538  1.00  0.00     0.030 A 
BRANCH  10  13
HETATM   13  C   UNK A   0      39.643 -11.773  -0.850  1.00  0.00     0.256 C 
HETATM   14  N   UNK A   0      40.869 -11.483  -1.421  1.00  0.00    -0.323 N 
HETATM   15  H   UNK A   0      41.608 -12.164  -1.326  1.00  0.00     0.169 HD
HETATM   16  O   UNK A   0      38.590 -11.193  -1.099  1.00  0.00    -0.267 OA
BRANCH  14  17
HETATM   17  C   UNK A   0      41.217 -10.312  -2.129  1.00  0.00     0.035 A 
HETATM   18  C   UNK A   0      40.788 -10.033  -3.429  1.00  0.00     0.029 A 
HETATM   19  C   UNK A   0      41.118  -8.820  -4.042  1.00  0.00     0.002 A 
HETATM   20  C   UNK A   0      41.879  -7.875  -3.361  1.00  0.00     0.000 A 
HETATM   21  C   UNK A   0      42.316  -8.144  -2.065  1.00  0.00     0.002 A 
HETATM   22  C   UNK A   0      41.985  -9.356  -1.453  1.00  0.00     0.029 A 
ENDBRANCH  14  17
ENDBRANCH  10  13
ENDBRANCH   1   7
BRANCH   5  23
ATOM     23  CA  TRP A   1      42.210 -16.019   6.367  1.00  0.00     0.114 C 
BRANCH  23  24
ATOM     24  C   TRP A   1      42.296 -14.568   6.879  1.00  0.00     0.189 C 
BRANCH  24  25
ATOM     25  O   TRP A   1      43.191 -14.448   7.985  1.00  0.00    -0.399 OA
ATOM     26  H   TRP A   1      44.086 -14.610   7.639  1.00  0.00     0.209 HD
ENDBRANCH  24  25
ENDBRANCH  23  24
BRANCH  23  27
ATOM     27  CB  TRP A   1      43.589 -16.605   5.969  1.00  0.00     0.068 C 
BRANCH  27  28
ATOM     28  CG  TRP A   1      43.651 -18.082   5.696  1.00  0.00    -0.028 A 
ATOM     29  CD2 TRP A   1      43.706 -18.708   4.404  1.00  0.00    -0.002 A 
ATOM     30  CE2 TRP A   1      43.745 -20.088   4.604  1.00  0.00     0.042 A 
ATOM     31  CE3 TRP A   1      43.722 -18.226   3.079  1.00  0.00     0.014 A 
ATOM     32  CZ2 TRP A   1      43.817 -21.007   3.549  1.00  0.00     0.030 A 
ATOM     33  NE1 TRP A   1      43.696 -20.299   5.961  1.00  0.00    -0.365 N 
ATOM     34  CH2 TRP A   1      43.839 -20.502   2.246  1.00  0.00     0.002 A 
ATOM     35  CZ3 TRP A   1      43.786 -19.131   2.011  1.00  0.00     0.001 A 
ATOM     36  HE1 TRP A   1      43.702 -21.209   6.398  1.00  0.00     0.165 HD
ATOM     37  CD1 TRP A   1      43.618 -19.105   6.624  1.00  0.00     0.096 A 
ENDBRANCH  27  28
ENDBRANCH  23  27
ENDBRANCH   5  23
TORSDOF 8
ENDMDL
MODEL 9
REMARK VINA RESULT:      -8.1      2.417      3.121
REMARK  8 active torsions:
REMARK  status: ('A' for Active; 'I' for Inactive)
REMARK    1  A    between atoms: C_4  and  N_5 
REMARK       I    between atoms: N_5  and  C_6 
REMARK    2  A    between atoms: C_6  and  C_7 
REMARK    3  A    between atoms: C_10  and  N_11 
REMARK       I    between atoms: N_11  and  C_12 
REMARK       I    between atoms: C_12  and  N_21 
REMARK    4  A    between atoms: N_21  and  CA_22 
REMARK    5  A    between atoms: CA_22  and  C_23 
REMARK    6  A    between atoms: CA_22  and  CB_25 
REMARK    7  A    between atoms: C_23  and  O_24 
REMARK    8  A    between atoms: CB_25  and  CG_26 
ROOT
HETATM    1  N   UNK A   0      39.073 -11.695   3.302  1.00  0.00    -0.309 N 
HETATM    2  C   UNK A   0      40.064 -12.469   2.740  1.00  0.00     0.321 C 
HETATM    3  O   UNK A   0      41.265 -12.401   2.963  1.00  0.00    -0.247 OA
HETATM    4  H   UNK A   0      38.209 -11.668   2.782  1.00  0.00     0.170 HD
ATOM      5  N   TRP A   1      39.509 -13.380   1.867  1.00  0.00    -0.336 N 
ATOM      6  H   TRP A   1      38.580 -13.688   2.126  1.00  0.00     0.164 HD
ENDROOT
BRANCH   1   7
HETATM    7  C   UNK A   0      39.108 -11.021   4.533  1.00  0.00     0.036 A 
HETATM    8  C   UNK A   0      39.270  -9.641   4.648  1.00  0.00     0.030 A 
HETATM    9  C   UNK A   0      39.525  -9.053   5.894  1.00  0.00     0.019 A 
HETATM   10  C   UNK A   0      39.590  -9.840   7.051  1.00  0.00     0.032 A 
HETATM   11  C   UNK A   0      39.343 -11.216   6.940  1.00  0.00     0.019 A 
HETATM   12  C   UNK A   0      39.107 -11.802   5.692  1.00  0.00     0.030 A 
BRANCH  10  13
HETATM   13  C   UNK A   0      40.041  -9.318   8.383  1.00  0.00     0.256 C 
HETATM   14  N   UNK A   0      41.359  -8.905   8.474  1.00  0.00    -0.323 N 
HETATM   15  H   UNK A   0      41.861  -8.734   7.616  1.00  0.00     0.169 HD
HETATM   16  O   UNK A   0      39.230  -9.308   9.304  1.00  0.00    -0.267 OA
BRANCH  14  17
HETATM   17  C   UNK A   0      42.102  -8.703   9.658  1.00  0.00     0.035 A 
HETATM   18  C   UNK A   0      41.995  -7.563  10.458  1.00  0.00     0.029 A 
HETATM   19  C   UNK A   0      42.714  -7.463  11.653  1.00  0.00     0.002 A 
HETATM   20  C   UNK A   0      43.546  -8.502  12.059  1.00  0.00     0.000 A 
HETATM   21  C   UNK A   0      43.664  -9.642  11.268  1.00  0.00     0.002 A 
HETATM   22  C   UNK A   0      42.944  -9.742  10.074  1.00  0.00     0.029 A 
ENDBRANCH  14  17
ENDBRANCH  10  13
ENDBRANCH   1   7
BRANCH   5  23
ATOM     23  CA  TRP A   1      40.303 -14.465   1.291  1.00  0.00     0.114 C 
BRANCH  23  24
ATOM     24  C   TRP A   1      40.037 -14.542  -0.226  1.00  0.00     0.189 C 
BRANCH  24  25
ATOM     25  O   TRP A   1      40.809 -13.581  -0.948  1.00  0.00    -0.399 OA
ATOM     26  H   TRP A   1      41.022 -13.983  -1.808  1.00  0.00     0.209 HD
ENDBRANCH  24  25
ENDBRANCH  23  24
BRANCH  23  27
ATOM     27  CB  TRP A   1      40.123 -15.827   2.009  1.00  0.00     0.068 C 
BRANCH  27  28
ATOM     28  CG  TRP A   1      40.977 -16.078   3.220  1.00  0.00    -0.028 A 
ATOM     29  CD2 TRP A   1      42.108 -16.961   3.295  1.00  0.00    -0.002 A 
ATOM     30  CE2 TRP A   1      42.605 -16.902   4.597  1.00  0.00     0.042 A 
ATOM     31  CE3 TRP A   1      42.755 -17.811   2.373  1.00  0.00     0.014 A 
ATOM     32  CZ2 TRP A   1      43.723 -17.634   5.018  1.00  0.00     0.030 A 
ATOM     33  NE1 TRP A   1      41.799 -16.035   5.295  1.00  0.00    -0.365 N 
ATOM     34  CH2 TRP A   1      44.349 -18.462   4.082  1.00  0.00     0.002 A 
ATOM     35  CZ3 TRP A   1      43.870 -18.555   2.779  1.00  0.00     0.001 A 
ATOM     36  HE1 TRP A   1      41.920 -15.804   6.271  1.00  0.00     0.165 HD
ATOM     37  CD1 TRP A   1      40.808 -15.552   4.486  1.00  0.00     0.096 A 
ENDBRANCH  27  28
ENDBRANCH  23  27
ENDBRANCH   5  23
TORSDOF 8
ENDMDL
MODEL 10
REMARK VINA RESULT:      -8.0      2.201      2.515
REMARK  8 active torsions:
REMARK  status: ('A' for Active; 'I' for Inactive)
REMARK    1  A    between atoms: C_4  and  N_5 
REMARK       I    between atoms: N_5  and  C_6 
REMARK    2  A    between atoms: C_6  and  C_7 
REMARK    3  A    between atoms: C_10  and  N_11 
REMARK       I    between atoms: N_11  and  C_12 
REMARK       I    between atoms: C_12  and  N_21 
REMARK    4  A    between atoms: N_21  and  CA_22 
REMARK    5  A    between atoms: CA_22  and  C_23 
REMARK    6  A    between atoms: CA_22  and  CB_25 
REMARK    7  A    between atoms: C_23  and  O_24 
REMARK    8  A    between atoms: CB_25  and  CG_26 
ROOT
HETATM    1  N   UNK A   0      39.607 -12.841   4.719  1.00  0.00    -0.309 N 
HETATM    2  C   UNK A   0      39.925 -12.931   3.383  1.00  0.00     0.321 C 
HETATM    3  O   UNK A   0      40.140 -12.005   2.613  1.00  0.00    -0.247 OA
HETATM    4  H   UNK A   0      39.161 -13.658   5.107  1.00  0.00     0.170 HD
ATOM      5  N   TRP A   1      39.990 -14.256   3.004  1.00  0.00    -0.336 N 
ATOM      6  H   TRP A   1      40.296 -14.881   3.740  1.00  0.00     0.164 HD
ENDROOT
BRANCH   1   7
HETATM    7  C   UNK A   0      39.901 -11.786   5.598  1.00  0.00     0.036 A 
HETATM    8  C   UNK A   0      41.187 -11.283   5.791  1.00  0.00     0.030 A 
HETATM    9  C   UNK A   0      41.457 -10.392   6.838  1.00  0.00     0.019 A 
HETATM   10  C   UNK A   0      40.430  -9.968   7.691  1.00  0.00     0.032 A 
HETATM   11  C   UNK A   0      39.124 -10.412   7.441  1.00  0.00     0.019 A 
HETATM   12  C   UNK A   0      38.862 -11.315   6.405  1.00  0.00     0.030 A 
BRANCH  10  13
HETATM   13  C   UNK A   0      40.668  -9.172   8.940  1.00  0.00     0.256 C 
HETATM   14  N   UNK A   0      41.659  -9.631   9.790  1.00  0.00    -0.323 N 
HETATM   15  H   UNK A   0      42.324 -10.295   9.425  1.00  0.00     0.169 HD
HETATM   16  O   UNK A   0      39.964  -8.186   9.139  1.00  0.00    -0.267 OA
BRANCH  14  17
HETATM   17  C   UNK A   0      41.842  -9.276  11.144  1.00  0.00     0.035 A 
HETATM   18  C   UNK A   0      41.008  -9.703  12.180  1.00  0.00     0.029 A 
HETATM   19  C   UNK A   0      41.292  -9.366  13.507  1.00  0.00     0.002 A 
HETATM   20  C   UNK A   0      42.413  -8.598  13.810  1.00  0.00     0.000 A 
HETATM   21  C   UNK A   0      43.250  -8.163  12.786  1.00  0.00     0.002 A 
HETATM   22  C   UNK A   0      42.967  -8.502  11.460  1.00  0.00     0.029 A 
ENDBRANCH  14  17
ENDBRANCH  10  13
ENDBRANCH   1   7
BRANCH   5  23
ATOM     23  CA  TRP A   1      40.514 -14.651   1.698  1.00  0.00     0.114 C 
BRANCH  23  24
ATOM     24  C   TRP A   1      39.790 -15.927   1.223  1.00  0.00     0.189 C 
BRANCH  24  25
ATOM     25  O   TRP A   1      39.227 -15.761  -0.079  1.00  0.00    -0.399 OA
ATOM     26  H   TRP A   1      39.886 -15.280  -0.610  1.00  0.00     0.209 HD
ENDBRANCH  24  25
ENDBRANCH  23  24
BRANCH  23  27
ATOM     27  CB  TRP A   1      42.058 -14.776   1.651  1.00  0.00     0.068 C 
BRANCH  27  28
ATOM     28  CG  TRP A   1      42.688 -15.804   2.549  1.00  0.00    -0.028 A 
ATOM     29  CD2 TRP A   1      43.076 -15.613   3.920  1.00  0.00    -0.002 A 
ATOM     30  CE2 TRP A   1      43.624 -16.812   4.375  1.00  0.00     0.042 A 
ATOM     31  CE3 TRP A   1      43.013 -14.527   4.817  1.00  0.00     0.014 A 
ATOM     32  CZ2 TRP A   1      44.096 -16.984   5.682  1.00  0.00     0.030 A 
ATOM     33  NE1 TRP A   1      43.593 -17.693   3.320  1.00  0.00    -0.365 N 
ATOM     34  CH2 TRP A   1      44.016 -15.894   6.552  1.00  0.00     0.002 A 
ATOM     35  CZ3 TRP A   1      43.487 -14.679   6.126  1.00  0.00     0.001 A 
ATOM     36  HE1 TRP A   1      43.935 -18.643   3.360  1.00  0.00     0.165 HD
ATOM     37  CD1 TRP A   1      43.054 -17.093   2.216  1.00  0.00     0.096 A 
ENDBRANCH  27  28
ENDBRANCH  23  27
ENDBRANCH   5  23
TORSDOF 8
ENDMDL
