MODEL 1
REMARK VINA RESULT:      -8.7      0.000      0.000
REMARK  5 active torsions:
REMARK  status: ('A' for Active; 'I' for Inactive)
REMARK    1  A    between atoms: C_4  and  N_5 
REMARK       I    between atoms: N_5  and  C_6 
REMARK    2  A    between atoms: C_6  and  C_7 
REMARK    3  A    between atoms: N_9  and  C_10 
REMARK    4  A    between atoms: C_10  and  C_11 
REMARK    5  A    between atoms: C_14  and  O_15 
ROOT
HETATM    1  C   UNL     1      43.275 -11.612   5.885  1.00  0.00     0.105 C 
HETATM    2  C   UNL     1      42.580 -10.621   6.804  1.00  0.00     0.140 C 
HETATM    3  N   UNL     1      43.667 -10.173   7.642  1.00  0.00    -0.347 N 
HETATM    4  C   UNL     1      44.667 -11.122   7.741  1.00  0.00     0.221 C 
HETATM    5  O   UNL     1      45.653 -11.079   8.457  1.00  0.00    -0.273 OA
HETATM    6  C   UNL     1      44.328 -12.248   6.795  1.00  0.00     0.118 C 
ENDROOT
BRANCH   1   7
HETATM    7  C   UNL     1      42.344 -12.631   5.260  1.00  0.00     0.228 C 
HETATM    8  N   UNL     1      43.038 -13.523   4.468  1.00  0.00    -0.325 N 
HETATM    9  H   UNL     1      44.046 -13.406   4.360  1.00  0.00     0.169 HD
HETATM   10  O   UNL     1      41.131 -12.598   5.430  1.00  0.00    -0.273 OA
BRANCH   8  11
HETATM   11  C   UNL     1      42.545 -14.575   3.659  1.00  0.00     0.065 A 
HETATM   12  C   UNL     1      41.609 -14.394   2.636  1.00  0.00     0.038 A 
HETATM   13  C   UNL     1      41.185 -15.482   1.865  1.00  0.00    -0.059 A 
HETATM   14  C   UNL     1      40.156 -15.297   0.789  1.00  0.00     0.048 C 
HETATM   15  C   UNL     1      41.689 -16.755   2.149  1.00  0.00     0.020 A 
HETATM   16  C   UNL     1      42.627 -16.943   3.177  1.00  0.00    -0.005 A 
HETATM   17  C   UNL     1      43.066 -15.848   3.947  1.00  0.00     0.093 A 
HETATM   18  C   UNL     1      43.155 -18.209   3.466  1.00  0.00     0.015 A 
HETATM   19  N   UNL     1      43.974 -15.992   4.945  1.00  0.00    -0.258 NA
HETATM   20  C   UNL     1      44.458 -17.230   5.191  1.00  0.00     0.117 A 
HETATM   21  C   UNL     1      44.085 -18.357   4.488  1.00  0.00     0.020 A 
ENDBRANCH   8  11
ENDBRANCH   1   7
BRANCH   3  22
HETATM   22  C   UNL     1      43.638  -8.935   8.392  1.00  0.00     0.164 C 
BRANCH  22  23
HETATM   23  C   UNL     1      42.983  -9.047   9.744  1.00  0.00    -0.040 A 
HETATM   24  C   UNL     1      41.589  -9.128   9.856  1.00  0.00     0.011 A 
HETATM   25  C   UNL     1      40.990  -9.332  11.101  1.00  0.00     0.037 A 
HETATM   26  C   UNL     1      41.771  -9.477  12.248  1.00  0.00     0.068 A 
HETATM   27  C   UNL     1      43.157  -9.352  12.153  1.00  0.00     0.037 A 
HETATM   28  C   UNL     1      43.758  -9.140  10.908  1.00  0.00     0.011 A 
BRANCH  26  29
HETATM   29  O   UNL     1      41.078  -9.718  13.403  1.00  0.00    -0.356 OA
HETATM   30  C   UNL     1      39.862 -10.443  13.248  1.00  0.00     0.210 C 
ENDBRANCH  26  29
ENDBRANCH  22  23
ENDBRANCH   3  22
TORSDOF 5
ENDMDL
MODEL 2
REMARK VINA RESULT:      -8.6      2.238      9.618
REMARK  5 active torsions:
REMARK  status: ('A' for Active; 'I' for Inactive)
REMARK    1  A    between atoms: C_4  and  N_5 
REMARK       I    between atoms: N_5  and  C_6 
REMARK    2  A    between atoms: C_6  and  C_7 
REMARK    3  A    between atoms: N_9  and  C_10 
REMARK    4  A    between atoms: C_10  and  C_11 
REMARK    5  A    between atoms: C_14  and  O_15 
ROOT
HETATM    1  C   UNL     1      44.113 -12.378   6.408  1.00  0.00     0.105 C 
HETATM    2  C   UNL     1      42.794 -13.129   6.485  1.00  0.00     0.140 C 
HETATM    3  N   UNL     1      42.591 -13.525   5.112  1.00  0.00    -0.347 N 
HETATM    4  C   UNL     1      43.224 -12.670   4.230  1.00  0.00     0.221 C 
HETATM    5  O   UNL     1      43.147 -12.681   3.013  1.00  0.00    -0.273 OA
HETATM    6  C   UNL     1      44.044 -11.697   5.040  1.00  0.00     0.118 C 
ENDROOT
BRANCH   1   7
HETATM    7  C   UNL     1      44.334 -11.400   7.543  1.00  0.00     0.228 C 
HETATM    8  N   UNL     1      43.200 -10.654   7.788  1.00  0.00    -0.325 N 
HETATM    9  H   UNL     1      42.377 -10.800   7.203  1.00  0.00     0.169 HD
HETATM   10  O   UNL     1      45.415 -11.292   8.110  1.00  0.00    -0.273 OA
BRANCH   8  11
HETATM   11  C   UNL     1      43.006  -9.594   8.707  1.00  0.00     0.065 A 
HETATM   12  C   UNL     1      43.287  -9.690  10.073  1.00  0.00     0.038 A 
HETATM   13  C   UNL     1      43.088  -8.591  10.915  1.00  0.00    -0.059 A 
HETATM   14  C   UNL     1      43.356  -8.700  12.388  1.00  0.00     0.048 C 
HETATM   15  C   UNL     1      42.579  -7.404  10.377  1.00  0.00     0.020 A 
HETATM   16  C   UNL     1      42.293  -7.302   9.006  1.00  0.00    -0.005 A 
HETATM   17  C   UNL     1      42.504  -8.404   8.153  1.00  0.00     0.093 A 
HETATM   18  C   UNL     1      41.798  -6.117   8.446  1.00  0.00     0.015 A 
HETATM   19  N   UNL     1      42.243  -8.340   6.823  1.00  0.00    -0.258 NA
HETATM   20  C   UNL     1      41.766  -7.179   6.323  1.00  0.00     0.117 A 
HETATM   21  C   UNL     1      41.530  -6.052   7.084  1.00  0.00     0.020 A 
ENDBRANCH   8  11
ENDBRANCH   1   7
BRANCH   3  22
HETATM   22  C   UNL     1      41.716 -14.609   4.715  1.00  0.00     0.164 C 
BRANCH  22  23
HETATM   23  C   UNL     1      42.435 -15.811   4.161  1.00  0.00    -0.040 A 
HETATM   24  C   UNL     1      43.360 -16.512   4.947  1.00  0.00     0.011 A 
HETATM   25  C   UNL     1      43.950 -17.684   4.467  1.00  0.00     0.037 A 
HETATM   26  C   UNL     1      43.614 -18.183   3.208  1.00  0.00     0.068 A 
HETATM   27  C   UNL     1      42.729 -17.467   2.402  1.00  0.00     0.037 A 
HETATM   28  C   UNL     1      42.143 -16.289   2.877  1.00  0.00     0.011 A 
BRANCH  26  29
HETATM   29  O   UNL     1      44.220 -19.360   2.863  1.00  0.00    -0.356 OA
HETATM   30  C   UNL     1      43.452 -20.225   2.034  1.00  0.00     0.210 C 
ENDBRANCH  26  29
ENDBRANCH  22  23
ENDBRANCH   3  22
TORSDOF 5
ENDMDL
MODEL 3
REMARK VINA RESULT:      -8.6      1.563      2.928
REMARK  5 active torsions:
REMARK  status: ('A' for Active; 'I' for Inactive)
REMARK    1  A    between atoms: C_4  and  N_5 
REMARK       I    between atoms: N_5  and  C_6 
REMARK    2  A    between atoms: C_6  and  C_7 
REMARK    3  A    between atoms: N_9  and  C_10 
REMARK    4  A    between atoms: C_10  and  C_11 
REMARK    5  A    between atoms: C_14  and  O_15 
ROOT
HETATM    1  C   UNL     1      43.258 -11.845   6.750  1.00  0.00     0.105 C 
HETATM    2  C   UNL     1      44.593 -11.521   7.400  1.00  0.00     0.140 C 
HETATM    3  N   UNL     1      44.289 -10.313   8.130  1.00  0.00    -0.347 N 
HETATM    4  C   UNL     1      43.241  -9.616   7.558  1.00  0.00     0.221 C 
HETATM    5  O   UNL     1      42.829  -8.514   7.881  1.00  0.00    -0.273 OA
HETATM    6  C   UNL     1      42.680 -10.462   6.443  1.00  0.00     0.118 C 
ENDROOT
BRANCH   1   7
HETATM    7  C   UNL     1      43.368 -12.724   5.521  1.00  0.00     0.228 C 
HETATM    8  N   UNL     1      42.814 -13.967   5.745  1.00  0.00    -0.325 N 
HETATM    9  H   UNL     1      42.431 -14.178   6.667  1.00  0.00     0.169 HD
HETATM   10  O   UNL     1      43.926 -12.348   4.497  1.00  0.00    -0.273 OA
BRANCH   8  11
HETATM   11  C   UNL     1      42.771 -15.096   4.891  1.00  0.00     0.065 A 
HETATM   12  C   UNL     1      43.633 -16.190   5.008  1.00  0.00     0.038 A 
HETATM   13  C   UNL     1      43.515 -17.279   4.137  1.00  0.00    -0.059 A 
HETATM   14  C   UNL     1      44.461 -18.441   4.237  1.00  0.00     0.048 C 
HETATM   15  C   UNL     1      42.541 -17.247   3.134  1.00  0.00     0.020 A 
HETATM   16  C   UNL     1      41.674 -16.149   3.011  1.00  0.00    -0.005 A 
HETATM   17  C   UNL     1      41.782 -15.056   3.894  1.00  0.00     0.093 A 
HETATM   18  C   UNL     1      40.681 -16.105   2.022  1.00  0.00     0.015 A 
HETATM   19  N   UNL     1      40.958 -13.982   3.807  1.00  0.00    -0.258 NA
HETATM   20  C   UNL     1      40.015 -13.979   2.839  1.00  0.00     0.117 A 
HETATM   21  C   UNL     1      39.838 -15.004   1.933  1.00  0.00     0.020 A 
ENDBRANCH   8  11
ENDBRANCH   1   7
BRANCH   3  22
HETATM   22  C   UNL     1      45.081  -9.832   9.243  1.00  0.00     0.164 C 
BRANCH  22  23
HETATM   23  C   UNL     1      44.327  -9.744  10.545  1.00  0.00    -0.040 A 
HETATM   24  C   UNL     1      44.023  -8.497  11.108  1.00  0.00     0.011 A 
HETATM   25  C   UNL     1      43.238  -8.415  12.261  1.00  0.00     0.037 A 
HETATM   26  C   UNL     1      42.731  -9.571  12.857  1.00  0.00     0.068 A 
HETATM   27  C   UNL     1      43.067 -10.817  12.329  1.00  0.00     0.037 A 
HETATM   28  C   UNL     1      43.859 -10.902  11.179  1.00  0.00     0.011 A 
BRANCH  26  29
HETATM   29  O   UNL     1      41.939  -9.366  13.953  1.00  0.00    -0.356 OA
HETATM   30  C   UNL     1      40.541  -9.290  13.695  1.00  0.00     0.210 C 
ENDBRANCH  26  29
ENDBRANCH  22  23
ENDBRANCH   3  22
TORSDOF 5
ENDMDL
MODEL 4
REMARK VINA RESULT:      -8.3      0.987      2.701
REMARK  5 active torsions:
REMARK  status: ('A' for Active; 'I' for Inactive)
REMARK    1  A    between atoms: C_4  and  N_5 
REMARK       I    between atoms: N_5  and  C_6 
REMARK    2  A    between atoms: C_6  and  C_7 
REMARK    3  A    between atoms: N_9  and  C_10 
REMARK    4  A    between atoms: C_10  and  C_11 
REMARK    5  A    between atoms: C_14  and  O_15 
ROOT
HETATM    1  C   UNL     1      43.625 -11.796   5.877  1.00  0.00     0.105 C 
HETATM    2  C   UNL     1      42.876 -10.983   6.920  1.00  0.00     0.140 C 
HETATM    3  N   UNL     1      43.933 -10.190   7.502  1.00  0.00    -0.347 N 
HETATM    4  C   UNL     1      45.164 -10.809   7.387  1.00  0.00     0.221 C 
HETATM    5  O   UNL     1      46.220 -10.440   7.874  1.00  0.00    -0.273 OA
HETATM    6  C   UNL     1      44.980 -12.045   6.542  1.00  0.00     0.118 C 
ENDROOT
BRANCH   1   7
HETATM    7  C   UNL     1      42.924 -13.076   5.472  1.00  0.00     0.228 C 
HETATM    8  N   UNL     1      43.313 -13.482   4.212  1.00  0.00    -0.325 N 
HETATM    9  H   UNL     1      43.974 -12.907   3.690  1.00  0.00     0.169 HD
HETATM   10  O   UNL     1      42.091 -13.619   6.188  1.00  0.00    -0.273 OA
BRANCH   8  11
HETATM   11  C   UNL     1      42.851 -14.576   3.441  1.00  0.00     0.065 A 
HETATM   12  C   UNL     1      43.311 -15.887   3.601  1.00  0.00     0.038 A 
HETATM   13  C   UNL     1      42.790 -16.920   2.813  1.00  0.00    -0.059 A 
HETATM   14  C   UNL     1      43.305 -18.322   2.958  1.00  0.00     0.048 C 
HETATM   15  C   UNL     1      41.824 -16.619   1.847  1.00  0.00     0.020 A 
HETATM   16  C   UNL     1      41.360 -15.304   1.681  1.00  0.00    -0.005 A 
HETATM   17  C   UNL     1      41.874 -14.263   2.481  1.00  0.00     0.093 A 
HETATM   18  C   UNL     1      40.382 -14.985   0.729  1.00  0.00     0.015 A 
HETATM   19  N   UNL     1      41.446 -12.983   2.350  1.00  0.00    -0.258 NA
HETATM   20  C   UNL     1      40.502 -12.718   1.421  1.00  0.00     0.117 A 
HETATM   21  C   UNL     1      39.945 -13.673   0.596  1.00  0.00     0.020 A 
ENDBRANCH   8  11
ENDBRANCH   1   7
BRANCH   3  22
HETATM   22  C   UNL     1      43.699  -8.964   8.235  1.00  0.00     0.164 C 
BRANCH  22  23
HETATM   23  C   UNL     1      43.054  -9.162   9.582  1.00  0.00    -0.040 A 
HETATM   24  C   UNL     1      41.668  -9.028   9.734  1.00  0.00     0.011 A 
HETATM   25  C   UNL     1      41.061  -9.311  10.960  1.00  0.00     0.037 A 
HETATM   26  C   UNL     1      41.823  -9.747  12.044  1.00  0.00     0.068 A 
HETATM   27  C   UNL     1      43.209  -9.840  11.915  1.00  0.00     0.037 A 
HETATM   28  C   UNL     1      43.820  -9.550  10.690  1.00  0.00     0.011 A 
BRANCH  26  29
HETATM   29  O   UNL     1      41.116 -10.037  13.179  1.00  0.00    -0.356 OA
HETATM   30  C   UNL     1      41.083  -9.006  14.161  1.00  0.00     0.210 C 
ENDBRANCH  26  29
ENDBRANCH  22  23
ENDBRANCH   3  22
TORSDOF 5
ENDMDL
MODEL 5
REMARK VINA RESULT:      -8.2      4.652      8.251
REMARK  5 active torsions:
REMARK  status: ('A' for Active; 'I' for Inactive)
REMARK    1  A    between atoms: C_4  and  N_5 
REMARK       I    between atoms: N_5  and  C_6 
REMARK    2  A    between atoms: C_6  and  C_7 
REMARK    3  A    between atoms: N_9  and  C_10 
REMARK    4  A    between atoms: C_10  and  C_11 
REMARK    5  A    between atoms: C_14  and  O_15 
ROOT
HETATM    1  C   UNL     1      40.835 -12.028   3.894  1.00  0.00     0.105 C 
HETATM    2  C   UNL     1      40.586 -13.524   3.794  1.00  0.00     0.140 C 
HETATM    3  N   UNL     1      41.460 -14.045   4.818  1.00  0.00    -0.347 N 
HETATM    4  C   UNL     1      42.534 -13.207   5.055  1.00  0.00     0.221 C 
HETATM    5  O   UNL     1      43.491 -13.426   5.778  1.00  0.00    -0.273 OA
HETATM    6  C   UNL     1      42.321 -11.949   4.251  1.00  0.00     0.118 C 
ENDROOT
BRANCH   1   7
HETATM    7  C   UNL     1      40.489 -11.259   2.636  1.00  0.00     0.228 C 
HETATM    8  N   UNL     1      41.100 -11.812   1.529  1.00  0.00    -0.325 N 
HETATM    9  H   UNL     1      41.711 -12.619   1.653  1.00  0.00     0.169 HD
HETATM   10  O   UNL     1      39.789 -10.254   2.657  1.00  0.00    -0.273 OA
BRANCH   8  11
HETATM   11  C   UNL     1      41.095 -11.363   0.186  1.00  0.00     0.065 A 
HETATM   12  C   UNL     1      41.572 -10.112  -0.216  1.00  0.00     0.038 A 
HETATM   13  C   UNL     1      41.551  -9.748  -1.567  1.00  0.00    -0.059 A 
HETATM   14  C   UNL     1      42.031  -8.393  -1.999  1.00  0.00     0.048 C 
HETATM   15  C   UNL     1      41.024 -10.642  -2.506  1.00  0.00     0.020 A 
HETATM   16  C   UNL     1      40.542 -11.899  -2.107  1.00  0.00    -0.005 A 
HETATM   17  C   UNL     1      40.572 -12.273  -0.749  1.00  0.00     0.093 A 
HETATM   18  C   UNL     1      40.024 -12.814  -3.034  1.00  0.00     0.015 A 
HETATM   19  N   UNL     1      40.118 -13.481  -0.329  1.00  0.00    -0.258 NA
HETATM   20  C   UNL     1      39.627 -14.334  -1.255  1.00  0.00     0.117 A 
HETATM   21  C   UNL     1      39.559 -14.050  -2.603  1.00  0.00     0.020 A 
ENDBRANCH   8  11
ENDBRANCH   1   7
BRANCH   3  22
HETATM   22  C   UNL     1      41.296 -15.353   5.418  1.00  0.00     0.164 C 
BRANCH  22  23
HETATM   23  C   UNL     1      42.058 -16.451   4.724  1.00  0.00    -0.040 A 
HETATM   24  C   UNL     1      41.870 -16.695   3.358  1.00  0.00     0.011 A 
HETATM   25  C   UNL     1      42.650 -17.646   2.695  1.00  0.00     0.037 A 
HETATM   26  C   UNL     1      43.639 -18.353   3.380  1.00  0.00     0.068 A 
HETATM   27  C   UNL     1      43.802 -18.149   4.750  1.00  0.00     0.037 A 
HETATM   28  C   UNL     1      43.017 -17.203   5.417  1.00  0.00     0.011 A 
BRANCH  26  29
HETATM   29  O   UNL     1      44.370 -19.224   2.619  1.00  0.00    -0.356 OA
HETATM   30  C   UNL     1      43.629 -20.274   2.007  1.00  0.00     0.210 C 
ENDBRANCH  26  29
ENDBRANCH  22  23
ENDBRANCH   3  22
TORSDOF 5
ENDMDL
MODEL 6
REMARK VINA RESULT:      -8.2      3.917      6.082
REMARK  5 active torsions:
REMARK  status: ('A' for Active; 'I' for Inactive)
REMARK    1  A    between atoms: C_4  and  N_5 
REMARK       I    between atoms: N_5  and  C_6 
REMARK    2  A    between atoms: C_6  and  C_7 
REMARK    3  A    between atoms: N_9  and  C_10 
REMARK    4  A    between atoms: C_10  and  C_11 
REMARK    5  A    between atoms: C_14  and  O_15 
ROOT
HETATM    1  C   UNL     1      40.236 -14.110   1.132  1.00  0.00     0.105 C 
HETATM    2  C   UNL     1      41.035 -12.998   1.791  1.00  0.00     0.140 C 
HETATM    3  N   UNL     1      40.953 -11.944   0.808  1.00  0.00    -0.347 N 
HETATM    4  C   UNL     1      40.764 -12.442  -0.468  1.00  0.00     0.221 C 
HETATM    5  O   UNL     1      40.764 -11.809  -1.510  1.00  0.00    -0.273 OA
HETATM    6  C   UNL     1      40.555 -13.931  -0.353  1.00  0.00     0.118 C 
ENDROOT
BRANCH   1   7
HETATM    7  C   UNL     1      40.569 -15.496   1.644  1.00  0.00     0.228 C 
HETATM    8  N   UNL     1      41.831 -15.534   2.201  1.00  0.00    -0.325 N 
HETATM    9  H   UNL     1      42.399 -14.686   2.193  1.00  0.00     0.169 HD
HETATM   10  O   UNL     1      39.801 -16.442   1.515  1.00  0.00    -0.273 OA
BRANCH   8  11
HETATM   11  C   UNL     1      42.546 -16.637   2.725  1.00  0.00     0.065 A 
HETATM   12  C   UNL     1      42.710 -17.849   2.048  1.00  0.00     0.038 A 
HETATM   13  C   UNL     1      43.449 -18.888   2.625  1.00  0.00    -0.059 A 
HETATM   14  C   UNL     1      43.598 -20.202   1.915  1.00  0.00     0.048 C 
HETATM   15  C   UNL     1      43.999 -18.707   3.898  1.00  0.00     0.020 A 
HETATM   16  C   UNL     1      43.836 -17.492   4.584  1.00  0.00    -0.005 A 
HETATM   17  C   UNL     1      43.103 -16.440   4.001  1.00  0.00     0.093 A 
HETATM   18  C   UNL     1      44.393 -17.287   5.854  1.00  0.00     0.015 A 
HETATM   19  N   UNL     1      42.929 -15.252   4.633  1.00  0.00    -0.258 NA
HETATM   20  C   UNL     1      43.482 -15.094   5.856  1.00  0.00     0.117 A 
HETATM   21  C   UNL     1      44.214 -16.070   6.501  1.00  0.00     0.020 A 
ENDBRANCH   8  11
ENDBRANCH   1   7
BRANCH   3  22
HETATM   22  C   UNL     1      41.179 -10.547   1.116  1.00  0.00     0.164 C 
BRANCH  22  23
HETATM   23  C   UNL     1      40.765 -10.147   2.508  1.00  0.00    -0.040 A 
HETATM   24  C   UNL     1      39.411  -9.981   2.829  1.00  0.00     0.011 A 
HETATM   25  C   UNL     1      39.024  -9.708   4.143  1.00  0.00     0.037 A 
HETATM   26  C   UNL     1      39.977  -9.615   5.157  1.00  0.00     0.068 A 
HETATM   27  C   UNL     1      41.330  -9.733   4.839  1.00  0.00     0.037 A 
HETATM   28  C   UNL     1      41.721  -9.999   3.522  1.00  0.00     0.011 A 
BRANCH  26  29
HETATM   29  O   UNL     1      39.479  -9.390   6.412  1.00  0.00    -0.356 OA
HETATM   30  C   UNL     1      39.150 -10.556   7.159  1.00  0.00     0.210 C 
ENDBRANCH  26  29
ENDBRANCH  22  23
ENDBRANCH   3  22
TORSDOF 5
ENDMDL
MODEL 7
REMARK VINA RESULT:      -8.1      5.517      8.093
REMARK  5 active torsions:
REMARK  status: ('A' for Active; 'I' for Inactive)
REMARK    1  A    between atoms: C_4  and  N_5 
REMARK       I    between atoms: N_5  and  C_6 
REMARK    2  A    between atoms: C_6  and  C_7 
REMARK    3  A    between atoms: N_9  and  C_10 
REMARK    4  A    between atoms: C_10  and  C_11 
REMARK    5  A    between atoms: C_14  and  O_15 
ROOT
HETATM    1  C   UNL     1      40.105 -14.392   0.993  1.00  0.00     0.105 C 
HETATM    2  C   UNL     1      41.218 -13.393   0.724  1.00  0.00     0.140 C 
HETATM    3  N   UNL     1      40.845 -12.865  -0.567  1.00  0.00    -0.347 N 
HETATM    4  C   UNL     1      40.091 -13.767  -1.294  1.00  0.00     0.221 C 
HETATM    5  O   UNL     1      39.722 -13.652  -2.451  1.00  0.00    -0.273 OA
HETATM    6  C   UNL     1      39.793 -14.944  -0.399  1.00  0.00     0.118 C 
ENDROOT
BRANCH   1   7
HETATM    7  C   UNL     1      40.474 -15.474   1.987  1.00  0.00     0.228 C 
HETATM    8  N   UNL     1      41.830 -15.731   1.966  1.00  0.00    -0.325 N 
HETATM    9  H   UNL     1      42.418 -15.222   1.306  1.00  0.00     0.169 HD
HETATM   10  O   UNL     1      39.634 -16.049   2.668  1.00  0.00    -0.273 OA
BRANCH   8  11
HETATM   11  C   UNL     1      42.568 -16.705   2.680  1.00  0.00     0.065 A 
HETATM   12  C   UNL     1      42.843 -17.985   2.189  1.00  0.00     0.038 A 
HETATM   13  C   UNL     1      43.598 -18.887   2.947  1.00  0.00    -0.059 A 
HETATM   14  C   UNL     1      43.867 -20.273   2.438  1.00  0.00     0.048 C 
HETATM   15  C   UNL     1      44.051 -18.500   4.213  1.00  0.00     0.020 A 
HETATM   16  C   UNL     1      43.776 -17.217   4.712  1.00  0.00    -0.005 A 
HETATM   17  C   UNL     1      43.026 -16.302   3.946  1.00  0.00     0.093 A 
HETATM   18  C   UNL     1      44.234 -16.806   5.972  1.00  0.00     0.015 A 
HETATM   19  N   UNL     1      42.745 -15.053   4.396  1.00  0.00    -0.258 NA
HETATM   20  C   UNL     1      43.205 -14.696   5.615  1.00  0.00     0.117 A 
HETATM   21  C   UNL     1      43.945 -15.526   6.432  1.00  0.00     0.020 A 
ENDBRANCH   8  11
ENDBRANCH   1   7
BRANCH   3  22
HETATM   22  C   UNL     1      41.324 -11.599  -1.080  1.00  0.00     0.164 C 
BRANCH  22  23
HETATM   23  C   UNL     1      40.739 -10.393  -0.392  1.00  0.00    -0.040 A 
HETATM   24  C   UNL     1      41.523  -9.254  -0.162  1.00  0.00     0.011 A 
HETATM   25  C   UNL     1      40.953  -8.103   0.385  1.00  0.00     0.037 A 
HETATM   26  C   UNL     1      39.593  -8.063   0.694  1.00  0.00     0.068 A 
HETATM   27  C   UNL     1      38.815  -9.207   0.512  1.00  0.00     0.037 A 
HETATM   28  C   UNL     1      39.386 -10.364  -0.029  1.00  0.00     0.011 A 
BRANCH  26  29
HETATM   29  O   UNL     1      39.137  -6.869   1.183  1.00  0.00    -0.356 OA
HETATM   30  C   UNL     1      40.065  -5.791   1.131  1.00  0.00     0.210 C 
ENDBRANCH  26  29
ENDBRANCH  22  23
ENDBRANCH   3  22
TORSDOF 5
ENDMDL
MODEL 8
REMARK VINA RESULT:      -8.1      2.480      9.154
REMARK  5 active torsions:
REMARK  status: ('A' for Active; 'I' for Inactive)
REMARK    1  A    between atoms: C_4  and  N_5 
REMARK       I    between atoms: N_5  and  C_6 
REMARK    2  A    between atoms: C_6  and  C_7 
REMARK    3  A    between atoms: N_9  and  C_10 
REMARK    4  A    between atoms: C_10  and  C_11 
REMARK    5  A    between atoms: C_14  and  O_15 
ROOT
HETATM    1  C   UNL     1      42.192 -12.320   5.501  1.00  0.00     0.105 C 
HETATM    2  C   UNL     1      41.116 -13.257   4.978  1.00  0.00     0.140 C 
HETATM    3  N   UNL     1      41.824 -13.988   3.953  1.00  0.00    -0.347 N 
HETATM    4  C   UNL     1      42.877 -13.258   3.434  1.00  0.00     0.221 C 
HETATM    5  O   UNL     1      43.586 -13.563   2.489  1.00  0.00    -0.273 OA
HETATM    6  C   UNL     1      43.006 -11.994   4.247  1.00  0.00     0.118 C 
ENDROOT
BRANCH   1   7
HETATM    7  C   UNL     1      41.652 -11.084   6.190  1.00  0.00     0.228 C 
HETATM    8  N   UNL     1      42.674 -10.306   6.695  1.00  0.00    -0.325 N 
HETATM    9  H   UNL     1      43.637 -10.626   6.589  1.00  0.00     0.169 HD
HETATM   10  O   UNL     1      40.451 -10.870   6.299  1.00  0.00    -0.273 OA
BRANCH   8  11
HETATM   11  C   UNL     1      42.601  -9.117   7.460  1.00  0.00     0.065 A 
HETATM   12  C   UNL     1      42.104  -7.907   6.968  1.00  0.00     0.038 A 
HETATM   13  C   UNL     1      42.045  -6.778   7.794  1.00  0.00    -0.059 A 
HETATM   14  C   UNL     1      41.544  -5.468   7.259  1.00  0.00     0.048 C 
HETATM   15  C   UNL     1      42.513  -6.871   9.109  1.00  0.00     0.020 A 
HETATM   16  C   UNL     1      43.014  -8.084   9.608  1.00  0.00    -0.005 A 
HETATM   17  C   UNL     1      43.064  -9.226   8.783  1.00  0.00     0.093 A 
HETATM   18  C   UNL     1      43.473  -8.201  10.927  1.00  0.00     0.015 A 
HETATM   19  N   UNL     1      43.538 -10.414   9.233  1.00  0.00    -0.258 NA
HETATM   20  C   UNL     1      43.971 -10.485  10.511  1.00  0.00     0.117 A 
HETATM   21  C   UNL     1      43.958  -9.419  11.388  1.00  0.00     0.020 A 
ENDBRANCH   8  11
ENDBRANCH   1   7
BRANCH   3  22
HETATM   22  C   UNL     1      41.390 -15.273   3.446  1.00  0.00     0.164 C 
BRANCH  22  23
HETATM   23  C   UNL     1      42.351 -16.401   3.718  1.00  0.00    -0.040 A 
HETATM   24  C   UNL     1      42.774 -16.676   5.025  1.00  0.00     0.011 A 
HETATM   25  C   UNL     1      43.585 -17.782   5.288  1.00  0.00     0.037 A 
HETATM   26  C   UNL     1      43.971 -18.639   4.256  1.00  0.00     0.068 A 
HETATM   27  C   UNL     1      43.592 -18.347   2.946  1.00  0.00     0.037 A 
HETATM   28  C   UNL     1      42.786 -17.235   2.680  1.00  0.00     0.011 A 
BRANCH  26  29
HETATM   29  O   UNL     1      44.727 -19.714   4.638  1.00  0.00    -0.356 OA
HETATM   30  C   UNL     1      44.037 -20.717   5.376  1.00  0.00     0.210 C 
ENDBRANCH  26  29
ENDBRANCH  22  23
ENDBRANCH   3  22
TORSDOF 5
ENDMDL
MODEL 9
REMARK VINA RESULT:      -8.1      2.302      9.489
REMARK  5 active torsions:
REMARK  status: ('A' for Active; 'I' for Inactive)
REMARK    1  A    between atoms: C_4  and  N_5 
REMARK       I    between atoms: N_5  and  C_6 
REMARK    2  A    between atoms: C_6  and  C_7 
REMARK    3  A    between atoms: N_9  and  C_10 
REMARK    4  A    between atoms: C_10  and  C_11 
REMARK    5  A    between atoms: C_14  and  O_15 
ROOT
HETATM    1  C   UNL     1      44.250 -11.289   8.121  1.00  0.00     0.105 C 
HETATM    2  C   UNL     1      43.195 -10.900   7.098  1.00  0.00     0.140 C 
HETATM    3  N   UNL     1      43.846 -11.230   5.852  1.00  0.00    -0.347 N 
HETATM    4  C   UNL     1      45.224 -11.182   5.962  1.00  0.00     0.221 C 
HETATM    5  O   UNL     1      46.036 -11.304   5.061  1.00  0.00    -0.273 OA
HETATM    6  C   UNL     1      45.562 -10.945   7.413  1.00  0.00     0.118 C 
ENDROOT
BRANCH   1   7
HETATM    7  C   UNL     1      44.101 -10.591   9.457  1.00  0.00     0.228 C 
HETATM    8  N   UNL     1      42.910  -9.898   9.529  1.00  0.00    -0.325 N 
HETATM    9  H   UNL     1      42.290  -9.896   8.719  1.00  0.00     0.169 HD
HETATM   10  O   UNL     1      44.975 -10.629  10.314  1.00  0.00    -0.273 OA
BRANCH   8  11
HETATM   11  C   UNL     1      42.420  -9.065  10.563  1.00  0.00     0.065 A 
HETATM   12  C   UNL     1      43.183  -8.664  11.664  1.00  0.00     0.038 A 
HETATM   13  C   UNL     1      42.632  -7.821  12.637  1.00  0.00    -0.059 A 
HETATM   14  C   UNL     1      43.437  -7.416  13.837  1.00  0.00     0.048 C 
HETATM   15  C   UNL     1      41.303  -7.407  12.506  1.00  0.00     0.020 A 
HETATM   16  C   UNL     1      40.531  -7.808  11.403  1.00  0.00    -0.005 A 
HETATM   17  C   UNL     1      41.086  -8.647  10.416  1.00  0.00     0.093 A 
HETATM   18  C   UNL     1      39.202  -7.391  11.247  1.00  0.00     0.015 A 
HETATM   19  N   UNL     1      40.371  -9.051   9.336  1.00  0.00    -0.258 NA
HETATM   20  C   UNL     1      39.093  -8.626   9.223  1.00  0.00     0.117 A 
HETATM   21  C   UNL     1      38.471  -7.805  10.141  1.00  0.00     0.020 A 
ENDBRANCH   8  11
ENDBRANCH   1   7
BRANCH   3  22
HETATM   22  C   UNL     1      43.131 -11.450   4.612  1.00  0.00     0.164 C 
BRANCH  22  23
HETATM   23  C   UNL     1      43.135 -12.882   4.144  1.00  0.00    -0.040 A 
HETATM   24  C   UNL     1      42.906 -13.928   5.047  1.00  0.00     0.011 A 
HETATM   25  C   UNL     1      42.810 -15.246   4.594  1.00  0.00     0.037 A 
HETATM   26  C   UNL     1      42.923 -15.538   3.235  1.00  0.00     0.068 A 
HETATM   27  C   UNL     1      43.197 -14.508   2.334  1.00  0.00     0.037 A 
HETATM   28  C   UNL     1      43.301 -13.189   2.786  1.00  0.00     0.011 A 
BRANCH  26  29
HETATM   29  O   UNL     1      42.767 -16.856   2.903  1.00  0.00    -0.356 OA
HETATM   30  C   UNL     1      43.609 -17.767   3.600  1.00  0.00     0.210 C 
ENDBRANCH  26  29
ENDBRANCH  22  23
ENDBRANCH   3  22
TORSDOF 5
ENDMDL
MODEL 10
REMARK VINA RESULT:      -8.1      5.415      9.451
REMARK  5 active torsions:
REMARK  status: ('A' for Active; 'I' for Inactive)
REMARK    1  A    between atoms: C_4  and  N_5 
REMARK       I    between atoms: N_5  and  C_6 
REMARK    2  A    between atoms: C_6  and  C_7 
REMARK    3  A    between atoms: N_9  and  C_10 
REMARK    4  A    between atoms: C_10  and  C_11 
REMARK    5  A    between atoms: C_14  and  O_15 
ROOT
HETATM    1  C   UNL     1      39.994 -14.154   0.523  1.00  0.00     0.105 C 
HETATM    2  C   UNL     1      41.100 -13.146   0.257  1.00  0.00     0.140 C 
HETATM    3  N   UNL     1      40.775 -12.685  -1.073  1.00  0.00    -0.347 N 
HETATM    4  C   UNL     1      40.070 -13.634  -1.789  1.00  0.00     0.221 C 
HETATM    5  O   UNL     1      39.752 -13.580  -2.965  1.00  0.00    -0.273 OA
HETATM    6  C   UNL     1      39.754 -14.775  -0.854  1.00  0.00     0.118 C 
ENDROOT
BRANCH   1   7
HETATM    7  C   UNL     1      40.337 -15.182   1.581  1.00  0.00     0.228 C 
HETATM    8  N   UNL     1      41.700 -15.383   1.659  1.00  0.00    -0.325 N 
HETATM    9  H   UNL     1      42.311 -14.875   1.019  1.00  0.00     0.169 HD
HETATM   10  O   UNL     1      39.476 -15.765   2.228  1.00  0.00    -0.273 OA
BRANCH   8  11
HETATM   11  C   UNL     1      42.427 -16.298   2.458  1.00  0.00     0.065 A 
HETATM   12  C   UNL     1      42.740 -17.600   2.057  1.00  0.00     0.038 A 
HETATM   13  C   UNL     1      43.481 -18.440   2.896  1.00  0.00    -0.059 A 
HETATM   14  C   UNL     1      43.791 -19.850   2.483  1.00  0.00     0.048 C 
HETATM   15  C   UNL     1      43.879 -17.969   4.152  1.00  0.00     0.020 A 
HETATM   16  C   UNL     1      43.565 -16.663   4.561  1.00  0.00    -0.005 A 
HETATM   17  C   UNL     1      42.830 -15.810   3.713  1.00  0.00     0.093 A 
HETATM   18  C   UNL     1      43.969 -16.168   5.809  1.00  0.00     0.015 A 
HETATM   19  N   UNL     1      42.513 -14.542   4.074  1.00  0.00    -0.258 NA
HETATM   20  C   UNL     1      42.921 -14.103   5.286  1.00  0.00     0.117 A 
HETATM   21  C   UNL     1      43.643 -14.869   6.178  1.00  0.00     0.020 A 
ENDBRANCH   8  11
ENDBRANCH   1   7
BRANCH   3  22
HETATM   22  C   UNL     1      41.253 -11.434  -1.622  1.00  0.00     0.164 C 
BRANCH  22  23
HETATM   23  C   UNL     1      40.161 -10.462  -1.985  1.00  0.00    -0.040 A 
HETATM   24  C   UNL     1      39.176 -10.115  -1.050  1.00  0.00     0.011 A 
HETATM   25  C   UNL     1      38.224  -9.139  -1.355  1.00  0.00     0.037 A 
HETATM   26  C   UNL     1      38.251  -8.483  -2.586  1.00  0.00     0.068 A 
HETATM   27  C   UNL     1      39.199  -8.854  -3.539  1.00  0.00     0.037 A 
HETATM   28  C   UNL     1      40.148  -9.837  -3.240  1.00  0.00     0.011 A 
BRANCH  26  29
HETATM   29  O   UNL     1      37.298  -7.516  -2.755  1.00  0.00    -0.356 OA
HETATM   30  C   UNL     1      37.673  -6.426  -3.591  1.00  0.00     0.210 C 
ENDBRANCH  26  29
ENDBRANCH  22  23
ENDBRANCH   3  22
TORSDOF 5
ENDMDL
