MODEL 1
REMARK VINA RESULT:      -8.5      0.000      0.000
REMARK  6 active torsions:
REMARK  status: ('A' for Active; 'I' for Inactive)
REMARK    1  A    between atoms: N_2  and  C_4 
REMARK    2  A    between atoms: C_4  and  C_5 
REMARK    3  A    between atoms: C_5  and  C_6 
REMARK    4  A    between atoms: C_6  and  N_7 
REMARK    5  A    between atoms: C_17  and  C_18 
REMARK    6  A    between atoms: C_26  and  O_27 
ROOT
HETATM    1  N   UNL     1      40.397 -11.950   0.627  1.00  0.00    -0.327 N 
HETATM    2  C   UNL     1      40.438 -12.783   1.672  1.00  0.00     0.113 C 
HETATM    3  N   UNL     1      39.620 -13.806   1.839  1.00  0.00    -0.385 N 
HETATM    4  H   UNL     1      39.688 -14.424   2.640  1.00  0.00     0.157 HD
HETATM    5  H   UNL     1      38.828 -14.009   1.248  1.00  0.00     0.157 HD
HETATM    6  C   UNL     1      41.515 -12.543   2.689  1.00  0.00     0.052 C 
HETATM    7  C   UNL     1      42.299 -11.458   2.542  1.00  0.00     0.182 C 
HETATM    8  O   UNL     1      43.330 -11.148   3.414  1.00  0.00    -0.291 OA
HETATM    9  C   UNL     1      43.450 -11.829   4.597  1.00  0.00     0.087 A 
HETATM   10  C   UNL     1      42.685 -12.961   4.886  1.00  0.00    -0.011 A 
HETATM   11  C   UNL     1      41.714 -13.491   3.858  1.00  0.00     0.095 C 
HETATM   12  C   UNL     1      44.378 -11.330   5.514  1.00  0.00     0.074 A 
HETATM   13  C   UNL     1      44.528 -11.966   6.739  1.00  0.00     0.068 A 
HETATM   14  C   UNL     1      43.768 -13.085   7.056  1.00  0.00     0.037 A 
HETATM   15  C   UNL     1      42.847 -13.584   6.134  1.00  0.00     0.014 A 
HETATM   16  N   UNL     1      42.134 -10.557   1.530  1.00  0.00    -0.219 NA
HETATM   17  C   UNL     1      41.225 -10.772   0.656  1.00  0.00     0.214 C 
ENDROOT
BRANCH   1  18
HETATM   18  C   UNL     1      39.459 -12.072  -0.515  1.00  0.00     0.133 C 
BRANCH  18  19
HETATM   19  C   UNL     1      40.008 -12.948  -1.657  1.00  0.00     0.048 C 
BRANCH  19  20
HETATM   20  C   UNL     1      39.412 -12.625  -3.029  1.00  0.00     0.235 C 
BRANCH  20  21
HETATM   21  N   UNL     1      38.317 -13.611  -3.398  1.00  0.00    -0.079 N 
HETATM   22  C   UNL     1      36.941 -13.226  -2.897  1.00  0.00     0.269 C 
HETATM   23  H   UNL     1      38.245 -13.675  -4.423  1.00  0.00     0.278 HD
HETATM   24  C   UNL     1      38.652 -15.018  -2.939  1.00  0.00     0.269 C 
ENDBRANCH  20  21
ENDBRANCH  19  20
ENDBRANCH  18  19
ENDBRANCH   1  18
BRANCH  11  25
HETATM   25  C   UNL     1      42.108 -14.892   3.386  1.00  0.00    -0.045 A 
HETATM   26  C   UNL     1      43.051 -15.054   2.355  1.00  0.00     0.010 A 
HETATM   27  C   UNL     1      43.424 -16.329   1.925  1.00  0.00     0.024 A 
HETATM   28  C   UNL     1      42.843 -17.454   2.507  1.00  0.00     0.034 A 
HETATM   29 CL   UNL     1      43.317 -19.024   1.993  1.00  0.00    -0.084 Cl
HETATM   30  C   UNL     1      41.881 -17.314   3.503  1.00  0.00     0.024 A 
HETATM   31  C   UNL     1      41.511 -16.040   3.939  1.00  0.00     0.010 A 
ENDBRANCH  11  25
BRANCH  13  32
HETATM   32  O   UNL     1      45.414 -11.523   7.673  1.00  0.00    -0.361 OA
HETATM   33  H   UNL     1      45.818 -10.689   7.380  1.00  0.00     0.217 HD
ENDBRANCH  13  32
TORSDOF 6
ENDMDL
MODEL 2
REMARK VINA RESULT:      -8.2      1.476      2.615
REMARK  6 active torsions:
REMARK  status: ('A' for Active; 'I' for Inactive)
REMARK    1  A    between atoms: N_2  and  C_4 
REMARK    2  A    between atoms: C_4  and  C_5 
REMARK    3  A    between atoms: C_5  and  C_6 
REMARK    4  A    between atoms: C_6  and  N_7 
REMARK    5  A    between atoms: C_17  and  C_18 
REMARK    6  A    between atoms: C_26  and  O_27 
ROOT
HETATM    1  N   UNL     1      40.160 -12.071   0.726  1.00  0.00    -0.327 N 
HETATM    2  C   UNL     1      40.323 -12.864   1.790  1.00  0.00     0.113 C 
HETATM    3  N   UNL     1      39.542 -13.888   2.079  1.00  0.00    -0.385 N 
HETATM    4  H   UNL     1      39.703 -14.476   2.890  1.00  0.00     0.157 HD
HETATM    5  H   UNL     1      38.694 -14.121   1.584  1.00  0.00     0.157 HD
HETATM    6  C   UNL     1      41.499 -12.577   2.676  1.00  0.00     0.052 C 
HETATM    7  C   UNL     1      42.248 -11.491   2.408  1.00  0.00     0.182 C 
HETATM    8  O   UNL     1      43.361 -11.139   3.153  1.00  0.00    -0.291 OA
HETATM    9  C   UNL     1      43.616 -11.774   4.341  1.00  0.00     0.087 A 
HETATM   10  C   UNL     1      42.902 -12.902   4.750  1.00  0.00    -0.011 A 
HETATM   11  C   UNL     1      41.834 -13.479   3.850  1.00  0.00     0.095 C 
HETATM   12  C   UNL     1      44.629 -11.233   5.135  1.00  0.00     0.074 A 
HETATM   13  C   UNL     1      44.917 -11.823   6.359  1.00  0.00     0.068 A 
HETATM   14  C   UNL     1      44.211 -12.937   6.794  1.00  0.00     0.037 A 
HETATM   15  C   UNL     1      43.204 -13.478   5.994  1.00  0.00     0.014 A 
HETATM   16  N   UNL     1      41.964 -10.629   1.388  1.00  0.00    -0.219 NA
HETATM   17  C   UNL     1      40.970 -10.885   0.624  1.00  0.00     0.214 C 
ENDROOT
BRANCH   1  18
HETATM   18  C   UNL     1      39.108 -12.244  -0.305  1.00  0.00     0.133 C 
BRANCH  18  19
HETATM   19  C   UNL     1      37.981 -11.200  -0.202  1.00  0.00     0.048 C 
BRANCH  19  20
HETATM   20  C   UNL     1      37.234 -11.222   1.134  1.00  0.00     0.235 C 
BRANCH  20  21
HETATM   21  N   UNL     1      37.403  -9.909   1.878  1.00  0.00    -0.079 N 
HETATM   22  C   UNL     1      37.879  -8.762   1.012  1.00  0.00     0.269 C 
HETATM   23  H   UNL     1      36.496  -9.618   2.271  1.00  0.00     0.278 HD
HETATM   24  C   UNL     1      38.320 -10.057   3.078  1.00  0.00     0.269 C 
ENDBRANCH  20  21
ENDBRANCH  19  20
ENDBRANCH  18  19
ENDBRANCH   1  18
BRANCH  11  25
HETATM   25  C   UNL     1      42.194 -14.893   3.389  1.00  0.00    -0.045 A 
HETATM   26  C   UNL     1      41.676 -16.012   4.066  1.00  0.00     0.010 A 
HETATM   27  C   UNL     1      41.991 -17.306   3.645  1.00  0.00     0.024 A 
HETATM   28  C   UNL     1      42.842 -17.495   2.558  1.00  0.00     0.034 A 
HETATM   29 CL   UNL     1      43.213 -19.086   2.028  1.00  0.00    -0.084 Cl
HETATM   30  C   UNL     1      43.394 -16.401   1.899  1.00  0.00     0.024 A 
HETATM   31  C   UNL     1      43.076 -15.105   2.313  1.00  0.00     0.010 A 
ENDBRANCH  11  25
BRANCH  13  32
HETATM   32  O   UNL     1      45.891 -11.337   7.176  1.00  0.00    -0.361 OA
HETATM   33  H   UNL     1      45.573 -10.542   7.637  1.00  0.00     0.217 HD
ENDBRANCH  13  32
TORSDOF 6
ENDMDL
MODEL 3
REMARK VINA RESULT:      -7.6      3.263      4.588
REMARK  6 active torsions:
REMARK  status: ('A' for Active; 'I' for Inactive)
REMARK    1  A    between atoms: N_2  and  C_4 
REMARK    2  A    between atoms: C_4  and  C_5 
REMARK    3  A    between atoms: C_5  and  C_6 
REMARK    4  A    between atoms: C_6  and  N_7 
REMARK    5  A    between atoms: C_17  and  C_18 
REMARK    6  A    between atoms: C_26  and  O_27 
ROOT
HETATM    1  N   UNL     1      40.564 -13.661   0.783  1.00  0.00    -0.327 N 
HETATM    2  C   UNL     1      41.301 -13.215   1.806  1.00  0.00     0.113 C 
HETATM    3  N   UNL     1      41.793 -11.993   1.888  1.00  0.00    -0.385 N 
HETATM    4  H   UNL     1      42.338 -11.685   2.686  1.00  0.00     0.157 HD
HETATM    5  H   UNL     1      41.742 -11.303   1.153  1.00  0.00     0.157 HD
HETATM    6  C   UNL     1      41.538 -14.169   2.938  1.00  0.00     0.052 C 
HETATM    7  C   UNL     1      41.088 -15.433   2.812  1.00  0.00     0.182 C 
HETATM    8  O   UNL     1      41.243 -16.391   3.799  1.00  0.00    -0.291 OA
HETATM    9  C   UNL     1      42.063 -16.144   4.869  1.00  0.00     0.087 A 
HETATM   10  C   UNL     1      42.613 -14.882   5.109  1.00  0.00    -0.011 A 
HETATM   11  C   UNL     1      42.273 -13.731   4.192  1.00  0.00     0.095 C 
HETATM   12  C   UNL     1      42.334 -17.222   5.713  1.00  0.00     0.074 A 
HETATM   13  C   UNL     1      43.176 -17.035   6.801  1.00  0.00     0.068 A 
HETATM   14  C   UNL     1      43.746 -15.794   7.053  1.00  0.00     0.037 A 
HETATM   15  C   UNL     1      43.468 -14.718   6.210  1.00  0.00     0.014 A 
HETATM   16  N   UNL     1      40.456 -15.884   1.690  1.00  0.00    -0.219 NA
HETATM   17  C   UNL     1      40.241 -15.064   0.731  1.00  0.00     0.214 C 
ENDROOT
BRANCH   1  18
HETATM   18  C   UNL     1      40.156 -12.845  -0.385  1.00  0.00     0.133 C 
BRANCH  18  19
HETATM   19  C   UNL     1      40.187 -13.627  -1.711  1.00  0.00     0.048 C 
BRANCH  19  20
HETATM   20  C   UNL     1      39.691 -12.826  -2.917  1.00  0.00     0.235 C 
BRANCH  20  21
HETATM   21  N   UNL     1      38.345 -13.337  -3.399  1.00  0.00    -0.079 N 
HETATM   22  C   UNL     1      37.160 -12.768  -2.648  1.00  0.00     0.269 C 
HETATM   23  H   UNL     1      38.213 -13.077  -4.387  1.00  0.00     0.278 HD
HETATM   24  C   UNL     1      38.281 -14.852  -3.381  1.00  0.00     0.269 C 
ENDBRANCH  20  21
ENDBRANCH  19  20
ENDBRANCH  18  19
ENDBRANCH   1  18
BRANCH  11  25
HETATM   25  C   UNL     1      41.513 -12.629   4.934  1.00  0.00    -0.045 A 
HETATM   26  C   UNL     1      42.162 -11.431   5.281  1.00  0.00     0.010 A 
HETATM   27  C   UNL     1      41.473 -10.416   5.949  1.00  0.00     0.024 A 
HETATM   28  C   UNL     1      40.136 -10.597   6.295  1.00  0.00     0.034 A 
HETATM   29 CL   UNL     1      39.282  -9.341   7.098  1.00  0.00    -0.084 Cl
HETATM   30  C   UNL     1      39.486 -11.790   5.993  1.00  0.00     0.024 A 
HETATM   31  C   UNL     1      40.171 -12.805   5.319  1.00  0.00     0.010 A 
ENDBRANCH  11  25
BRANCH  13  32
HETATM   32  O   UNL     1      43.478 -18.051   7.656  1.00  0.00    -0.361 OA
HETATM   33  H   UNL     1      43.830 -17.693   8.487  1.00  0.00     0.217 HD
ENDBRANCH  13  32
TORSDOF 6
ENDMDL
MODEL 4
REMARK VINA RESULT:      -7.4     16.392     18.520
REMARK  6 active torsions:
REMARK  status: ('A' for Active; 'I' for Inactive)
REMARK    1  A    between atoms: N_2  and  C_4 
REMARK    2  A    between atoms: C_4  and  C_5 
REMARK    3  A    between atoms: C_5  and  C_6 
REMARK    4  A    between atoms: C_6  and  N_7 
REMARK    5  A    between atoms: C_17  and  C_18 
REMARK    6  A    between atoms: C_26  and  O_27 
ROOT
HETATM    1  N   UNL     1      42.624 -31.571   2.819  1.00  0.00    -0.327 N 
HETATM    2  C   UNL     1      43.349 -30.513   2.441  1.00  0.00     0.113 C 
HETATM    3  N   UNL     1      43.753 -29.560   3.260  1.00  0.00    -0.385 N 
HETATM    4  H   UNL     1      44.312 -28.777   2.939  1.00  0.00     0.157 HD
HETATM    5  H   UNL     1      43.482 -29.483   4.229  1.00  0.00     0.157 HD
HETATM    6  C   UNL     1      43.750 -30.446   0.997  1.00  0.00     0.052 C 
HETATM    7  C   UNL     1      43.275 -31.388   0.159  1.00  0.00     0.182 C 
HETATM    8  O   UNL     1      43.590 -31.428  -1.189  1.00  0.00    -0.291 OA
HETATM    9  C   UNL     1      44.233 -30.367  -1.771  1.00  0.00     0.087 A 
HETATM   10  C   UNL     1      44.758 -29.312  -1.021  1.00  0.00    -0.011 A 
HETATM   11  C   UNL     1      44.658 -29.343   0.486  1.00  0.00     0.095 C 
HETATM   12  C   UNL     1      44.334 -30.384  -3.163  1.00  0.00     0.074 A 
HETATM   13  C   UNL     1      44.957 -29.324  -3.810  1.00  0.00     0.068 A 
HETATM   14  C   UNL     1      45.475 -28.257  -3.087  1.00  0.00     0.037 A 
HETATM   15  C   UNL     1      45.377 -28.247  -1.695  1.00  0.00     0.014 A 
HETATM   16  N   UNL     1      42.425 -32.377   0.563  1.00  0.00    -0.219 NA
HETATM   17  C   UNL     1      42.097 -32.441   1.798  1.00  0.00     0.214 C 
ENDROOT
BRANCH   1  18
HETATM   18  C   UNL     1      42.201 -31.853   4.211  1.00  0.00     0.133 C 
BRANCH  18  19
HETATM   19  C   UNL     1      40.799 -31.308   4.541  1.00  0.00     0.048 C 
BRANCH  19  20
HETATM   20  C   UNL     1      40.010 -32.177   5.522  1.00  0.00     0.235 C 
BRANCH  20  21
HETATM   21  N   UNL     1      38.660 -32.567   4.946  1.00  0.00    -0.079 N 
HETATM   22  C   UNL     1      37.844 -33.477   5.840  1.00  0.00     0.269 C 
HETATM   23  H   UNL     1      38.092 -31.721   4.799  1.00  0.00     0.278 HD
HETATM   24  C   UNL     1      38.797 -33.192   3.570  1.00  0.00     0.269 C 
ENDBRANCH  20  21
ENDBRANCH  19  20
ENDBRANCH  18  19
ENDBRANCH   1  18
BRANCH  11  25
HETATM   25  C   UNL     1      46.041 -29.406   1.138  1.00  0.00    -0.045 A 
HETATM   26  C   UNL     1      46.816 -30.576   1.044  1.00  0.00     0.010 A 
HETATM   27  C   UNL     1      48.084 -30.638   1.628  1.00  0.00     0.024 A 
HETATM   28  C   UNL     1      48.581 -29.541   2.326  1.00  0.00     0.034 A 
HETATM   29 CL   UNL     1      50.149 -29.609   3.026  1.00  0.00    -0.084 Cl
HETATM   30  C   UNL     1      47.814 -28.387   2.461  1.00  0.00     0.024 A 
HETATM   31  C   UNL     1      46.549 -28.319   1.874  1.00  0.00     0.010 A 
ENDBRANCH  11  25
BRANCH  13  32
HETATM   32  O   UNL     1      45.082 -29.285  -5.165  1.00  0.00    -0.361 OA
HETATM   33  H   UNL     1      45.144 -30.188  -5.519  1.00  0.00     0.217 HD
ENDBRANCH  13  32
TORSDOF 6
ENDMDL
MODEL 5
REMARK VINA RESULT:      -7.4      3.951      8.307
REMARK  6 active torsions:
REMARK  status: ('A' for Active; 'I' for Inactive)
REMARK    1  A    between atoms: N_2  and  C_4 
REMARK    2  A    between atoms: C_4  and  C_5 
REMARK    3  A    between atoms: C_5  and  C_6 
REMARK    4  A    between atoms: C_6  and  N_7 
REMARK    5  A    between atoms: C_17  and  C_18 
REMARK    6  A    between atoms: C_26  and  O_27 
ROOT
HETATM    1  N   UNL     1      40.895 -13.758   3.572  1.00  0.00    -0.327 N 
HETATM    2  C   UNL     1      40.092 -12.965   2.854  1.00  0.00     0.113 C 
HETATM    3  N   UNL     1      39.516 -11.873   3.321  1.00  0.00    -0.385 N 
HETATM    4  H   UNL     1      38.922 -11.288   2.744  1.00  0.00     0.157 HD
HETATM    5  H   UNL     1      39.548 -11.575   4.285  1.00  0.00     0.157 HD
HETATM    6  C   UNL     1      39.876 -13.339   1.417  1.00  0.00     0.052 C 
HETATM    7  C   UNL     1      40.414 -14.490   0.971  1.00  0.00     0.182 C 
HETATM    8  O   UNL     1      40.288 -14.925  -0.338  1.00  0.00    -0.291 OA
HETATM    9  C   UNL     1      39.413 -14.296  -1.184  1.00  0.00     0.087 A 
HETATM   10  C   UNL     1      38.772 -13.104  -0.841  1.00  0.00    -0.011 A 
HETATM   11  C   UNL     1      39.068 -12.451   0.489  1.00  0.00     0.095 C 
HETATM   12  C   UNL     1      39.185 -14.910  -2.417  1.00  0.00     0.074 A 
HETATM   13  C   UNL     1      38.292 -14.329  -3.308  1.00  0.00     0.068 A 
HETATM   14  C   UNL     1      37.630 -13.151  -2.983  1.00  0.00     0.037 A 
HETATM   15  C   UNL     1      37.867 -12.538  -1.753  1.00  0.00     0.014 A 
HETATM   16  N   UNL     1      41.116 -15.340   1.777  1.00  0.00    -0.219 NA
HETATM   17  C   UNL     1      41.312 -15.011   2.997  1.00  0.00     0.214 C 
ENDROOT
BRANCH   1  18
HETATM   18  C   UNL     1      41.290 -13.510   4.979  1.00  0.00     0.133 C 
BRANCH  18  19
HETATM   19  C   UNL     1      40.320 -14.136   5.999  1.00  0.00     0.048 C 
BRANCH  19  20
HETATM   20  C   UNL     1      40.743 -15.523   6.488  1.00  0.00     0.235 C 
BRANCH  20  21
HETATM   21  N   UNL     1      42.253 -15.681   6.449  1.00  0.00    -0.079 N 
HETATM   22  C   UNL     1      42.725 -16.982   5.836  1.00  0.00     0.269 C 
HETATM   23  H   UNL     1      42.663 -14.927   5.879  1.00  0.00     0.278 HD
HETATM   24  C   UNL     1      42.870 -15.512   7.825  1.00  0.00     0.269 C 
ENDBRANCH  20  21
ENDBRANCH  19  20
ENDBRANCH  18  19
ENDBRANCH   1  18
BRANCH  11  25
HETATM   25  C   UNL     1      39.724 -11.081   0.306  1.00  0.00    -0.045 A 
HETATM   26  C   UNL     1      41.063 -10.988  -0.115  1.00  0.00     0.010 A 
HETATM   27  C   UNL     1      41.667  -9.741  -0.294  1.00  0.00     0.024 A 
HETATM   28  C   UNL     1      40.947  -8.577  -0.035  1.00  0.00     0.034 A 
HETATM   29 CL   UNL     1      41.683  -7.044  -0.276  1.00  0.00    -0.084 Cl
HETATM   30  C   UNL     1      39.633  -8.650   0.417  1.00  0.00     0.024 A 
HETATM   31  C   UNL     1      39.023  -9.895   0.591  1.00  0.00     0.010 A 
ENDBRANCH  11  25
BRANCH  13  32
HETATM   32  O   UNL     1      38.027 -14.885  -4.522  1.00  0.00    -0.361 OA
HETATM   33  H   UNL     1      37.237 -14.474  -4.911  1.00  0.00     0.217 HD
ENDBRANCH  13  32
TORSDOF 6
ENDMDL
MODEL 6
REMARK VINA RESULT:      -7.3      3.037      6.766
REMARK  6 active torsions:
REMARK  status: ('A' for Active; 'I' for Inactive)
REMARK    1  A    between atoms: N_2  and  C_4 
REMARK    2  A    between atoms: C_4  and  C_5 
REMARK    3  A    between atoms: C_5  and  C_6 
REMARK    4  A    between atoms: C_6  and  N_7 
REMARK    5  A    between atoms: C_17  and  C_18 
REMARK    6  A    between atoms: C_26  and  O_27 
ROOT
HETATM    1  N   UNL     1      40.317 -10.339   3.512  1.00  0.00    -0.327 N 
HETATM    2  C   UNL     1      41.001 -11.116   2.667  1.00  0.00     0.113 C 
HETATM    3  N   UNL     1      42.286 -11.395   2.788  1.00  0.00    -0.385 N 
HETATM    4  H   UNL     1      42.770 -11.999   2.133  1.00  0.00     0.157 HD
HETATM    5  H   UNL     1      42.900 -10.980   3.473  1.00  0.00     0.157 HD
HETATM    6  C   UNL     1      40.231 -11.732   1.536  1.00  0.00     0.052 C 
HETATM    7  C   UNL     1      38.937 -11.387   1.384  1.00  0.00     0.182 C 
HETATM    8  O   UNL     1      38.131 -11.902   0.383  1.00  0.00    -0.291 OA
HETATM    9  C   UNL     1      38.689 -12.629  -0.636  1.00  0.00     0.087 A 
HETATM   10  C   UNL     1      40.024 -13.038  -0.614  1.00  0.00    -0.011 A 
HETATM   11  C   UNL     1      40.888 -12.711   0.581  1.00  0.00     0.095 C 
HETATM   12  C   UNL     1      37.855 -12.941  -1.712  1.00  0.00     0.074 A 
HETATM   13  C   UNL     1      38.372 -13.657  -2.783  1.00  0.00     0.068 A 
HETATM   14  C   UNL     1      39.700 -14.063  -2.792  1.00  0.00     0.037 A 
HETATM   15  C   UNL     1      40.528 -13.755  -1.712  1.00  0.00     0.014 A 
HETATM   16  N   UNL     1      38.313 -10.482   2.193  1.00  0.00    -0.219 NA
HETATM   17  C   UNL     1      38.968  -9.970   3.166  1.00  0.00     0.214 C 
ENDROOT
BRANCH   1  18
HETATM   18  C   UNL     1      40.884  -9.709   4.729  1.00  0.00     0.133 C 
BRANCH  18  19
HETATM   19  C   UNL     1      40.716 -10.574   5.992  1.00  0.00     0.048 C 
BRANCH  19  20
HETATM   20  C   UNL     1      41.914 -11.478   6.290  1.00  0.00     0.235 C 
BRANCH  20  21
HETATM   21  N   UNL     1      41.504 -12.940   6.320  1.00  0.00    -0.079 N 
HETATM   22  C   UNL     1      42.384 -13.848   5.488  1.00  0.00     0.269 C 
HETATM   23  H   UNL     1      41.558 -13.291   7.287  1.00  0.00     0.278 HD
HETATM   24  C   UNL     1      40.054 -13.124   5.917  1.00  0.00     0.269 C 
ENDBRANCH  20  21
ENDBRANCH  19  20
ENDBRANCH  18  19
ENDBRANCH   1  18
BRANCH  11  25
HETATM   25  C   UNL     1      41.349 -13.979   1.303  1.00  0.00    -0.045 A 
HETATM   26  C   UNL     1      42.715 -14.310   1.352  1.00  0.00     0.010 A 
HETATM   27  C   UNL     1      43.145 -15.460   2.018  1.00  0.00     0.024 A 
HETATM   28  C   UNL     1      42.214 -16.300   2.624  1.00  0.00     0.034 A 
HETATM   29 CL   UNL     1      42.744 -17.703   3.461  1.00  0.00    -0.084 Cl
HETATM   30  C   UNL     1      40.855 -16.009   2.555  1.00  0.00     0.024 A 
HETATM   31  C   UNL     1      40.422 -14.856   1.895  1.00  0.00     0.010 A 
ENDBRANCH  11  25
BRANCH  13  32
HETATM   32  O   UNL     1      37.607 -13.986  -3.860  1.00  0.00    -0.361 OA
HETATM   33  H   UNL     1      37.865 -14.860  -4.197  1.00  0.00     0.217 HD
ENDBRANCH  13  32
TORSDOF 6
ENDMDL
MODEL 7
REMARK VINA RESULT:      -7.3      3.584      6.326
REMARK  6 active torsions:
REMARK  status: ('A' for Active; 'I' for Inactive)
REMARK    1  A    between atoms: N_2  and  C_4 
REMARK    2  A    between atoms: C_4  and  C_5 
REMARK    3  A    between atoms: C_5  and  C_6 
REMARK    4  A    between atoms: C_6  and  N_7 
REMARK    5  A    between atoms: C_17  and  C_18 
REMARK    6  A    between atoms: C_26  and  O_27 
ROOT
HETATM    1  N   UNL     1      42.924 -15.539   5.373  1.00  0.00    -0.327 N 
HETATM    2  C   UNL     1      42.731 -14.579   4.463  1.00  0.00     0.113 C 
HETATM    3  N   UNL     1      43.465 -14.427   3.376  1.00  0.00    -0.385 N 
HETATM    4  H   UNL     1      43.282 -13.693   2.701  1.00  0.00     0.157 HD
HETATM    5  H   UNL     1      44.298 -14.958   3.168  1.00  0.00     0.157 HD
HETATM    6  C   UNL     1      41.575 -13.650   4.691  1.00  0.00     0.052 C 
HETATM    7  C   UNL     1      40.875 -13.773   5.835  1.00  0.00     0.182 C 
HETATM    8  O   UNL     1      39.784 -12.977   6.142  1.00  0.00    -0.291 OA
HETATM    9  C   UNL     1      39.508 -11.874   5.378  1.00  0.00     0.087 A 
HETATM   10  C   UNL     1      40.171 -11.616   4.176  1.00  0.00    -0.011 A 
HETATM   11  C   UNL     1      41.206 -12.592   3.667  1.00  0.00     0.095 C 
HETATM   12  C   UNL     1      38.526 -11.007   5.862  1.00  0.00     0.074 A 
HETATM   13  C   UNL     1      38.218  -9.862   5.139  1.00  0.00     0.068 A 
HETATM   14  C   UNL     1      38.875  -9.575   3.949  1.00  0.00     0.037 A 
HETATM   15  C   UNL     1      39.850 -10.448   3.466  1.00  0.00     0.014 A 
HETATM   16  N   UNL     1      41.192 -14.683   6.802  1.00  0.00    -0.219 NA
HETATM   17  C   UNL     1      42.168 -15.484   6.598  1.00  0.00     0.214 C 
ENDROOT
BRANCH   1  18
HETATM   18  C   UNL     1      43.960 -16.596   5.281  1.00  0.00     0.133 C 
BRANCH  18  19
HETATM   19  C   UNL     1      43.383 -17.980   4.928  1.00  0.00     0.048 C 
BRANCH  19  20
HETATM   20  C   UNL     1      44.336 -18.861   4.117  1.00  0.00     0.235 C 
BRANCH  20  21
HETATM   21  N   UNL     1      43.916 -18.925   2.659  1.00  0.00    -0.079 N 
HETATM   22  C   UNL     1      42.788 -17.982   2.296  1.00  0.00     0.269 C 
HETATM   23  H   UNL     1      44.713 -18.665   2.060  1.00  0.00     0.278 HD
HETATM   24  C   UNL     1      43.555 -20.337   2.240  1.00  0.00     0.269 C 
ENDBRANCH  20  21
ENDBRANCH  19  20
ENDBRANCH  18  19
ENDBRANCH   1  18
BRANCH  11  25
HETATM   25  C   UNL     1      40.777 -13.219   2.339  1.00  0.00    -0.045 A 
HETATM   26  C   UNL     1      40.073 -14.437   2.325  1.00  0.00     0.010 A 
HETATM   27  C   UNL     1      39.669 -15.011   1.117  1.00  0.00     0.024 A 
HETATM   28  C   UNL     1      39.982 -14.386  -0.088  1.00  0.00     0.034 A 
HETATM   29 CL   UNL     1      39.467 -15.081  -1.572  1.00  0.00    -0.084 Cl
HETATM   30  C   UNL     1      40.710 -13.200  -0.096  1.00  0.00     0.024 A 
HETATM   31  C   UNL     1      41.110 -12.619   1.110  1.00  0.00     0.010 A 
ENDBRANCH  11  25
BRANCH  13  32
HETATM   32  O   UNL     1      37.273  -8.979   5.564  1.00  0.00    -0.361 OA
HETATM   33  H   UNL     1      37.622  -8.073   5.526  1.00  0.00     0.217 HD
ENDBRANCH  13  32
TORSDOF 6
ENDMDL
MODEL 8
REMARK VINA RESULT:      -7.2      3.570      6.368
REMARK  6 active torsions:
REMARK  status: ('A' for Active; 'I' for Inactive)
REMARK    1  A    between atoms: N_2  and  C_4 
REMARK    2  A    between atoms: C_4  and  C_5 
REMARK    3  A    between atoms: C_5  and  C_6 
REMARK    4  A    between atoms: C_6  and  N_7 
REMARK    5  A    between atoms: C_17  and  C_18 
REMARK    6  A    between atoms: C_26  and  O_27 
ROOT
HETATM    1  N   UNL     1      41.216 -16.002   2.503  1.00  0.00    -0.327 N 
HETATM    2  C   UNL     1      41.133 -15.257   3.610  1.00  0.00     0.113 C 
HETATM    3  N   UNL     1      41.576 -15.636   4.795  1.00  0.00    -0.385 N 
HETATM    4  H   UNL     1      41.507 -15.039   5.612  1.00  0.00     0.157 HD
HETATM    5  H   UNL     1      41.935 -16.555   5.006  1.00  0.00     0.157 HD
HETATM    6  C   UNL     1      40.531 -13.891   3.466  1.00  0.00     0.052 C 
HETATM    7  C   UNL     1      40.023 -13.542   2.268  1.00  0.00     0.182 C 
HETATM    8  O   UNL     1      39.455 -12.303   2.020  1.00  0.00    -0.291 OA
HETATM    9  C   UNL     1      39.190 -11.454   3.062  1.00  0.00     0.087 A 
HETATM   10  C   UNL     1      39.642 -11.704   4.359  1.00  0.00    -0.011 A 
HETATM   11  C   UNL     1      40.485 -12.927   4.637  1.00  0.00     0.095 C 
HETATM   12  C   UNL     1      38.434 -10.318   2.766  1.00  0.00     0.074 A 
HETATM   13  C   UNL     1      38.117  -9.432   3.787  1.00  0.00     0.068 A 
HETATM   14  C   UNL     1      38.542  -9.665   5.089  1.00  0.00     0.037 A 
HETATM   15  C   UNL     1      39.303 -10.798   5.378  1.00  0.00     0.014 A 
HETATM   16  N   UNL     1      40.008 -14.388   1.196  1.00  0.00    -0.219 NA
HETATM   17  C   UNL     1      40.536 -15.547   1.318  1.00  0.00     0.214 C 
ENDROOT
BRANCH   1  18
HETATM   18  C   UNL     1      41.848 -17.341   2.430  1.00  0.00     0.133 C 
BRANCH  18  19
HETATM   19  C   UNL     1      43.377 -17.280   2.253  1.00  0.00     0.048 C 
BRANCH  19  20
HETATM   20  C   UNL     1      44.154 -18.111   3.276  1.00  0.00     0.235 C 
BRANCH  20  21
HETATM   21  N   UNL     1      43.611 -19.527   3.359  1.00  0.00    -0.079 N 
HETATM   22  C   UNL     1      44.148 -20.331   4.524  1.00  0.00     0.269 C 
HETATM   23  H   UNL     1      42.588 -19.496   3.475  1.00  0.00     0.278 HD
HETATM   24  C   UNL     1      43.834 -20.290   2.067  1.00  0.00     0.269 C 
ENDBRANCH  20  21
ENDBRANCH  19  20
ENDBRANCH  18  19
ENDBRANCH   1  18
BRANCH  11  25
HETATM   25  C   UNL     1      41.890 -12.544   5.107  1.00  0.00    -0.045 A 
HETATM   26  C   UNL     1      42.769 -11.871   4.238  1.00  0.00     0.010 A 
HETATM   27  C   UNL     1      44.049 -11.508   4.662  1.00  0.00     0.024 A 
HETATM   28  C   UNL     1      44.471 -11.832   5.950  1.00  0.00     0.034 A 
HETATM   29 CL   UNL     1      46.038 -11.367   6.480  1.00  0.00    -0.084 Cl
HETATM   30  C   UNL     1      43.629 -12.529   6.812  1.00  0.00     0.024 A 
HETATM   31  C   UNL     1      42.346 -12.888   6.393  1.00  0.00     0.010 A 
ENDBRANCH  11  25
BRANCH  13  32
HETATM   32  O   UNL     1      37.380  -8.310   3.558  1.00  0.00    -0.361 OA
HETATM   33  H   UNL     1      36.541  -8.545   3.127  1.00  0.00     0.217 HD
ENDBRANCH  13  32
TORSDOF 6
ENDMDL
MODEL 9
REMARK VINA RESULT:      -7.1      3.423      5.031
REMARK  6 active torsions:
REMARK  status: ('A' for Active; 'I' for Inactive)
REMARK    1  A    between atoms: N_2  and  C_4 
REMARK    2  A    between atoms: C_4  and  C_5 
REMARK    3  A    between atoms: C_5  and  C_6 
REMARK    4  A    between atoms: C_6  and  N_7 
REMARK    5  A    between atoms: C_17  and  C_18 
REMARK    6  A    between atoms: C_26  and  O_27 
ROOT
HETATM    1  N   UNL     1      41.007 -13.328   0.772  1.00  0.00    -0.327 N 
HETATM    2  C   UNL     1      41.673 -12.957   1.870  1.00  0.00     0.113 C 
HETATM    3  N   UNL     1      42.163 -11.747   2.068  1.00  0.00    -0.385 N 
HETATM    4  H   UNL     1      42.653 -11.498   2.920  1.00  0.00     0.157 HD
HETATM    5  H   UNL     1      42.166 -11.010   1.379  1.00  0.00     0.157 HD
HETATM    6  C   UNL     1      41.828 -13.987   2.951  1.00  0.00     0.052 C 
HETATM    7  C   UNL     1      41.383 -15.235   2.710  1.00  0.00     0.182 C 
HETATM    8  O   UNL     1      41.465 -16.258   3.639  1.00  0.00    -0.291 OA
HETATM    9  C   UNL     1      42.211 -16.089   4.777  1.00  0.00     0.087 A 
HETATM   10  C   UNL     1      42.747 -14.851   5.138  1.00  0.00    -0.011 A 
HETATM   11  C   UNL     1      42.476 -13.638   4.278  1.00  0.00     0.095 C 
HETATM   12  C   UNL     1      42.418 -17.223   5.564  1.00  0.00     0.074 A 
HETATM   13  C   UNL     1      43.183 -17.116   6.717  1.00  0.00     0.068 A 
HETATM   14  C   UNL     1      43.740 -15.899   7.090  1.00  0.00     0.037 A 
HETATM   15  C   UNL     1      43.525 -14.767   6.304  1.00  0.00     0.014 A 
HETATM   16  N   UNL     1      40.829 -15.605   1.519  1.00  0.00    -0.219 NA
HETATM   17  C   UNL     1      40.684 -14.722   0.605  1.00  0.00     0.214 C 
ENDROOT
BRANCH   1  18
HETATM   18  C   UNL     1      40.684 -12.433  -0.364  1.00  0.00     0.133 C 
BRANCH  18  19
HETATM   19  C   UNL     1      39.266 -11.838  -0.284  1.00  0.00     0.048 C 
BRANCH  19  20
HETATM   20  C   UNL     1      39.223 -10.405   0.251  1.00  0.00     0.235 C 
BRANCH  20  21
HETATM   21  N   UNL     1      38.188 -10.263   1.354  1.00  0.00    -0.079 N 
HETATM   22  C   UNL     1      38.721 -10.542   2.744  1.00  0.00     0.269 C 
HETATM   23  H   UNL     1      37.834  -9.296   1.368  1.00  0.00     0.278 HD
HETATM   24  C   UNL     1      36.967 -11.124   1.093  1.00  0.00     0.269 C 
ENDBRANCH  20  21
ENDBRANCH  19  20
ENDBRANCH  18  19
ENDBRANCH   1  18
BRANCH  11  25
HETATM   25  C   UNL     1      41.670 -12.582   5.038  1.00  0.00    -0.045 A 
HETATM   26  C   UNL     1      42.269 -11.363   5.404  1.00  0.00     0.010 A 
HETATM   27  C   UNL     1      41.538 -10.389   6.089  1.00  0.00     0.024 A 
HETATM   28  C   UNL     1      40.210 -10.632   6.432  1.00  0.00     0.034 A 
HETATM   29 CL   UNL     1      39.304  -9.427   7.255  1.00  0.00    -0.084 Cl
HETATM   30  C   UNL     1      39.611 -11.847   6.111  1.00  0.00     0.024 A 
HETATM   31  C   UNL     1      40.337 -12.820   5.421  1.00  0.00     0.010 A 
ENDBRANCH  11  25
BRANCH  13  32
HETATM   32  O   UNL     1      43.421 -18.189   7.521  1.00  0.00    -0.361 OA
HETATM   33  H   UNL     1      43.444 -19.003   6.992  1.00  0.00     0.217 HD
ENDBRANCH  13  32
TORSDOF 6
ENDMDL
MODEL 10
REMARK VINA RESULT:      -7.1     16.420     18.814
REMARK  6 active torsions:
REMARK  status: ('A' for Active; 'I' for Inactive)
REMARK    1  A    between atoms: N_2  and  C_4 
REMARK    2  A    between atoms: C_4  and  C_5 
REMARK    3  A    between atoms: C_5  and  C_6 
REMARK    4  A    between atoms: C_6  and  N_7 
REMARK    5  A    between atoms: C_17  and  C_18 
REMARK    6  A    between atoms: C_26  and  O_27 
ROOT
HETATM    1  N   UNL     1      42.746 -31.818   2.806  1.00  0.00    -0.327 N 
HETATM    2  C   UNL     1      43.431 -30.723   2.463  1.00  0.00     0.113 C 
HETATM    3  N   UNL     1      43.818 -29.793   3.317  1.00  0.00    -0.385 N 
HETATM    4  H   UNL     1      44.348 -28.979   3.022  1.00  0.00     0.157 HD
HETATM    5  H   UNL     1      43.560 -29.766   4.292  1.00  0.00     0.157 HD
HETATM    6  C   UNL     1      43.808 -30.581   1.018  1.00  0.00     0.052 C 
HETATM    7  C   UNL     1      43.351 -31.502   0.148  1.00  0.00     0.182 C 
HETATM    8  O   UNL     1      43.646 -31.475  -1.205  1.00  0.00    -0.291 OA
HETATM    9  C   UNL     1      44.246 -30.370  -1.750  1.00  0.00     0.087 A 
HETATM   10  C   UNL     1      44.750 -29.332  -0.963  1.00  0.00    -0.011 A 
HETATM   11  C   UNL     1      44.674 -29.429   0.543  1.00  0.00     0.095 C 
HETATM   12  C   UNL     1      44.327 -30.325  -3.143  1.00  0.00     0.074 A 
HETATM   13  C   UNL     1      44.906 -29.219  -3.752  1.00  0.00     0.068 A 
HETATM   14  C   UNL     1      45.401 -28.167  -2.992  1.00  0.00     0.037 A 
HETATM   15  C   UNL     1      45.324 -28.220  -1.600  1.00  0.00     0.014 A 
HETATM   16  N   UNL     1      42.539 -32.534   0.521  1.00  0.00    -0.219 NA
HETATM   17  C   UNL     1      42.232 -32.661   1.757  1.00  0.00     0.214 C 
ENDROOT
BRANCH   1  18
HETATM   18  C   UNL     1      42.354 -32.172   4.191  1.00  0.00     0.133 C 
BRANCH  18  19
HETATM   19  C   UNL     1      43.145 -33.366   4.758  1.00  0.00     0.048 C 
BRANCH  19  20
HETATM   20  C   UNL     1      44.632 -33.078   4.976  1.00  0.00     0.235 C 
BRANCH  20  21
HETATM   21  N   UNL     1      44.832 -31.965   5.990  1.00  0.00    -0.079 N 
HETATM   22  C   UNL     1      46.271 -31.522   6.149  1.00  0.00     0.269 C 
HETATM   23  H   UNL     1      44.304 -31.132   5.693  1.00  0.00     0.278 HD
HETATM   24  C   UNL     1      44.257 -32.330   7.345  1.00  0.00     0.269 C 
ENDBRANCH  20  21
ENDBRANCH  19  20
ENDBRANCH  18  19
ENDBRANCH   1  18
BRANCH  11  25
HETATM   25  C   UNL     1      46.068 -29.475   1.172  1.00  0.00    -0.045 A 
HETATM   26  C   UNL     1      46.568 -28.360   1.868  1.00  0.00     0.010 A 
HETATM   27  C   UNL     1      47.835 -28.397   2.455  1.00  0.00     0.024 A 
HETATM   28  C   UNL     1      48.622 -29.540   2.334  1.00  0.00     0.034 A 
HETATM   29 CL   UNL     1      50.173 -29.594   3.073  1.00  0.00    -0.084 Cl
HETATM   30  C   UNL     1      48.160 -30.640   1.618  1.00  0.00     0.024 A 
HETATM   31  C   UNL     1      46.891 -30.609   1.036  1.00  0.00     0.010 A 
ENDBRANCH  11  25
BRANCH  13  32
HETATM   32  O   UNL     1      45.009 -29.119  -5.106  1.00  0.00    -0.361 OA
HETATM   33  H   UNL     1      44.915 -28.191  -5.379  1.00  0.00     0.217 HD
ENDBRANCH  13  32
TORSDOF 6
ENDMDL
