MODEL 1
REMARK VINA RESULT:      -8.2      0.000      0.000
REMARK  6 active torsions:
REMARK  status: ('A' for Active; 'I' for Inactive)
REMARK    1  A    between atoms: C_2  and  O_3 
REMARK    2  A    between atoms: O_3  and  C_4 
REMARK    3  A    between atoms: C_8  and  C_9 
REMARK    4  A    between atoms: C_9  and  N_10 
REMARK       I    between atoms: N_10  and  C_11 
REMARK       I    between atoms: C_11  and  N_12 
REMARK    5  A    between atoms: N_12  and  C_13 
REMARK    6  A    between atoms: C_14  and  C_15 
ROOT
HETATM    1  N   UNL     1      41.989 -11.604   6.760  1.00  0.00    -0.339 N 
HETATM    2  C   UNL     1      43.322 -11.304   6.852  1.00  0.00     0.316 C 
HETATM    3  N   UNL     1      43.659 -10.824   8.095  1.00  0.00    -0.338 N 
HETATM    4  O   UNL     1      44.115 -11.448   5.931  1.00  0.00    -0.247 OA
HETATM    5  H   UNL     1      41.377 -11.390   7.531  1.00  0.00     0.164 HD
HETATM    6  H   UNL     1      43.006 -10.987   8.848  1.00  0.00     0.164 HD
ENDROOT
BRANCH   1   7
HETATM    7  C   UNL     1      41.399 -12.090   5.532  1.00  0.00     0.163 C 
BRANCH   7   8
HETATM    8  C   UNL     1      41.305 -13.593   5.496  1.00  0.00    -0.035 A 
HETATM    9  C   UNL     1      40.430 -14.295   6.330  1.00  0.00     0.028 A 
HETATM   10  C   UNL     1      40.437 -15.680   6.288  1.00  0.00     0.120 A 
HETATM   11  N   UNL     1      41.260 -16.406   5.503  1.00  0.00    -0.237 NA
HETATM   12  C   UNL     1      42.122 -15.719   4.733  1.00  0.00     0.165 A 
HETATM   13  C   UNL     1      42.169 -14.333   4.684  1.00  0.00     0.066 A 
BRANCH  12  14
HETATM   14  O   UNL     1      43.011 -16.377   3.915  1.00  0.00    -0.324 OA
BRANCH  14  15
HETATM   15  C   UNL     1      42.678 -16.602   2.532  1.00  0.00     0.058 C 
HETATM   16  C   UNL     1      43.526 -15.747   1.580  1.00  0.00     0.045 C 
HETATM   17  C   UNL     1      41.173 -16.472   2.246  1.00  0.00     0.045 C 
HETATM   18  C   UNL     1      43.063 -18.076   2.300  1.00  0.00     0.045 C 
ENDBRANCH  14  15
ENDBRANCH  12  14
ENDBRANCH   7   8
ENDBRANCH   1   7
BRANCH   3  19
HETATM   19  C   UNL     1      45.013 -10.514   8.459  1.00  0.00     0.095 A 
HETATM   20  C   UNL     1      45.381  -9.977   9.828  1.00  0.00     0.043 A 
HETATM   21  C   UNL     1      45.434  -9.083   8.613  1.00  0.00     0.037 A 
BRANCH  20  22
HETATM   22  C   UNL     1      44.330  -9.762  10.893  1.00  0.00    -0.052 A 
HETATM   23  C   UNL     1      43.814 -10.843  11.630  1.00  0.00     0.007 A 
HETATM   24  C   UNL     1      42.846 -10.655  12.620  1.00  0.00     0.001 A 
HETATM   25  C   UNL     1      42.381  -9.374  12.903  1.00  0.00     0.000 A 
HETATM   26  C   UNL     1      42.886  -8.284  12.200  1.00  0.00     0.001 A 
HETATM   27  C   UNL     1      43.852  -8.479  11.209  1.00  0.00     0.007 A 
ENDBRANCH  20  22
ENDBRANCH   3  19
TORSDOF 6
ENDMDL
MODEL 2
REMARK VINA RESULT:      -7.9      2.376      8.712
REMARK  6 active torsions:
REMARK  status: ('A' for Active; 'I' for Inactive)
REMARK    1  A    between atoms: C_2  and  O_3 
REMARK    2  A    between atoms: O_3  and  C_4 
REMARK    3  A    between atoms: C_8  and  C_9 
REMARK    4  A    between atoms: C_9  and  N_10 
REMARK       I    between atoms: N_10  and  C_11 
REMARK       I    between atoms: C_11  and  N_12 
REMARK    5  A    between atoms: N_12  and  C_13 
REMARK    6  A    between atoms: C_14  and  C_15 
ROOT
HETATM    1  N   UNL     1      42.222 -11.698   3.172  1.00  0.00    -0.339 N 
HETATM    2  C   UNL     1      41.043 -12.387   3.079  1.00  0.00     0.316 C 
HETATM    3  N   UNL     1      41.074 -13.335   2.085  1.00  0.00    -0.338 N 
HETATM    4  O   UNL     1      40.075 -12.179   3.800  1.00  0.00    -0.247 OA
HETATM    5  H   UNL     1      42.951 -11.867   2.499  1.00  0.00     0.164 HD
HETATM    6  H   UNL     1      41.981 -13.606   1.731  1.00  0.00     0.164 HD
ENDROOT
BRANCH   1   7
HETATM    7  C   UNL     1      42.406 -10.626   4.125  1.00  0.00     0.163 C 
BRANCH   7   8
HETATM    8  C   UNL     1      43.103 -11.085   5.379  1.00  0.00    -0.035 A 
HETATM    9  C   UNL     1      43.780 -12.307   5.438  1.00  0.00     0.028 A 
HETATM   10  C   UNL     1      44.347 -12.696   6.642  1.00  0.00     0.120 A 
HETATM   11  N   UNL     1      44.270 -11.975   7.780  1.00  0.00    -0.237 NA
HETATM   12  C   UNL     1      43.585 -10.819   7.717  1.00  0.00     0.165 A 
HETATM   13  C   UNL     1      43.008 -10.332   6.554  1.00  0.00     0.066 A 
BRANCH  12  14
HETATM   14  O   UNL     1      43.438 -10.030   8.834  1.00  0.00    -0.324 OA
BRANCH  14  15
HETATM   15  C   UNL     1      44.426  -9.026   9.134  1.00  0.00     0.058 C 
HETATM   16  C   UNL     1      43.862  -7.602   9.035  1.00  0.00     0.045 C 
HETATM   17  C   UNL     1      45.723  -9.197   8.325  1.00  0.00     0.045 C 
HETATM   18  C   UNL     1      44.772  -9.286  10.614  1.00  0.00     0.045 C 
ENDBRANCH  14  15
ENDBRANCH  12  14
ENDBRANCH   7   8
ENDBRANCH   1   7
BRANCH   3  19
HETATM   19  C   UNL     1      39.983 -14.238   1.845  1.00  0.00     0.095 A 
HETATM   20  C   UNL     1      40.045 -15.703   2.231  1.00  0.00     0.043 A 
HETATM   21  C   UNL     1      40.105 -15.287   0.781  1.00  0.00     0.037 A 
BRANCH  20  22
HETATM   22  C   UNL     1      41.262 -16.282   2.915  1.00  0.00    -0.052 A 
HETATM   23  C   UNL     1      41.406 -16.219   4.312  1.00  0.00     0.007 A 
HETATM   24  C   UNL     1      42.524 -16.756   4.955  1.00  0.00     0.001 A 
HETATM   25  C   UNL     1      43.521 -17.380   4.210  1.00  0.00     0.000 A 
HETATM   26  C   UNL     1      43.396 -17.471   2.827  1.00  0.00     0.001 A 
HETATM   27  C   UNL     1      42.276 -16.930   2.190  1.00  0.00     0.007 A 
ENDBRANCH  20  22
ENDBRANCH   3  19
TORSDOF 6
ENDMDL
MODEL 3
REMARK VINA RESULT:      -7.7      5.495      8.145
REMARK  6 active torsions:
REMARK  status: ('A' for Active; 'I' for Inactive)
REMARK    1  A    between atoms: C_2  and  O_3 
REMARK    2  A    between atoms: O_3  and  C_4 
REMARK    3  A    between atoms: C_8  and  C_9 
REMARK    4  A    between atoms: C_9  and  N_10 
REMARK       I    between atoms: N_10  and  C_11 
REMARK       I    between atoms: C_11  and  N_12 
REMARK    5  A    between atoms: N_12  and  C_13 
REMARK    6  A    between atoms: C_14  and  C_15 
ROOT
HETATM    1  N   UNL     1      40.475 -14.758   4.324  1.00  0.00    -0.339 N 
HETATM    2  C   UNL     1      41.672 -14.722   4.988  1.00  0.00     0.316 C 
HETATM    3  N   UNL     1      42.093 -15.975   5.364  1.00  0.00    -0.338 N 
HETATM    4  O   UNL     1      42.290 -13.691   5.218  1.00  0.00    -0.247 OA
HETATM    5  H   UNL     1      39.982 -15.632   4.235  1.00  0.00     0.164 HD
HETATM    6  H   UNL     1      41.659 -16.766   4.910  1.00  0.00     0.164 HD
ENDROOT
BRANCH   1   7
HETATM    7  C   UNL     1      39.820 -13.554   3.865  1.00  0.00     0.163 C 
BRANCH   7   8
HETATM    8  C   UNL     1      40.300 -13.121   2.504  1.00  0.00    -0.035 A 
HETATM    9  C   UNL     1      40.925 -11.888   2.304  1.00  0.00     0.028 A 
HETATM   10  C   UNL     1      41.286 -11.526   1.016  1.00  0.00     0.120 A 
HETATM   11  N   UNL     1      41.052 -12.285  -0.075  1.00  0.00    -0.237 NA
HETATM   12  C   UNL     1      40.417 -13.454   0.128  1.00  0.00     0.165 A 
HETATM   13  C   UNL     1      40.042 -13.914   1.382  1.00  0.00     0.066 A 
BRANCH  12  14
HETATM   14  O   UNL     1      40.120 -14.283  -0.928  1.00  0.00    -0.324 OA
BRANCH  14  15
HETATM   15  C   UNL     1      39.337 -13.784  -2.029  1.00  0.00     0.058 C 
HETATM   16  C   UNL     1      40.196 -13.059  -3.075  1.00  0.00     0.045 C 
HETATM   17  C   UNL     1      38.133 -12.941  -1.580  1.00  0.00     0.045 C 
HETATM   18  C   UNL     1      38.782 -15.061  -2.690  1.00  0.00     0.045 C 
ENDBRANCH  14  15
ENDBRANCH  12  14
ENDBRANCH   7   8
ENDBRANCH   1   7
BRANCH   3  19
HETATM   19  C   UNL     1      43.358 -16.202   6.005  1.00  0.00     0.095 A 
HETATM   20  C   UNL     1      44.302 -17.304   5.567  1.00  0.00     0.043 A 
HETATM   21  C   UNL     1      43.547 -17.412   6.870  1.00  0.00     0.037 A 
BRANCH  20  22
HETATM   22  C   UNL     1      43.962 -18.210   4.406  1.00  0.00    -0.052 A 
HETATM   23  C   UNL     1      44.085 -19.606   4.516  1.00  0.00     0.007 A 
HETATM   24  C   UNL     1      43.768 -20.453   3.450  1.00  0.00     0.001 A 
HETATM   25  C   UNL     1      43.310 -19.917   2.250  1.00  0.00     0.000 A 
HETATM   26  C   UNL     1      43.164 -18.540   2.118  1.00  0.00     0.001 A 
HETATM   27  C   UNL     1      43.484 -17.698   3.187  1.00  0.00     0.007 A 
ENDBRANCH  20  22
ENDBRANCH   3  19
TORSDOF 6
ENDMDL
MODEL 4
REMARK VINA RESULT:      -7.7      5.011      7.806
REMARK  6 active torsions:
REMARK  status: ('A' for Active; 'I' for Inactive)
REMARK    1  A    between atoms: C_2  and  O_3 
REMARK    2  A    between atoms: O_3  and  C_4 
REMARK    3  A    between atoms: C_8  and  C_9 
REMARK    4  A    between atoms: C_9  and  N_10 
REMARK       I    between atoms: N_10  and  C_11 
REMARK       I    between atoms: C_11  and  N_12 
REMARK    5  A    between atoms: N_12  and  C_13 
REMARK    6  A    between atoms: C_14  and  C_15 
ROOT
HETATM    1  N   UNL     1      40.434 -14.524   4.930  1.00  0.00    -0.339 N 
HETATM    2  C   UNL     1      41.749 -14.442   5.301  1.00  0.00     0.316 C 
HETATM    3  N   UNL     1      42.108 -15.449   6.164  1.00  0.00    -0.338 N 
HETATM    4  O   UNL     1      42.513 -13.570   4.906  1.00  0.00    -0.247 OA
HETATM    5  H   UNL     1      39.842 -15.222   5.350  1.00  0.00     0.164 HD
HETATM    6  H   UNL     1      41.496 -16.251   6.221  1.00  0.00     0.164 HD
ENDROOT
BRANCH   1   7
HETATM    7  C   UNL     1      39.825 -13.548   4.053  1.00  0.00     0.163 C 
BRANCH   7   8
HETATM    8  C   UNL     1      39.914 -13.943   2.603  1.00  0.00    -0.035 A 
HETATM    9  C   UNL     1      39.823 -15.278   2.198  1.00  0.00     0.028 A 
HETATM   10  C   UNL     1      39.974 -15.577   0.853  1.00  0.00     0.120 A 
HETATM   11  N   UNL     1      40.230 -14.657  -0.101  1.00  0.00    -0.237 NA
HETATM   12  C   UNL     1      40.352 -13.382   0.308  1.00  0.00     0.165 A 
HETATM   13  C   UNL     1      40.188 -12.980   1.626  1.00  0.00     0.066 A 
BRANCH  12  14
HETATM   14  O   UNL     1      40.631 -12.380  -0.592  1.00  0.00    -0.324 OA
BRANCH  14  15
HETATM   15  C   UNL     1      39.650 -12.014  -1.581  1.00  0.00     0.058 C 
HETATM   16  C   UNL     1      38.213 -12.155  -1.058  1.00  0.00     0.045 C 
HETATM   17  C   UNL     1      39.854 -12.730  -2.926  1.00  0.00     0.045 C 
HETATM   18  C   UNL     1      39.913 -10.513  -1.816  1.00  0.00     0.045 C 
ENDBRANCH  14  15
ENDBRANCH  12  14
ENDBRANCH   7   8
ENDBRANCH   1   7
BRANCH   3  19
HETATM   19  C   UNL     1      43.455 -15.620   6.632  1.00  0.00     0.095 A 
HETATM   20  C   UNL     1      44.431 -16.566   5.962  1.00  0.00     0.043 A 
HETATM   21  C   UNL     1      43.849 -16.896   7.315  1.00  0.00     0.037 A 
BRANCH  20  22
HETATM   22  C   UNL     1      44.035 -17.364   4.741  1.00  0.00    -0.052 A 
HETATM   23  C   UNL     1      43.555 -16.727   3.583  1.00  0.00     0.007 A 
HETATM   24  C   UNL     1      43.191 -17.455   2.447  1.00  0.00     0.001 A 
HETATM   25  C   UNL     1      43.311 -18.842   2.443  1.00  0.00     0.000 A 
HETATM   26  C   UNL     1      43.798 -19.497   3.569  1.00  0.00     0.001 A 
HETATM   27  C   UNL     1      44.158 -18.764   4.703  1.00  0.00     0.007 A 
ENDBRANCH  20  22
ENDBRANCH   3  19
TORSDOF 6
ENDMDL
MODEL 5
REMARK VINA RESULT:      -7.5      1.993      9.104
REMARK  6 active torsions:
REMARK  status: ('A' for Active; 'I' for Inactive)
REMARK    1  A    between atoms: C_2  and  O_3 
REMARK    2  A    between atoms: O_3  and  C_4 
REMARK    3  A    between atoms: C_8  and  C_9 
REMARK    4  A    between atoms: C_9  and  N_10 
REMARK       I    between atoms: N_10  and  C_11 
REMARK       I    between atoms: C_11  and  N_12 
REMARK    5  A    between atoms: N_12  and  C_13 
REMARK    6  A    between atoms: C_14  and  C_15 
ROOT
HETATM    1  N   UNL     1      43.521 -12.496   5.556  1.00  0.00    -0.339 N 
HETATM    2  C   UNL     1      42.243 -12.968   5.423  1.00  0.00     0.316 C 
HETATM    3  N   UNL     1      41.693 -12.638   4.207  1.00  0.00    -0.338 N 
HETATM    4  O   UNL     1      41.662 -13.609   6.289  1.00  0.00    -0.247 OA
HETATM    5  H   UNL     1      43.912 -11.910   4.836  1.00  0.00     0.164 HD
HETATM    6  H   UNL     1      42.326 -12.345   3.476  1.00  0.00     0.164 HD
ENDROOT
BRANCH   1   7
HETATM    7  C   UNL     1      44.285 -12.692   6.768  1.00  0.00     0.163 C 
BRANCH   7   8
HETATM    8  C   UNL     1      44.674 -11.391   7.419  1.00  0.00    -0.035 A 
HETATM    9  C   UNL     1      45.956 -10.853   7.278  1.00  0.00     0.028 A 
HETATM   10  C   UNL     1      46.267  -9.684   7.954  1.00  0.00     0.120 A 
HETATM   11  N   UNL     1      45.409  -9.033   8.768  1.00  0.00    -0.237 NA
HETATM   12  C   UNL     1      44.191  -9.581   8.923  1.00  0.00     0.165 A 
HETATM   13  C   UNL     1      43.778 -10.731   8.267  1.00  0.00     0.066 A 
BRANCH  12  14
HETATM   14  O   UNL     1      43.259  -8.996   9.749  1.00  0.00    -0.324 OA
BRANCH  14  15
HETATM   15  C   UNL     1      43.128  -9.449  11.110  1.00  0.00     0.058 C 
HETATM   16  C   UNL     1      43.516  -8.366  12.127  1.00  0.00     0.045 C 
HETATM   17  C   UNL     1      43.848 -10.781  11.374  1.00  0.00     0.045 C 
HETATM   18  C   UNL     1      41.616  -9.708  11.263  1.00  0.00     0.045 C 
ENDBRANCH  14  15
ENDBRANCH  12  14
ENDBRANCH   7   8
ENDBRANCH   1   7
BRANCH   3  19
HETATM   19  C   UNL     1      40.391 -13.088   3.802  1.00  0.00     0.095 A 
HETATM   20  C   UNL     1      40.171 -14.424   3.121  1.00  0.00     0.043 A 
HETATM   21  C   UNL     1      40.040 -13.136   2.346  1.00  0.00     0.037 A 
BRANCH  20  22
HETATM   22  C   UNL     1      41.323 -15.366   2.855  1.00  0.00    -0.052 A 
HETATM   23  C   UNL     1      42.087 -15.263   1.680  1.00  0.00     0.007 A 
HETATM   24  C   UNL     1      43.157 -16.125   1.427  1.00  0.00     0.001 A 
HETATM   25  C   UNL     1      43.493 -17.106   2.355  1.00  0.00     0.000 A 
HETATM   26  C   UNL     1      42.764 -17.221   3.534  1.00  0.00     0.001 A 
HETATM   27  C   UNL     1      41.694 -16.357   3.781  1.00  0.00     0.007 A 
ENDBRANCH  20  22
ENDBRANCH   3  19
TORSDOF 6
ENDMDL
MODEL 6
REMARK VINA RESULT:      -7.3      1.660      2.254
REMARK  6 active torsions:
REMARK  status: ('A' for Active; 'I' for Inactive)
REMARK    1  A    between atoms: C_2  and  O_3 
REMARK    2  A    between atoms: O_3  and  C_4 
REMARK    3  A    between atoms: C_8  and  C_9 
REMARK    4  A    between atoms: C_9  and  N_10 
REMARK       I    between atoms: N_10  and  C_11 
REMARK       I    between atoms: C_11  and  N_12 
REMARK    5  A    between atoms: N_12  and  C_13 
REMARK    6  A    between atoms: C_14  and  C_15 
ROOT
HETATM    1  N   UNL     1      42.999 -11.275   5.582  1.00  0.00    -0.339 N 
HETATM    2  C   UNL     1      44.293 -11.083   5.985  1.00  0.00     0.316 C 
HETATM    3  N   UNL     1      44.378 -10.761   7.318  1.00  0.00    -0.338 N 
HETATM    4  O   UNL     1      45.258 -11.186   5.239  1.00  0.00    -0.247 OA
HETATM    5  H   UNL     1      42.246 -11.100   6.228  1.00  0.00     0.164 HD
HETATM    6  H   UNL     1      43.571 -10.955   7.894  1.00  0.00     0.164 HD
ENDROOT
BRANCH   1   7
HETATM    7  C   UNL     1      42.664 -11.587   4.211  1.00  0.00     0.163 C 
BRANCH   7   8
HETATM    8  C   UNL     1      42.146 -12.992   4.051  1.00  0.00    -0.035 A 
HETATM    9  C   UNL     1      40.814 -13.250   3.715  1.00  0.00     0.028 A 
HETATM   10  C   UNL     1      40.388 -14.568   3.644  1.00  0.00     0.120 A 
HETATM   11  N   UNL     1      41.178 -15.630   3.903  1.00  0.00    -0.237 NA
HETATM   12  C   UNL     1      42.448 -15.366   4.261  1.00  0.00     0.165 A 
HETATM   13  C   UNL     1      42.973 -14.084   4.331  1.00  0.00     0.066 A 
BRANCH  12  14
HETATM   14  O   UNL     1      43.319 -16.387   4.562  1.00  0.00    -0.324 OA
BRANCH  14  15
HETATM   15  C   UNL     1      43.363 -16.916   5.901  1.00  0.00     0.058 C 
HETATM   16  C   UNL     1      43.433 -18.449   5.922  1.00  0.00     0.045 C 
HETATM   17  C   UNL     1      42.242 -16.372   6.801  1.00  0.00     0.045 C 
HETATM   18  C   UNL     1      44.698 -16.383   6.459  1.00  0.00     0.045 C 
ENDBRANCH  14  15
ENDBRANCH  12  14
ENDBRANCH   7   8
ENDBRANCH   1   7
BRANCH   3  19
HETATM   19  C   UNL     1      45.635 -10.588   7.991  1.00  0.00     0.095 A 
HETATM   20  C   UNL     1      45.732 -10.033   9.398  1.00  0.00     0.043 A 
HETATM   21  C   UNL     1      46.176  -9.208   8.214  1.00  0.00     0.037 A 
BRANCH  20  22
HETATM   22  C   UNL     1      44.493  -9.653  10.176  1.00  0.00    -0.052 A 
HETATM   23  C   UNL     1      43.952 -10.518  11.145  1.00  0.00     0.007 A 
HETATM   24  C   UNL     1      42.811 -10.174  11.873  1.00  0.00     0.001 A 
HETATM   25  C   UNL     1      42.191  -8.947  11.655  1.00  0.00     0.000 A 
HETATM   26  C   UNL     1      42.713  -8.066  10.714  1.00  0.00     0.001 A 
HETATM   27  C   UNL     1      43.854  -8.416   9.987  1.00  0.00     0.007 A 
ENDBRANCH  20  22
ENDBRANCH   3  19
TORSDOF 6
ENDMDL
MODEL 7
REMARK VINA RESULT:      -7.2      1.754      2.439
REMARK  6 active torsions:
REMARK  status: ('A' for Active; 'I' for Inactive)
REMARK    1  A    between atoms: C_2  and  O_3 
REMARK    2  A    between atoms: O_3  and  C_4 
REMARK    3  A    between atoms: C_8  and  C_9 
REMARK    4  A    between atoms: C_9  and  N_10 
REMARK       I    between atoms: N_10  and  C_11 
REMARK       I    between atoms: C_11  and  N_12 
REMARK    5  A    between atoms: N_12  and  C_13 
REMARK    6  A    between atoms: C_14  and  C_15 
ROOT
HETATM    1  N   UNL     1      43.027 -11.487   7.350  1.00  0.00    -0.339 N 
HETATM    2  C   UNL     1      43.932 -11.166   8.326  1.00  0.00     0.316 C 
HETATM    3  N   UNL     1      43.320 -10.716   9.471  1.00  0.00    -0.338 N 
HETATM    4  O   UNL     1      45.144 -11.269   8.189  1.00  0.00    -0.247 OA
HETATM    5  H   UNL     1      42.048 -11.307   7.501  1.00  0.00     0.164 HD
HETATM    6  H   UNL     1      42.335 -10.913   9.578  1.00  0.00     0.164 HD
ENDROOT
BRANCH   1   7
HETATM    7  C   UNL     1      43.444 -11.949   6.044  1.00  0.00     0.163 C 
BRANCH   7   8
HETATM    8  C   UNL     1      43.309 -13.441   5.892  1.00  0.00    -0.035 A 
HETATM    9  C   UNL     1      44.096 -14.329   6.630  1.00  0.00     0.028 A 
HETATM   10  C   UNL     1      43.964 -15.689   6.396  1.00  0.00     0.120 A 
HETATM   11  N   UNL     1      43.131 -16.218   5.475  1.00  0.00    -0.237 NA
HETATM   12  C   UNL     1      42.406 -15.350   4.747  1.00  0.00     0.165 A 
HETATM   13  C   UNL     1      42.448 -13.975   4.928  1.00  0.00     0.066 A 
BRANCH  12  14
HETATM   14  O   UNL     1      41.546 -15.799   3.772  1.00  0.00    -0.324 OA
BRANCH  14  15
HETATM   15  C   UNL     1      42.058 -16.139   2.470  1.00  0.00     0.058 C 
HETATM   16  C   UNL     1      42.383 -17.634   2.342  1.00  0.00     0.045 C 
HETATM   17  C   UNL     1      43.231 -15.248   2.032  1.00  0.00     0.045 C 
HETATM   18  C   UNL     1      40.877 -15.839   1.525  1.00  0.00     0.045 C 
ENDBRANCH  14  15
ENDBRANCH  12  14
ENDBRANCH   7   8
ENDBRANCH   1   7
BRANCH   3  19
HETATM   19  C   UNL     1      44.055 -10.392  10.661  1.00  0.00     0.095 A 
HETATM   20  C   UNL     1      43.447  -9.594  11.797  1.00  0.00     0.043 A 
HETATM   21  C   UNL     1      44.497  -8.980  10.902  1.00  0.00     0.037 A 
BRANCH  20  22
HETATM   22  C   UNL     1      42.014  -9.116  11.739  1.00  0.00    -0.052 A 
HETATM   23  C   UNL     1      40.975  -9.869  12.314  1.00  0.00     0.007 A 
HETATM   24  C   UNL     1      39.649  -9.434  12.270  1.00  0.00     0.001 A 
HETATM   25  C   UNL     1      39.333  -8.225  11.657  1.00  0.00     0.000 A 
HETATM   26  C   UNL     1      40.344  -7.452  11.094  1.00  0.00     0.001 A 
HETATM   27  C   UNL     1      41.669  -7.893  11.139  1.00  0.00     0.007 A 
ENDBRANCH  20  22
ENDBRANCH   3  19
TORSDOF 6
ENDMDL
MODEL 8
REMARK VINA RESULT:      -7.1      2.474      3.761
REMARK  6 active torsions:
REMARK  status: ('A' for Active; 'I' for Inactive)
REMARK    1  A    between atoms: C_2  and  O_3 
REMARK    2  A    between atoms: O_3  and  C_4 
REMARK    3  A    between atoms: C_8  and  C_9 
REMARK    4  A    between atoms: C_9  and  N_10 
REMARK       I    between atoms: N_10  and  C_11 
REMARK       I    between atoms: C_11  and  N_12 
REMARK    5  A    between atoms: N_12  and  C_13 
REMARK    6  A    between atoms: C_14  and  C_15 
ROOT
HETATM    1  N   UNL     1      39.849 -10.722   7.616  1.00  0.00    -0.339 N 
HETATM    2  C   UNL     1      39.686  -9.619   8.411  1.00  0.00     0.316 C 
HETATM    3  N   UNL     1      40.540  -9.625   9.487  1.00  0.00    -0.338 N 
HETATM    4  O   UNL     1      38.871  -8.734   8.184  1.00  0.00    -0.247 OA
HETATM    5  H   UNL     1      40.485 -11.450   7.901  1.00  0.00     0.164 HD
HETATM    6  H   UNL     1      41.336 -10.247   9.444  1.00  0.00     0.164 HD
ENDROOT
BRANCH   1   7
HETATM    7  C   UNL     1      39.032 -10.947   6.445  1.00  0.00     0.163 C 
BRANCH   7   8
HETATM    8  C   UNL     1      39.568 -12.054   5.574  1.00  0.00    -0.035 A 
HETATM    9  C   UNL     1      39.447 -12.018   4.182  1.00  0.00     0.028 A 
HETATM   10  C   UNL     1      39.907 -13.098   3.446  1.00  0.00     0.120 A 
HETATM   11  N   UNL     1      40.451 -14.206   3.991  1.00  0.00    -0.237 NA
HETATM   12  C   UNL     1      40.528 -14.243   5.333  1.00  0.00     0.165 A 
HETATM   13  C   UNL     1      40.121 -13.200   6.153  1.00  0.00     0.066 A 
BRANCH  12  14
HETATM   14  O   UNL     1      41.049 -15.341   5.976  1.00  0.00    -0.324 OA
BRANCH  14  15
HETATM   15  C   UNL     1      42.466 -15.593   5.925  1.00  0.00     0.058 C 
HETATM   16  C   UNL     1      43.290 -14.297   5.905  1.00  0.00     0.045 C 
HETATM   17  C   UNL     1      42.867 -16.555   4.794  1.00  0.00     0.045 C 
HETATM   18  C   UNL     1      42.758 -16.307   7.259  1.00  0.00     0.045 C 
ENDBRANCH  14  15
ENDBRANCH  12  14
ENDBRANCH   7   8
ENDBRANCH   1   7
BRANCH   3  19
HETATM   19  C   UNL     1      40.611  -8.536  10.420  1.00  0.00     0.095 A 
HETATM   20  C   UNL     1      41.929  -7.919  10.846  1.00  0.00     0.043 A 
HETATM   21  C   UNL     1      41.137  -8.775  11.804  1.00  0.00     0.037 A 
BRANCH  20  22
HETATM   22  C   UNL     1      43.242  -8.411  10.283  1.00  0.00    -0.052 A 
HETATM   23  C   UNL     1      43.975  -9.421  10.930  1.00  0.00     0.007 A 
HETATM   24  C   UNL     1      45.187  -9.887  10.415  1.00  0.00     0.001 A 
HETATM   25  C   UNL     1      45.688  -9.356   9.229  1.00  0.00     0.000 A 
HETATM   26  C   UNL     1      44.976  -8.366   8.559  1.00  0.00     0.001 A 
HETATM   27  C   UNL     1      43.764  -7.903   9.081  1.00  0.00     0.007 A 
ENDBRANCH  20  22
ENDBRANCH   3  19
TORSDOF 6
ENDMDL
MODEL 9
REMARK VINA RESULT:      -7.0      2.050      9.107
REMARK  6 active torsions:
REMARK  status: ('A' for Active; 'I' for Inactive)
REMARK    1  A    between atoms: C_2  and  O_3 
REMARK    2  A    between atoms: O_3  and  C_4 
REMARK    3  A    between atoms: C_8  and  C_9 
REMARK    4  A    between atoms: C_9  and  N_10 
REMARK       I    between atoms: N_10  and  C_11 
REMARK       I    between atoms: C_11  and  N_12 
REMARK    5  A    between atoms: N_12  and  C_13 
REMARK    6  A    between atoms: C_14  and  C_15 
ROOT
HETATM    1  N   UNL     1      42.661 -12.011   6.848  1.00  0.00    -0.339 N 
HETATM    2  C   UNL     1      43.512 -13.083   6.821  1.00  0.00     0.316 C 
HETATM    3  N   UNL     1      42.849 -14.276   6.985  1.00  0.00    -0.338 N 
HETATM    4  O   UNL     1      44.723 -12.985   6.669  1.00  0.00    -0.247 OA
HETATM    5  H   UNL     1      41.686 -12.157   7.053  1.00  0.00     0.164 HD
HETATM    6  H   UNL     1      41.849 -14.274   6.841  1.00  0.00     0.164 HD
ENDROOT
BRANCH   1   7
HETATM    7  C   UNL     1      43.141 -10.652   6.731  1.00  0.00     0.163 C 
BRANCH   7   8
HETATM    8  C   UNL     1      43.721 -10.135   8.021  1.00  0.00    -0.035 A 
HETATM    9  C   UNL     1      45.093  -9.912   8.172  1.00  0.00     0.028 A 
HETATM   10  C   UNL     1      45.567  -9.493   9.405  1.00  0.00     0.120 A 
HETATM   11  N   UNL     1      44.786  -9.305  10.490  1.00  0.00    -0.237 NA
HETATM   12  C   UNL     1      43.474  -9.559  10.340  1.00  0.00     0.165 A 
HETATM   13  C   UNL     1      42.902  -9.953   9.140  1.00  0.00     0.066 A 
BRANCH  12  14
HETATM   14  O   UNL     1      42.606  -9.414  11.398  1.00  0.00    -0.324 OA
BRANCH  14  15
HETATM   15  C   UNL     1      42.372  -8.107  11.955  1.00  0.00     0.058 C 
HETATM   16  C   UNL     1      42.559  -6.988  10.921  1.00  0.00     0.045 C 
HETATM   17  C   UNL     1      43.171  -7.849  13.243  1.00  0.00     0.045 C 
HETATM   18  C   UNL     1      40.880  -8.138  12.340  1.00  0.00     0.045 C 
ENDBRANCH  14  15
ENDBRANCH  12  14
ENDBRANCH   7   8
ENDBRANCH   1   7
BRANCH   3  19
HETATM   19  C   UNL     1      43.517 -15.545   6.915  1.00  0.00     0.095 A 
HETATM   20  C   UNL     1      43.403 -16.454   5.707  1.00  0.00     0.043 A 
HETATM   21  C   UNL     1      42.719 -16.811   7.005  1.00  0.00     0.037 A 
BRANCH  20  22
HETATM   22  C   UNL     1      42.592 -16.052   4.498  1.00  0.00    -0.052 A 
HETATM   23  C   UNL     1      43.213 -15.523   3.352  1.00  0.00     0.007 A 
HETATM   24  C   UNL     1      42.473 -15.152   2.227  1.00  0.00     0.001 A 
HETATM   25  C   UNL     1      41.090 -15.315   2.220  1.00  0.00     0.000 A 
HETATM   26  C   UNL     1      40.451 -15.850   3.334  1.00  0.00     0.001 A 
HETATM   27  C   UNL     1      41.197 -16.217   4.457  1.00  0.00     0.007 A 
ENDBRANCH  20  22
ENDBRANCH   3  19
TORSDOF 6
ENDMDL
MODEL 10
REMARK VINA RESULT:      -6.9     17.779     19.909
REMARK  6 active torsions:
REMARK  status: ('A' for Active; 'I' for Inactive)
REMARK    1  A    between atoms: C_2  and  O_3 
REMARK    2  A    between atoms: O_3  and  C_4 
REMARK    3  A    between atoms: C_8  and  C_9 
REMARK    4  A    between atoms: C_9  and  N_10 
REMARK       I    between atoms: N_10  and  C_11 
REMARK       I    between atoms: C_11  and  N_12 
REMARK    5  A    between atoms: N_12  and  C_13 
REMARK    6  A    between atoms: C_14  and  C_15 
ROOT
HETATM    1  N   UNL     1      44.100 -29.197   1.814  1.00  0.00    -0.339 N 
HETATM    2  C   UNL     1      45.391 -28.792   1.601  1.00  0.00     0.316 C 
HETATM    3  N   UNL     1      45.622 -28.465   0.287  1.00  0.00    -0.338 N 
HETATM    4  O   UNL     1      46.237 -28.730   2.484  1.00  0.00    -0.247 OA
HETATM    5  H   UNL     1      43.476 -29.297   1.029  1.00  0.00     0.164 HD
HETATM    6  H   UNL     1      44.815 -28.298  -0.298  1.00  0.00     0.164 HD
ENDROOT
BRANCH   1   7
HETATM    7  C   UNL     1      43.638 -29.625   3.115  1.00  0.00     0.163 C 
BRANCH   7   8
HETATM    8  C   UNL     1      42.387 -30.459   3.035  1.00  0.00    -0.035 A 
HETATM    9  C   UNL     1      41.949 -31.013   1.829  1.00  0.00     0.028 A 
HETATM   10  C   UNL     1      40.756 -31.719   1.815  1.00  0.00     0.120 A 
HETATM   11  N   UNL     1      39.969 -31.891   2.897  1.00  0.00    -0.237 NA
HETATM   12  C   UNL     1      40.384 -31.323   4.043  1.00  0.00     0.165 A 
HETATM   13  C   UNL     1      41.576 -30.622   4.163  1.00  0.00     0.066 A 
BRANCH  12  14
HETATM   14  O   UNL     1      39.635 -31.430   5.191  1.00  0.00    -0.324 OA
BRANCH  14  15
HETATM   15  C   UNL     1      39.450 -32.719   5.805  1.00  0.00     0.058 C 
HETATM   16  C   UNL     1      40.655 -33.646   5.594  1.00  0.00     0.045 C 
HETATM   17  C   UNL     1      38.123 -33.389   5.410  1.00  0.00     0.045 C 
HETATM   18  C   UNL     1      39.370 -32.398   7.311  1.00  0.00     0.045 C 
ENDBRANCH  14  15
ENDBRANCH  12  14
ENDBRANCH   7   8
ENDBRANCH   1   7
BRANCH   3  19
HETATM   19  C   UNL     1      46.878 -27.938  -0.167  1.00  0.00     0.095 A 
HETATM   20  C   UNL     1      47.339 -28.069  -1.605  1.00  0.00     0.043 A 
HETATM   21  C   UNL     1      47.997 -28.875  -0.511  1.00  0.00     0.037 A 
BRANCH  20  22
HETATM   22  C   UNL     1      46.477 -28.746  -2.645  1.00  0.00    -0.052 A 
HETATM   23  C   UNL     1      46.670 -30.099  -2.977  1.00  0.00     0.007 A 
HETATM   24  C   UNL     1      45.875 -30.736  -3.933  1.00  0.00     0.001 A 
HETATM   25  C   UNL     1      44.858 -30.033  -4.572  1.00  0.00     0.000 A 
HETATM   26  C   UNL     1      44.635 -28.698  -4.252  1.00  0.00     0.001 A 
HETATM   27  C   UNL     1      45.435 -28.065  -3.296  1.00  0.00     0.007 A 
ENDBRANCH  20  22
ENDBRANCH   3  19
TORSDOF 6
ENDMDL
