MODEL 1
REMARK VINA RESULT:      -8.1      0.000      0.000
REMARK  3 active torsions:
REMARK  status: ('A' for Active; 'I' for Inactive)
REMARK    1  A    between atoms: C_6  and  N_7 
REMARK    2  A    between atoms: N_7  and  C_8 
REMARK    3  A    between atoms: C_8  and  C_9 
ROOT
HETATM    1  C   UNL     1      44.324 -18.638   4.155  1.00  0.00     0.024 A 
HETATM    2  C   UNL     1      43.570 -18.741   2.986  1.00  0.00     0.046 A 
HETATM    3  C   UNL     1      43.642 -19.923   2.177  1.00  0.00     0.099 C 
HETATM    4  N   UNL     1      43.654 -20.862   1.497  1.00  0.00    -0.191 NA
HETATM    5  C   UNL     1      42.717 -17.692   2.599  1.00  0.00     0.047 A 
HETATM    6  C   UNL     1      42.626 -16.515   3.354  1.00  0.00     0.032 A 
HETATM    7  C   UNL     1      43.373 -16.454   4.554  1.00  0.00     0.055 A 
HETATM    8 CL   UNL     1      43.263 -15.063   5.577  1.00  0.00    -0.082 Cl
HETATM    9  C   UNL     1      44.221 -17.494   4.944  1.00  0.00     0.027 A 
ENDROOT
BRANCH   6  10
HETATM   10  N   UNL     1      41.714 -15.480   3.046  1.00  0.00    -0.286 NA
HETATM   11  H   UNL     1      42.247 -14.688   2.661  1.00  0.00     0.128 HD
BRANCH  10  12
HETATM   12  C   UNL     1      40.506 -15.757   2.256  1.00  0.00     0.149 C 
BRANCH  12  13
HETATM   13  C   UNL     1      40.419 -14.716   1.151  1.00  0.00     0.029 A 
HETATM   14  N   UNL     1      39.754 -15.119   0.006  1.00  0.00    -0.338 N 
HETATM   15  H   UNL     1      39.385 -16.072  -0.027  1.00  0.00     0.168 HD
HETATM   16  C   UNL     1      39.617 -14.310  -1.011  1.00  0.00     0.158 A 
HETATM   17  N   UNL     1      40.102 -13.087  -0.986  1.00  0.00    -0.269 N 
HETATM   18  S   UNL     1      38.806 -14.724  -2.488  1.00  0.00    -0.064 SA
HETATM   19  C   UNL     1      40.802 -12.549   0.114  1.00  0.00     0.255 A 
HETATM   20  C   UNL     1      39.854 -12.391  -2.152  1.00  0.00     0.109 A 
HETATM   21  O   UNL     1      41.235 -11.412   0.105  1.00  0.00    -0.268 OA
HETATM   22  C   UNL     1      40.946 -13.488   1.241  1.00  0.00     0.101 A 
HETATM   23  C   UNL     1      39.174 -13.110  -3.058  1.00  0.00     0.071 A 
ENDBRANCH  12  13
ENDBRANCH  10  12
ENDBRANCH   6  10
TORSDOF 3
ENDMDL
MODEL 2
REMARK VINA RESULT:      -7.8      1.702      1.977
REMARK  3 active torsions:
REMARK  status: ('A' for Active; 'I' for Inactive)
REMARK    1  A    between atoms: C_6  and  N_7 
REMARK    2  A    between atoms: N_7  and  C_8 
REMARK    3  A    between atoms: C_8  and  C_9 
ROOT
HETATM    1  C   UNL     1      44.095 -18.796   4.441  1.00  0.00     0.024 A 
HETATM    2  C   UNL     1      43.632 -18.699   3.127  1.00  0.00     0.046 A 
HETATM    3  C   UNL     1      43.619 -19.852   2.275  1.00  0.00     0.099 C 
HETATM    4  N   UNL     1      43.576 -20.756   1.551  1.00  0.00    -0.191 NA
HETATM    5  C   UNL     1      43.156 -17.472   2.634  1.00  0.00     0.047 A 
HETATM    6  C   UNL     1      43.162 -16.318   3.430  1.00  0.00     0.032 A 
HETATM    7  C   UNL     1      43.601 -16.455   4.768  1.00  0.00     0.055 A 
HETATM    8 CL   UNL     1      43.575 -15.093   5.835  1.00  0.00    -0.082 Cl
HETATM    9  C   UNL     1      44.074 -17.673   5.264  1.00  0.00     0.027 A 
ENDROOT
BRANCH   6  10
HETATM   10  N   UNL     1      42.608 -15.091   2.998  1.00  0.00    -0.286 NA
HETATM   11  H   UNL     1      43.019 -14.859   2.085  1.00  0.00     0.128 HD
BRANCH  10  12
HETATM   12  C   UNL     1      41.153 -14.881   3.009  1.00  0.00     0.149 C 
BRANCH  12  13
HETATM   13  C   UNL     1      40.749 -14.335   1.649  1.00  0.00     0.029 A 
HETATM   14  N   UNL     1      41.067 -13.006   1.425  1.00  0.00    -0.338 N 
HETATM   15  H   UNL     1      41.530 -12.488   2.175  1.00  0.00     0.168 HD
HETATM   16  C   UNL     1      40.768 -12.426   0.293  1.00  0.00     0.158 A 
HETATM   17  N   UNL     1      40.157 -13.078  -0.673  1.00  0.00    -0.269 N 
HETATM   18  S   UNL     1      41.120 -10.768  -0.080  1.00  0.00    -0.064 SA
HETATM   19  C   UNL     1      39.774 -14.433  -0.577  1.00  0.00     0.255 A 
HETATM   20  C   UNL     1      39.931 -12.294  -1.787  1.00  0.00     0.109 A 
HETATM   21  O   UNL     1      39.213 -15.007  -1.492  1.00  0.00    -0.268 OA
HETATM   22  C   UNL     1      40.119 -15.056   0.713  1.00  0.00     0.101 A 
HETATM   23  C   UNL     1      40.380 -11.038  -1.644  1.00  0.00     0.071 A 
ENDBRANCH  12  13
ENDBRANCH  10  12
ENDBRANCH   6  10
TORSDOF 3
ENDMDL
MODEL 3
REMARK VINA RESULT:      -7.6      1.742      2.964
REMARK  3 active torsions:
REMARK  status: ('A' for Active; 'I' for Inactive)
REMARK    1  A    between atoms: C_6  and  N_7 
REMARK    2  A    between atoms: N_7  and  C_8 
REMARK    3  A    between atoms: C_8  and  C_9 
ROOT
HETATM    1  C   UNL     1      44.225 -16.835   5.428  1.00  0.00     0.024 A 
HETATM    2  C   UNL     1      43.369 -15.736   5.337  1.00  0.00     0.046 A 
HETATM    3  C   UNL     1      43.448 -14.673   6.297  1.00  0.00     0.099 C 
HETATM    4  N   UNL     1      43.480 -13.784   7.040  1.00  0.00    -0.191 NA
HETATM    5  C   UNL     1      42.434 -15.651   4.290  1.00  0.00     0.047 A 
HETATM    6  C   UNL     1      42.317 -16.673   3.338  1.00  0.00     0.032 A 
HETATM    7  C   UNL     1      43.222 -17.756   3.433  1.00  0.00     0.055 A 
HETATM    8 CL   UNL     1      43.188 -19.024   2.256  1.00  0.00    -0.082 Cl
HETATM    9  C   UNL     1      44.155 -17.844   4.471  1.00  0.00     0.027 A 
ENDROOT
BRANCH   6  10
HETATM   10  N   UNL     1      41.454 -16.580   2.223  1.00  0.00    -0.286 NA
HETATM   11  H   UNL     1      41.289 -17.531   1.867  1.00  0.00     0.128 HD
BRANCH  10  12
HETATM   12  C   UNL     1      40.206 -15.807   2.304  1.00  0.00     0.149 C 
BRANCH  12  13
HETATM   13  C   UNL     1      40.235 -14.754   1.208  1.00  0.00     0.029 A 
HETATM   14  N   UNL     1      39.644 -15.124   0.013  1.00  0.00    -0.338 N 
HETATM   15  H   UNL     1      39.248 -16.064  -0.059  1.00  0.00     0.168 HD
HETATM   16  C   UNL     1      39.609 -14.302  -1.002  1.00  0.00     0.158 A 
HETATM   17  N   UNL     1      40.131 -13.096  -0.928  1.00  0.00    -0.269 N 
HETATM   18  S   UNL     1      38.897 -14.675  -2.540  1.00  0.00    -0.064 SA
HETATM   19  C   UNL     1      40.765 -12.592   0.227  1.00  0.00     0.255 A 
HETATM   20  C   UNL     1      39.992 -12.381  -2.101  1.00  0.00     0.109 A 
HETATM   21  O   UNL     1      41.235 -11.470   0.262  1.00  0.00    -0.268 OA
HETATM   22  C   UNL     1      40.794 -13.545   1.350  1.00  0.00     0.101 A 
HETATM   23  C   UNL     1      39.359 -13.069  -3.063  1.00  0.00     0.071 A 
ENDBRANCH  12  13
ENDBRANCH  10  12
ENDBRANCH   6  10
TORSDOF 3
ENDMDL
MODEL 4
REMARK VINA RESULT:      -7.4      4.310      6.223
REMARK  3 active torsions:
REMARK  status: ('A' for Active; 'I' for Inactive)
REMARK    1  A    between atoms: C_6  and  N_7 
REMARK    2  A    between atoms: N_7  and  C_8 
REMARK    3  A    between atoms: C_8  and  C_9 
ROOT
HETATM    1  C   UNL     1      43.078 -18.498   2.096  1.00  0.00     0.024 A 
HETATM    2  C   UNL     1      42.987 -17.181   2.548  1.00  0.00     0.046 A 
HETATM    3  C   UNL     1      42.469 -16.154   1.691  1.00  0.00     0.099 C 
HETATM    4  N   UNL     1      42.047 -15.291   1.044  1.00  0.00    -0.191 NA
HETATM    5  C   UNL     1      43.385 -16.853   3.856  1.00  0.00     0.047 A 
HETATM    6  C   UNL     1      43.908 -17.824   4.721  1.00  0.00     0.032 A 
HETATM    7  C   UNL     1      43.953 -19.157   4.249  1.00  0.00     0.055 A 
HETATM    8 CL   UNL     1      44.520 -20.426   5.280  1.00  0.00    -0.082 Cl
HETATM    9  C   UNL     1      43.556 -19.490   2.950  1.00  0.00     0.027 A 
ENDROOT
BRANCH   6  10
HETATM   10  N   UNL     1      44.232 -17.549   6.069  1.00  0.00    -0.286 NA
HETATM   11  H   UNL     1      44.955 -16.818   6.081  1.00  0.00     0.128 HD
BRANCH  10  12
HETATM   12  C   UNL     1      43.175 -17.284   7.055  1.00  0.00     0.149 C 
BRANCH  12  13
HETATM   13  C   UNL     1      42.646 -15.880   6.809  1.00  0.00     0.029 A 
HETATM   14  N   UNL     1      43.602 -14.879   6.797  1.00  0.00    -0.338 N 
HETATM   15  H   UNL     1      44.576 -15.140   6.964  1.00  0.00     0.168 HD
HETATM   16  C   UNL     1      43.267 -13.632   6.596  1.00  0.00     0.158 A 
HETATM   17  N   UNL     1      42.014 -13.281   6.397  1.00  0.00    -0.269 N 
HETATM   18  S   UNL     1      44.389 -12.309   6.568  1.00  0.00    -0.064 SA
HETATM   19  C   UNL     1      40.941 -14.197   6.385  1.00  0.00     0.255 A 
HETATM   20  C   UNL     1      41.865 -11.922   6.203  1.00  0.00     0.109 A 
HETATM   21  O   UNL     1      39.794 -13.839   6.195  1.00  0.00    -0.268 OA
HETATM   22  C   UNL     1      41.351 -15.593   6.622  1.00  0.00     0.101 A 
HETATM   23  C   UNL     1      43.026 -11.253   6.261  1.00  0.00     0.071 A 
ENDBRANCH  12  13
ENDBRANCH  10  12
ENDBRANCH   6  10
TORSDOF 3
ENDMDL
MODEL 5
REMARK VINA RESULT:      -7.4      3.512      7.522
REMARK  3 active torsions:
REMARK  status: ('A' for Active; 'I' for Inactive)
REMARK    1  A    between atoms: C_6  and  N_7 
REMARK    2  A    between atoms: N_7  and  C_8 
REMARK    3  A    between atoms: C_8  and  C_9 
ROOT
HETATM    1  C   UNL     1      38.413 -12.493  -1.565  1.00  0.00     0.024 A 
HETATM    2  C   UNL     1      38.776 -13.798  -1.901  1.00  0.00     0.046 A 
HETATM    3  C   UNL     1      38.419 -14.344  -3.179  1.00  0.00     0.099 C 
HETATM    4  N   UNL     1      38.166 -14.826  -4.202  1.00  0.00    -0.191 NA
HETATM    5  C   UNL     1      39.511 -14.584  -0.997  1.00  0.00     0.047 A 
HETATM    6  C   UNL     1      39.869 -14.093   0.266  1.00  0.00     0.032 A 
HETATM    7  C   UNL     1      39.522 -12.755   0.565  1.00  0.00     0.055 A 
HETATM    8 CL   UNL     1      39.988 -12.052   2.076  1.00  0.00    -0.082 Cl
HETATM    9  C   UNL     1      38.793 -11.968  -0.331  1.00  0.00     0.027 A 
ENDROOT
BRANCH   6  10
HETATM   10  N   UNL     1      40.684 -14.820   1.163  1.00  0.00    -0.286 NA
HETATM   11  H   UNL     1      41.319 -14.158   1.627  1.00  0.00     0.128 HD
BRANCH  10  12
HETATM   12  C   UNL     1      40.087 -15.761   2.122  1.00  0.00     0.149 C 
BRANCH  12  13
HETATM   13  C   UNL     1      41.210 -16.360   2.953  1.00  0.00     0.029 A 
HETATM   14  N   UNL     1      41.182 -16.049   4.302  1.00  0.00    -0.338 N 
HETATM   15  H   UNL     1      40.434 -15.441   4.641  1.00  0.00     0.168 HD
HETATM   16  C   UNL     1      42.097 -16.507   5.115  1.00  0.00     0.158 A 
HETATM   17  N   UNL     1      43.075 -17.276   4.687  1.00  0.00    -0.269 N 
HETATM   18  S   UNL     1      42.150 -16.170   6.816  1.00  0.00    -0.064 SA
HETATM   19  C   UNL     1      43.225 -17.667   3.340  1.00  0.00     0.255 A 
HETATM   20  C   UNL     1      43.937 -17.656   5.697  1.00  0.00     0.109 A 
HETATM   21  O   UNL     1      44.140 -18.383   2.978  1.00  0.00    -0.268 OA
HETATM   22  C   UNL     1      42.183 -17.130   2.447  1.00  0.00     0.101 A 
HETATM   23  C   UNL     1      43.594 -17.158   6.894  1.00  0.00     0.071 A 
ENDBRANCH  12  13
ENDBRANCH  10  12
ENDBRANCH   6  10
TORSDOF 3
ENDMDL
MODEL 6
REMARK VINA RESULT:      -7.2     14.302     16.639
REMARK  3 active torsions:
REMARK  status: ('A' for Active; 'I' for Inactive)
REMARK    1  A    between atoms: C_6  and  N_7 
REMARK    2  A    between atoms: N_7  and  C_8 
REMARK    3  A    between atoms: C_8  and  C_9 
ROOT
HETATM    1  C   UNL     1      44.277 -32.578  -5.289  1.00  0.00     0.024 A 
HETATM    2  C   UNL     1      44.249 -31.406  -6.046  1.00  0.00     0.046 A 
HETATM    3  C   UNL     1      44.242 -31.467  -7.479  1.00  0.00     0.099 C 
HETATM    4  N   UNL     1      44.223 -31.463  -8.637  1.00  0.00    -0.191 NA
HETATM    5  C   UNL     1      44.208 -30.153  -5.409  1.00  0.00     0.047 A 
HETATM    6  C   UNL     1      44.225 -30.048  -4.011  1.00  0.00     0.032 A 
HETATM    7  C   UNL     1      44.215 -31.254  -3.270  1.00  0.00     0.055 A 
HETATM    8 CL   UNL     1      44.167 -31.210  -1.541  1.00  0.00    -0.082 Cl
HETATM    9  C   UNL     1      44.254 -32.502  -3.898  1.00  0.00     0.027 A 
ENDROOT
BRANCH   6  10
HETATM   10  N   UNL     1      44.094 -28.813  -3.338  1.00  0.00    -0.286 NA
HETATM   11  H   UNL     1      43.731 -29.001  -2.394  1.00  0.00     0.128 HD
BRANCH  10  12
HETATM   12  C   UNL     1      45.207 -27.853  -3.310  1.00  0.00     0.149 C 
BRANCH  12  13
HETATM   13  C   UNL     1      46.109 -28.214  -2.141  1.00  0.00     0.029 A 
HETATM   14  N   UNL     1      47.257 -28.914  -2.471  1.00  0.00    -0.338 N 
HETATM   15  H   UNL     1      47.414 -29.149  -3.453  1.00  0.00     0.168 HD
HETATM   16  C   UNL     1      48.109 -29.279  -1.549  1.00  0.00     0.158 A 
HETATM   17  N   UNL     1      47.909 -28.998  -0.279  1.00  0.00    -0.269 N 
HETATM   18  S   UNL     1      49.569 -30.162  -1.862  1.00  0.00    -0.064 SA
HETATM   19  C   UNL     1      46.783 -28.294   0.195  1.00  0.00     0.255 A 
HETATM   20  C   UNL     1      48.920 -29.467   0.536  1.00  0.00     0.109 A 
HETATM   21  O   UNL     1      46.631 -28.047   1.377  1.00  0.00    -0.268 OA
HETATM   22  C   UNL     1      45.839 -27.902  -0.867  1.00  0.00     0.101 A 
HETATM   23  C   UNL     1      49.884 -30.109  -0.140  1.00  0.00     0.071 A 
ENDBRANCH  12  13
ENDBRANCH  10  12
ENDBRANCH   6  10
TORSDOF 3
ENDMDL
MODEL 7
REMARK VINA RESULT:      -7.2      5.898      7.556
REMARK  3 active torsions:
REMARK  status: ('A' for Active; 'I' for Inactive)
REMARK    1  A    between atoms: C_6  and  N_7 
REMARK    2  A    between atoms: N_7  and  C_8 
REMARK    3  A    between atoms: C_8  and  C_9 
ROOT
HETATM    1  C   UNL     1      43.207 -16.813   2.395  1.00  0.00     0.024 A 
HETATM    2  C   UNL     1      43.447 -16.859   3.769  1.00  0.00     0.046 A 
HETATM    3  C   UNL     1      43.899 -18.073   4.386  1.00  0.00     0.099 C 
HETATM    4  N   UNL     1      44.277 -19.024   4.930  1.00  0.00    -0.191 NA
HETATM    5  C   UNL     1      43.266 -15.710   4.559  1.00  0.00     0.047 A 
HETATM    6  C   UNL     1      42.815 -14.508   3.997  1.00  0.00     0.032 A 
HETATM    7  C   UNL     1      42.616 -14.480   2.597  1.00  0.00     0.055 A 
HETATM    8 CL   UNL     1      42.126 -13.015   1.818  1.00  0.00    -0.082 Cl
HETATM    9  C   UNL     1      42.796 -15.619   1.807  1.00  0.00     0.027 A 
ENDROOT
BRANCH   6  10
HETATM   10  N   UNL     1      42.709 -13.311   4.742  1.00  0.00    -0.286 NA
HETATM   11  H   UNL     1      41.957 -12.744   4.330  1.00  0.00     0.128 HD
BRANCH  10  12
HETATM   12  C   UNL     1      42.620 -13.347   6.209  1.00  0.00     0.149 C 
BRANCH  12  13
HETATM   13  C   UNL     1      43.491 -12.229   6.759  1.00  0.00     0.029 A 
HETATM   14  N   UNL     1      42.812 -11.217   7.416  1.00  0.00    -0.338 N 
HETATM   15  H   UNL     1      41.794 -11.279   7.475  1.00  0.00     0.168 HD
HETATM   16  C   UNL     1      43.455 -10.202   7.930  1.00  0.00     0.158 A 
HETATM   17  N   UNL     1      44.764 -10.103   7.845  1.00  0.00    -0.269 N 
HETATM   18  S   UNL     1      42.695  -8.885   8.766  1.00  0.00    -0.064 SA
HETATM   19  C   UNL     1      45.577 -11.060   7.202  1.00  0.00     0.255 A 
HETATM   20  C   UNL     1      45.254  -8.963   8.450  1.00  0.00     0.109 A 
HETATM   21  O   UNL     1      46.787 -10.939   7.144  1.00  0.00    -0.268 OA
HETATM   22  C   UNL     1      44.823 -12.188   6.627  1.00  0.00     0.101 A 
HETATM   23  C   UNL     1      44.291  -8.202   8.991  1.00  0.00     0.071 A 
ENDBRANCH  12  13
ENDBRANCH  10  12
ENDBRANCH   6  10
TORSDOF 3
ENDMDL
MODEL 8
REMARK VINA RESULT:      -7.2      4.654      5.788
REMARK  3 active torsions:
REMARK  status: ('A' for Active; 'I' for Inactive)
REMARK    1  A    between atoms: C_6  and  N_7 
REMARK    2  A    between atoms: N_7  and  C_8 
REMARK    3  A    between atoms: C_8  and  C_9 
ROOT
HETATM    1  C   UNL     1      43.186 -18.041   2.040  1.00  0.00     0.024 A 
HETATM    2  C   UNL     1      43.560 -18.689   3.218  1.00  0.00     0.046 A 
HETATM    3  C   UNL     1      43.753 -20.111   3.235  1.00  0.00     0.099 C 
HETATM    4  N   UNL     1      43.934 -21.254   3.297  1.00  0.00    -0.191 NA
HETATM    5  C   UNL     1      43.769 -17.951   4.396  1.00  0.00     0.047 A 
HETATM    6  C   UNL     1      43.580 -16.563   4.426  1.00  0.00     0.032 A 
HETATM    7  C   UNL     1      43.238 -15.928   3.209  1.00  0.00     0.055 A 
HETATM    8 CL   UNL     1      43.054 -14.209   3.147  1.00  0.00    -0.082 Cl
HETATM    9  C   UNL     1      43.031 -16.657   2.034  1.00  0.00     0.027 A 
ENDROOT
BRANCH   6  10
HETATM   10  N   UNL     1      43.868 -15.779   5.566  1.00  0.00    -0.286 NA
HETATM   11  H   UNL     1      44.444 -14.981   5.268  1.00  0.00     0.128 HD
BRANCH  10  12
HETATM   12  C   UNL     1      42.793 -15.361   6.478  1.00  0.00     0.149 C 
BRANCH  12  13
HETATM   13  C   UNL     1      42.780 -13.842   6.523  1.00  0.00     0.029 A 
HETATM   14  N   UNL     1      41.565 -13.250   6.224  1.00  0.00    -0.338 N 
HETATM   15  H   UNL     1      40.778 -13.857   5.985  1.00  0.00     0.168 HD
HETATM   16  C   UNL     1      41.433 -11.950   6.230  1.00  0.00     0.158 A 
HETATM   17  N   UNL     1      42.443 -11.157   6.520  1.00  0.00    -0.269 N 
HETATM   18  S   UNL     1      39.956 -11.115   5.864  1.00  0.00    -0.064 SA
HETATM   19  C   UNL     1      43.734 -11.627   6.841  1.00  0.00     0.255 A 
HETATM   20  C   UNL     1      42.102  -9.820   6.474  1.00  0.00     0.109 A 
HETATM   21  O   UNL     1      44.645 -10.865   7.107  1.00  0.00    -0.268 OA
HETATM   22  C   UNL     1      43.852 -13.095   6.818  1.00  0.00     0.101 A 
HETATM   23  C   UNL     1      40.818  -9.617   6.142  1.00  0.00     0.071 A 
ENDBRANCH  12  13
ENDBRANCH  10  12
ENDBRANCH   6  10
TORSDOF 3
ENDMDL
MODEL 9
REMARK VINA RESULT:      -7.0      2.191      2.395
REMARK  3 active torsions:
REMARK  status: ('A' for Active; 'I' for Inactive)
REMARK    1  A    between atoms: C_6  and  N_7 
REMARK    2  A    between atoms: N_7  and  C_8 
REMARK    3  A    between atoms: C_8  and  C_9 
ROOT
HETATM    1  C   UNL     1      44.308 -18.350   4.050  1.00  0.00     0.024 A 
HETATM    2  C   UNL     1      43.513 -18.727   2.967  1.00  0.00     0.046 A 
HETATM    3  C   UNL     1      43.762 -19.961   2.279  1.00  0.00     0.099 C 
HETATM    4  N   UNL     1      43.914 -20.953   1.699  1.00  0.00    -0.191 NA
HETATM    5  C   UNL     1      42.447 -17.909   2.552  1.00  0.00     0.047 A 
HETATM    6  C   UNL     1      42.177 -16.691   3.189  1.00  0.00     0.032 A 
HETATM    7  C   UNL     1      42.976 -16.352   4.307  1.00  0.00     0.055 A 
HETATM    8 CL   UNL     1      42.662 -14.898   5.191  1.00  0.00    -0.082 Cl
HETATM    9  C   UNL     1      44.035 -17.162   4.725  1.00  0.00     0.027 A 
ENDROOT
BRANCH   6  10
HETATM   10  N   UNL     1      41.062 -15.888   2.859  1.00  0.00    -0.286 NA
HETATM   11  H   UNL     1      40.871 -15.264   3.653  1.00  0.00     0.128 HD
BRANCH  10  12
HETATM   12  C   UNL     1      41.011 -15.168   1.578  1.00  0.00     0.149 C 
BRANCH  12  13
HETATM   13  C   UNL     1      40.182 -13.910   1.781  1.00  0.00     0.029 A 
HETATM   14  N   UNL     1      39.540 -13.434   0.651  1.00  0.00    -0.338 N 
HETATM   15  H   UNL     1      39.672 -13.938  -0.228  1.00  0.00     0.168 HD
HETATM   16  C   UNL     1      38.799 -12.358   0.702  1.00  0.00     0.158 A 
HETATM   17  N   UNL     1      38.635 -11.690   1.824  1.00  0.00    -0.269 N 
HETATM   18  S   UNL     1      37.961 -11.682  -0.658  1.00  0.00    -0.064 SA
HETATM   19  C   UNL     1      39.232 -12.063   3.047  1.00  0.00     0.255 A 
HETATM   20  C   UNL     1      37.819 -10.587   1.674  1.00  0.00     0.109 A 
HETATM   21  O   UNL     1      39.057 -11.424   4.067  1.00  0.00    -0.268 OA
HETATM   22  C   UNL     1      40.066 -13.274   2.954  1.00  0.00     0.101 A 
HETATM   23  C   UNL     1      37.371 -10.433   0.419  1.00  0.00     0.071 A 
ENDBRANCH  12  13
ENDBRANCH  10  12
ENDBRANCH   6  10
TORSDOF 3
ENDMDL
MODEL 10
REMARK VINA RESULT:      -7.0      3.654      7.630
REMARK  3 active torsions:
REMARK  status: ('A' for Active; 'I' for Inactive)
REMARK    1  A    between atoms: C_6  and  N_7 
REMARK    2  A    between atoms: N_7  and  C_8 
REMARK    3  A    between atoms: C_8  and  C_9 
ROOT
HETATM    1  C   UNL     1      40.614 -12.139  -2.687  1.00  0.00     0.024 A 
HETATM    2  C   UNL     1      41.007 -11.799  -1.392  1.00  0.00     0.046 A 
HETATM    3  C   UNL     1      41.667 -10.551  -1.138  1.00  0.00     0.099 C 
HETATM    4  N   UNL     1      42.191  -9.551  -0.878  1.00  0.00    -0.191 NA
HETATM    5  C   UNL     1      40.741 -12.669  -0.320  1.00  0.00     0.047 A 
HETATM    6  C   UNL     1      40.109 -13.903  -0.526  1.00  0.00     0.032 A 
HETATM    7  C   UNL     1      39.689 -14.205  -1.843  1.00  0.00     0.055 A 
HETATM    8 CL   UNL     1      38.840 -15.677  -2.169  1.00  0.00    -0.082 Cl
HETATM    9  C   UNL     1      39.948 -13.342  -2.912  1.00  0.00     0.027 A 
ENDROOT
BRANCH   6  10
HETATM   10  N   UNL     1      39.746 -14.761   0.536  1.00  0.00    -0.286 NA
HETATM   11  H   UNL     1      40.207 -15.668   0.387  1.00  0.00     0.128 HD
BRANCH  10  12
HETATM   12  C   UNL     1      39.864 -14.315   1.932  1.00  0.00     0.149 C 
BRANCH  12  13
HETATM   13  C   UNL     1      40.828 -15.251   2.643  1.00  0.00     0.029 A 
HETATM   14  N   UNL     1      40.805 -15.188   4.026  1.00  0.00    -0.338 N 
HETATM   15  H   UNL     1      40.167 -14.524   4.468  1.00  0.00     0.168 HD
HETATM   16  C   UNL     1      41.591 -15.946   4.745  1.00  0.00     0.158 A 
HETATM   17  N   UNL     1      42.429 -16.793   4.186  1.00  0.00    -0.269 N 
HETATM   18  S   UNL     1      41.639 -15.936   6.479  1.00  0.00    -0.064 SA
HETATM   19  C   UNL     1      42.556 -16.957   2.791  1.00  0.00     0.255 A 
HETATM   20  C   UNL     1      43.169 -17.501   5.113  1.00  0.00     0.109 A 
HETATM   21  O   UNL     1      43.340 -17.752   2.308  1.00  0.00    -0.268 OA
HETATM   22  C   UNL     1      41.663 -16.085   2.008  1.00  0.00     0.101 A 
HETATM   23  C   UNL     1      42.876 -17.172   6.380  1.00  0.00     0.071 A 
ENDBRANCH  12  13
ENDBRANCH  10  12
ENDBRANCH   6  10
TORSDOF 3
ENDMDL
