MODEL 1
REMARK VINA RESULT:      -9.6      0.000      0.000
REMARK  6 active torsions:
REMARK  status: ('A' for Active; 'I' for Inactive)
REMARK    1  A    between atoms: C_3  and  C_4 
REMARK    2  A    between atoms: C_4  and  C_5 
REMARK       I    between atoms: C_5  and  N_6 
REMARK    3  A    between atoms: N_6  and  C_7 
REMARK    4  A    between atoms: C_7  and  C_8 
REMARK    5  A    between atoms: C_8  and  C_9 
REMARK    6  A    between atoms: C_27  and  O_28 
ROOT
HETATM    1  C   UNL     1      41.706 -13.518   5.382  1.00  0.00     0.222 C 
HETATM    2  N   UNL     1      41.733 -12.344   4.652  1.00  0.00    -0.360 N 
HETATM    3  O   UNL     1      40.683 -14.073   5.765  1.00  0.00    -0.273 OA
HETATM    4  H   UNL     1      42.568 -12.215   4.093  1.00  0.00     0.162 HD
ENDROOT
BRANCH   1   5
HETATM    5  C   UNL     1      43.102 -14.078   5.675  1.00  0.00     0.148 C 
BRANCH   5   6
HETATM    6  C   UNL     1      43.246 -15.559   5.401  1.00  0.00     0.033 C 
HETATM    7  C   UNL     1      43.339 -16.109   4.168  1.00  0.00    -0.036 C 
HETATM    8  C   UNL     1      43.266 -15.324   2.884  1.00  0.00     0.050 C 
HETATM    9  C   UNL     1      43.504 -17.574   4.058  1.00  0.00     0.006 A 
HETATM   10  C   UNL     1      43.783 -18.301   5.216  1.00  0.00     0.093 A 
HETATM   11  C   UNL     1      43.427 -18.284   2.852  1.00  0.00     0.041 A 
HETATM   12  O   UNL     1      43.781 -17.690   6.476  1.00  0.00    -0.274 OA
HETATM   13  C   UNL     1      44.026 -19.677   5.201  1.00  0.00     0.076 A 
HETATM   14  C   UNL     1      43.194 -16.447   6.595  1.00  0.00     0.295 C 
HETATM   15  O   UNL     1      42.660 -16.092   7.641  1.00  0.00    -0.259 OA
HETATM   16  C   UNL     1      43.949 -20.361   3.995  1.00  0.00     0.090 A 
HETATM   17  C   UNL     1      43.637 -19.669   2.821  1.00  0.00     0.068 A 
HETATM   18 CL   UNL     1      43.496 -20.487   1.307  1.00  0.00    -0.081 Cl
BRANCH  16  19
HETATM   19  O   UNL     1      44.165 -21.710   3.959  1.00  0.00    -0.359 OA
HETATM   20  H   UNL     1      43.314 -22.177   3.906  1.00  0.00     0.218 HD
ENDBRANCH  16  19
ENDBRANCH   5   6
ENDBRANCH   1   5
BRANCH   2  21
HETATM   21  C   UNL     1      40.527 -11.813   4.041  1.00  0.00     0.127 C 
BRANCH  21  22
HETATM   22  C   UNL     1      40.660 -11.494   2.550  1.00  0.00     0.060 C 
BRANCH  22  23
HETATM   23  C   UNL     1      40.252 -12.672   1.716  1.00  0.00    -0.029 A 
HETATM   24  C   UNL     1      40.283 -12.766   0.286  1.00  0.00    -0.000 A 
HETATM   25  C   UNL     1      39.886 -14.060  -0.057  1.00  0.00     0.043 A 
HETATM   26  C   UNL     1      40.628 -11.872  -0.749  1.00  0.00     0.038 A 
HETATM   27  C   UNL     1      39.824 -14.511  -1.381  1.00  0.00     0.032 A 
HETATM   28  N   UNL     1      39.606 -14.720   1.117  1.00  0.00    -0.365 N 
HETATM   29  C   UNL     1      40.170 -13.607  -2.390  1.00  0.00     0.026 A 
HETATM   30  C   UNL     1      40.563 -12.308  -2.076  1.00  0.00     0.035 A 
HETATM   31 CL   UNL     1      40.979 -11.218  -3.345  1.00  0.00    -0.084 Cl
HETATM   32  H   UNL     1      39.298 -15.681   1.175  1.00  0.00     0.165 HD
HETATM   33  C   UNL     1      39.820 -13.896   2.187  1.00  0.00     0.096 A 
ENDBRANCH  22  23
ENDBRANCH  21  22
ENDBRANCH   2  21
TORSDOF 6
ENDMDL
MODEL 2
REMARK VINA RESULT:      -9.0      1.589      2.202
REMARK  6 active torsions:
REMARK  status: ('A' for Active; 'I' for Inactive)
REMARK    1  A    between atoms: C_3  and  C_4 
REMARK    2  A    between atoms: C_4  and  C_5 
REMARK       I    between atoms: C_5  and  N_6 
REMARK    3  A    between atoms: N_6  and  C_7 
REMARK    4  A    between atoms: C_7  and  C_8 
REMARK    5  A    between atoms: C_8  and  C_9 
REMARK    6  A    between atoms: C_27  and  O_28 
ROOT
HETATM    1  C   UNL     1      40.850 -12.893   5.843  1.00  0.00     0.222 C 
HETATM    2  N   UNL     1      40.743 -11.814   4.984  1.00  0.00    -0.360 N 
HETATM    3  O   UNL     1      39.900 -13.440   6.390  1.00  0.00    -0.273 OA
HETATM    4  H   UNL     1      41.512 -11.719   4.331  1.00  0.00     0.162 HD
ENDROOT
BRANCH   1   5
HETATM    5  C   UNL     1      42.295 -13.356   6.052  1.00  0.00     0.148 C 
BRANCH   5   6
HETATM    6  C   UNL     1      42.670 -14.594   5.268  1.00  0.00     0.033 C 
HETATM    7  C   UNL     1      42.945 -15.800   5.817  1.00  0.00    -0.036 C 
HETATM    8  C   UNL     1      42.962 -16.070   7.300  1.00  0.00     0.050 C 
HETATM    9  C   UNL     1      43.270 -16.929   4.919  1.00  0.00     0.006 A 
HETATM   10  C   UNL     1      43.061 -16.770   3.549  1.00  0.00     0.093 A 
HETATM   11  C   UNL     1      43.752 -18.169   5.360  1.00  0.00     0.041 A 
HETATM   12  O   UNL     1      42.678 -15.536   3.010  1.00  0.00    -0.274 OA
HETATM   13  C   UNL     1      43.272 -17.802   2.630  1.00  0.00     0.076 A 
HETATM   14  C   UNL     1      42.817 -14.411   3.797  1.00  0.00     0.295 C 
HETATM   15  O   UNL     1      43.044 -13.311   3.304  1.00  0.00    -0.259 OA
HETATM   16  C   UNL     1      43.745 -19.025   3.089  1.00  0.00     0.090 A 
HETATM   17  C   UNL     1      43.998 -19.206   4.451  1.00  0.00     0.068 A 
HETATM   18 CL   UNL     1      44.620 -20.699   5.058  1.00  0.00    -0.081 Cl
BRANCH  16  19
HETATM   19  O   UNL     1      43.974 -20.043   2.207  1.00  0.00    -0.359 OA
HETATM   20  H   UNL     1      43.179 -20.597   2.131  1.00  0.00     0.218 HD
ENDBRANCH  16  19
ENDBRANCH   5   6
ENDBRANCH   1   5
BRANCH   2  21
HETATM   21  C   UNL     1      39.457 -11.410   4.444  1.00  0.00     0.127 C 
BRANCH  21  22
HETATM   22  C   UNL     1      39.454 -11.163   2.933  1.00  0.00     0.060 C 
BRANCH  22  23
HETATM   23  C   UNL     1      39.541 -12.459   2.183  1.00  0.00    -0.029 A 
HETATM   24  C   UNL     1      39.772 -12.626   0.778  1.00  0.00    -0.000 A 
HETATM   25  C   UNL     1      39.848 -13.997   0.526  1.00  0.00     0.043 A 
HETATM   26  C   UNL     1      39.939 -11.734  -0.302  1.00  0.00     0.038 A 
HETATM   27  C   UNL     1      40.090 -14.525  -0.748  1.00  0.00     0.032 A 
HETATM   28  N   UNL     1      39.651 -14.638   1.727  1.00  0.00    -0.365 N 
HETATM   29  C   UNL     1      40.252 -13.621  -1.802  1.00  0.00     0.026 A 
HETATM   30  C   UNL     1      40.175 -12.249  -1.580  1.00  0.00     0.035 A 
HETATM   31 CL   UNL     1      40.375 -11.163  -2.904  1.00  0.00    -0.084 Cl
HETATM   32  H   UNL     1      39.657 -15.642   1.848  1.00  0.00     0.165 HD
HETATM   33  C   UNL     1      39.464 -13.726   2.727  1.00  0.00     0.096 A 
ENDBRANCH  22  23
ENDBRANCH  21  22
ENDBRANCH   2  21
TORSDOF 6
ENDMDL
MODEL 3
REMARK VINA RESULT:      -9.0      3.858      6.233
REMARK  6 active torsions:
REMARK  status: ('A' for Active; 'I' for Inactive)
REMARK    1  A    between atoms: C_3  and  C_4 
REMARK    2  A    between atoms: C_4  and  C_5 
REMARK       I    between atoms: C_5  and  N_6 
REMARK    3  A    between atoms: N_6  and  C_7 
REMARK    4  A    between atoms: C_7  and  C_8 
REMARK    5  A    between atoms: C_8  and  C_9 
REMARK    6  A    between atoms: C_27  and  O_28 
ROOT
HETATM    1  C   UNL     1      41.728 -13.485   5.436  1.00  0.00     0.222 C 
HETATM    2  N   UNL     1      41.504 -12.497   6.378  1.00  0.00    -0.360 N 
HETATM    3  O   UNL     1      40.876 -13.914   4.667  1.00  0.00    -0.273 OA
HETATM    4  H   UNL     1      42.334 -11.987   6.657  1.00  0.00     0.162 HD
ENDROOT
BRANCH   1   5
HETATM    5  C   UNL     1      43.169 -14.004   5.437  1.00  0.00     0.148 C 
BRANCH   5   6
HETATM    6  C   UNL     1      43.291 -15.496   5.213  1.00  0.00     0.033 C 
HETATM    7  C   UNL     1      43.380 -16.088   4.000  1.00  0.00    -0.036 C 
HETATM    8  C   UNL     1      43.326 -15.344   2.690  1.00  0.00     0.050 C 
HETATM    9  C   UNL     1      43.524 -17.558   3.939  1.00  0.00     0.006 A 
HETATM   10  C   UNL     1      43.786 -18.250   5.122  1.00  0.00     0.093 A 
HETATM   11  C   UNL     1      43.440 -18.306   2.757  1.00  0.00     0.041 A 
HETATM   12  O   UNL     1      43.787 -17.598   6.360  1.00  0.00    -0.274 OA
HETATM   13  C   UNL     1      44.007 -19.630   5.154  1.00  0.00     0.076 A 
HETATM   14  C   UNL     1      43.219 -16.343   6.436  1.00  0.00     0.295 C 
HETATM   15  O   UNL     1      42.686 -15.945   7.467  1.00  0.00    -0.259 OA
HETATM   16  C   UNL     1      43.924 -20.352   3.970  1.00  0.00     0.090 A 
HETATM   17  C   UNL     1      43.628 -19.695   2.773  1.00  0.00     0.068 A 
HETATM   18 CL   UNL     1      43.482 -20.560   1.286  1.00  0.00    -0.081 Cl
BRANCH  16  19
HETATM   19  O   UNL     1      44.119 -21.705   3.980  1.00  0.00    -0.359 OA
HETATM   20  H   UNL     1      43.476 -22.133   3.390  1.00  0.00     0.218 HD
ENDBRANCH  16  19
ENDBRANCH   5   6
ENDBRANCH   1   5
BRANCH   2  21
HETATM   21  C   UNL     1      40.298 -11.690   6.348  1.00  0.00     0.127 C 
BRANCH  21  22
HETATM   22  C   UNL     1      40.545 -10.181   6.324  1.00  0.00     0.060 C 
BRANCH  22  23
HETATM   23  C   UNL     1      41.033  -9.701   7.659  1.00  0.00    -0.029 A 
HETATM   24  C   UNL     1      42.390  -9.673   8.122  1.00  0.00    -0.000 A 
HETATM   25  C   UNL     1      42.388  -9.085   9.388  1.00  0.00     0.043 A 
HETATM   26  C   UNL     1      43.622 -10.081   7.571  1.00  0.00     0.038 A 
HETATM   27  C   UNL     1      43.557  -8.875  10.130  1.00  0.00     0.032 A 
HETATM   28  N   UNL     1      41.080  -8.786   9.692  1.00  0.00    -0.365 N 
HETATM   29  C   UNL     1      44.766  -9.289   9.564  1.00  0.00     0.026 A 
HETATM   30  C   UNL     1      44.795  -9.884   8.306  1.00  0.00     0.035 A 
HETATM   31 CL   UNL     1      46.304 -10.384   7.639  1.00  0.00    -0.084 Cl
HETATM   32  H   UNL     1      40.778  -8.346  10.550  1.00  0.00     0.165 HD
HETATM   33  C   UNL     1      40.259  -9.153   8.663  1.00  0.00     0.096 A 
ENDBRANCH  22  23
ENDBRANCH  21  22
ENDBRANCH   2  21
TORSDOF 6
ENDMDL
MODEL 4
REMARK VINA RESULT:      -8.9      4.877      7.458
REMARK  6 active torsions:
REMARK  status: ('A' for Active; 'I' for Inactive)
REMARK    1  A    between atoms: C_3  and  C_4 
REMARK    2  A    between atoms: C_4  and  C_5 
REMARK       I    between atoms: C_5  and  N_6 
REMARK    3  A    between atoms: N_6  and  C_7 
REMARK    4  A    between atoms: C_7  and  C_8 
REMARK    5  A    between atoms: C_8  and  C_9 
REMARK    6  A    between atoms: C_27  and  O_28 
ROOT
HETATM    1  C   UNL     1      42.705 -13.024   5.386  1.00  0.00     0.222 C 
HETATM    2  N   UNL     1      42.814 -12.789   6.744  1.00  0.00    -0.360 N 
HETATM    3  O   UNL     1      43.382 -12.467   4.530  1.00  0.00    -0.273 OA
HETATM    4  H   UNL     1      42.500 -13.554   7.329  1.00  0.00     0.162 HD
ENDROOT
BRANCH   1   5
HETATM    5  C   UNL     1      41.641 -14.070   5.037  1.00  0.00     0.148 C 
BRANCH   5   6
HETATM    6  C   UNL     1      42.154 -15.493   5.013  1.00  0.00     0.033 C 
HETATM    7  C   UNL     1      42.546 -16.151   3.898  1.00  0.00    -0.036 C 
HETATM    8  C   UNL     1      42.485 -15.572   2.508  1.00  0.00     0.050 C 
HETATM    9  C   UNL     1      43.052 -17.534   4.034  1.00  0.00     0.006 A 
HETATM   10  C   UNL     1      43.317 -18.022   5.313  1.00  0.00     0.093 A 
HETATM   11  C   UNL     1      43.312 -18.384   2.950  1.00  0.00     0.041 A 
HETATM   12  O   UNL     1      42.994 -17.280   6.456  1.00  0.00    -0.274 OA
HETATM   13  C   UNL     1      43.863 -19.289   5.538  1.00  0.00     0.076 A 
HETATM   14  C   UNL     1      42.131 -16.213   6.316  1.00  0.00     0.295 C 
HETATM   15  O   UNL     1      41.385 -15.873   7.229  1.00  0.00    -0.259 OA
HETATM   16  C   UNL     1      44.118 -20.115   4.450  1.00  0.00     0.090 A 
HETATM   17  C   UNL     1      43.831 -19.670   3.157  1.00  0.00     0.068 A 
HETATM   18 CL   UNL     1      44.100 -20.677   1.780  1.00  0.00    -0.081 Cl
BRANCH  16  19
HETATM   19  O   UNL     1      44.636 -21.364   4.647  1.00  0.00    -0.359 OA
HETATM   20  H   UNL     1      45.564 -21.294   4.927  1.00  0.00     0.218 HD
ENDBRANCH  16  19
ENDBRANCH   5   6
ENDBRANCH   1   5
BRANCH   2  21
HETATM   21  C   UNL     1      43.939 -12.052   7.291  1.00  0.00     0.127 C 
BRANCH  21  22
HETATM   22  C   UNL     1      43.716 -10.542   7.398  1.00  0.00     0.060 C 
BRANCH  22  23
HETATM   23  C   UNL     1      44.137 -10.037   8.746  1.00  0.00    -0.029 A 
HETATM   24  C   UNL     1      43.292  -9.471   9.755  1.00  0.00    -0.000 A 
HETATM   25  C   UNL     1      44.090  -9.206  10.869  1.00  0.00     0.043 A 
HETATM   26  C   UNL     1      41.914  -9.174   9.829  1.00  0.00     0.038 A 
HETATM   27  C   UNL     1      43.583  -8.667  12.058  1.00  0.00     0.032 A 
HETATM   28  N   UNL     1      45.374  -9.577  10.542  1.00  0.00    -0.365 N 
HETATM   29  C   UNL     1      42.216  -8.380  12.107  1.00  0.00     0.026 A 
HETATM   30  C   UNL     1      41.398  -8.629  11.008  1.00  0.00     0.035 A 
HETATM   31 CL   UNL     1      39.716  -8.260  11.102  1.00  0.00    -0.084 Cl
HETATM   32  H   UNL     1      46.167  -9.502  11.164  1.00  0.00     0.165 HD
HETATM   33  C   UNL     1      45.414 -10.075   9.270  1.00  0.00     0.096 A 
ENDBRANCH  22  23
ENDBRANCH  21  22
ENDBRANCH   2  21
TORSDOF 6
ENDMDL
MODEL 5
REMARK VINA RESULT:      -8.9      4.071      7.817
REMARK  6 active torsions:
REMARK  status: ('A' for Active; 'I' for Inactive)
REMARK    1  A    between atoms: C_3  and  C_4 
REMARK    2  A    between atoms: C_4  and  C_5 
REMARK       I    between atoms: C_5  and  N_6 
REMARK    3  A    between atoms: N_6  and  C_7 
REMARK    4  A    between atoms: C_7  and  C_8 
REMARK    5  A    between atoms: C_8  and  C_9 
REMARK    6  A    between atoms: C_27  and  O_28 
ROOT
HETATM    1  C   UNL     1      40.676 -11.968   3.061  1.00  0.00     0.222 C 
HETATM    2  N   UNL     1      41.351 -12.621   2.046  1.00  0.00    -0.360 N 
HETATM    3  O   UNL     1      39.702 -12.423   3.650  1.00  0.00    -0.273 OA
HETATM    4  H   UNL     1      42.314 -12.330   1.927  1.00  0.00     0.162 HD
ENDROOT
BRANCH   1   5
HETATM    5  C   UNL     1      41.268 -10.596   3.394  1.00  0.00     0.148 C 
BRANCH   5   6
HETATM    6  C   UNL     1      42.139 -10.580   4.631  1.00  0.00     0.033 C 
HETATM    7  C   UNL     1      41.808  -9.980   5.798  1.00  0.00    -0.036 C 
HETATM    8  C   UNL     1      40.536  -9.200   6.018  1.00  0.00     0.050 C 
HETATM    9  C   UNL     1      42.751 -10.072   6.933  1.00  0.00     0.006 A 
HETATM   10  C   UNL     1      43.829 -10.952   6.833  1.00  0.00     0.093 A 
HETATM   11  C   UNL     1      42.618  -9.347   8.125  1.00  0.00     0.041 A 
HETATM   12  O   UNL     1      44.096 -11.641   5.644  1.00  0.00    -0.274 OA
HETATM   13  C   UNL     1      44.732 -11.160   7.879  1.00  0.00     0.076 A 
HETATM   14  C   UNL     1      43.482 -11.206   4.487  1.00  0.00     0.295 C 
HETATM   15  O   UNL     1      44.019 -11.336   3.392  1.00  0.00    -0.259 OA
HETATM   16  C   UNL     1      44.579 -10.434   9.054  1.00  0.00     0.090 A 
HETATM   17  C   UNL     1      43.531  -9.518   9.174  1.00  0.00     0.068 A 
HETATM   18 CL   UNL     1      43.326  -8.571  10.604  1.00  0.00    -0.081 Cl
BRANCH  16  19
HETATM   19  O   UNL     1      45.460 -10.608  10.084  1.00  0.00    -0.359 OA
HETATM   20  H   UNL     1      45.653 -11.554  10.193  1.00  0.00     0.218 HD
ENDBRANCH  16  19
ENDBRANCH   5   6
ENDBRANCH   1   5
BRANCH   2  21
HETATM   21  C   UNL     1      41.123 -14.030   1.777  1.00  0.00     0.127 C 
BRANCH  21  22
HETATM   22  C   UNL     1      42.399 -14.857   1.609  1.00  0.00     0.060 C 
BRANCH  22  23
HETATM   23  C   UNL     1      42.805 -15.480   2.912  1.00  0.00    -0.029 A 
HETATM   24  C   UNL     1      43.203 -16.840   3.129  1.00  0.00    -0.000 A 
HETATM   25  C   UNL     1      43.561 -16.961   4.473  1.00  0.00     0.043 A 
HETATM   26  C   UNL     1      43.305 -17.977   2.300  1.00  0.00     0.038 A 
HETATM   27  C   UNL     1      44.026 -18.158   5.031  1.00  0.00     0.032 A 
HETATM   28  N   UNL     1      43.371 -15.728   5.054  1.00  0.00    -0.365 N 
HETATM   29  C   UNL     1      44.117 -19.271   4.191  1.00  0.00     0.026 A 
HETATM   30  C   UNL     1      43.760 -19.179   2.848  1.00  0.00     0.035 A 
HETATM   31 CL   UNL     1      43.882 -20.573   1.841  1.00  0.00    -0.084 Cl
HETATM   32  H   UNL     1      43.555 -15.518   6.025  1.00  0.00     0.165 HD
HETATM   33  C   UNL     1      42.915 -14.833   4.127  1.00  0.00     0.096 A 
ENDBRANCH  22  23
ENDBRANCH  21  22
ENDBRANCH   2  21
TORSDOF 6
ENDMDL
MODEL 6
REMARK VINA RESULT:      -8.9      2.795      8.013
REMARK  6 active torsions:
REMARK  status: ('A' for Active; 'I' for Inactive)
REMARK    1  A    between atoms: C_3  and  C_4 
REMARK    2  A    between atoms: C_4  and  C_5 
REMARK       I    between atoms: C_5  and  N_6 
REMARK    3  A    between atoms: N_6  and  C_7 
REMARK    4  A    between atoms: C_7  and  C_8 
REMARK    5  A    between atoms: C_8  and  C_9 
REMARK    6  A    between atoms: C_27  and  O_28 
ROOT
HETATM    1  C   UNL     1      41.516 -13.194   4.399  1.00  0.00     0.222 C 
HETATM    2  N   UNL     1      41.703 -13.975   5.525  1.00  0.00    -0.360 N 
HETATM    3  O   UNL     1      42.422 -12.678   3.755  1.00  0.00    -0.273 OA
HETATM    4  H   UNL     1      40.950 -14.626   5.715  1.00  0.00     0.162 HD
ENDROOT
BRANCH   1   5
HETATM    5  C   UNL     1      40.042 -13.030   4.017  1.00  0.00     0.148 C 
BRANCH   5   6
HETATM    6  C   UNL     1      39.756 -13.229   2.545  1.00  0.00     0.033 C 
HETATM    7  C   UNL     1      39.279 -12.271   1.716  1.00  0.00    -0.036 C 
HETATM    8  C   UNL     1      38.919 -10.875   2.156  1.00  0.00     0.050 C 
HETATM    9  C   UNL     1      39.075 -12.606   0.291  1.00  0.00     0.006 A 
HETATM   10  C   UNL     1      39.588 -13.812  -0.189  1.00  0.00     0.093 A 
HETATM   11  C   UNL     1      38.418 -11.773  -0.625  1.00  0.00     0.041 A 
HETATM   12  O   UNL     1      40.170 -14.748   0.673  1.00  0.00    -0.274 OA
HETATM   13  C   UNL     1      39.507 -14.182  -1.534  1.00  0.00     0.076 A 
HETATM   14  C   UNL     1      39.947 -14.612   2.028  1.00  0.00     0.295 C 
HETATM   15  O   UNL     1      39.915 -15.589   2.770  1.00  0.00    -0.259 OA
HETATM   16  C   UNL     1      38.856 -13.340  -2.426  1.00  0.00     0.090 A 
HETATM   17  C   UNL     1      38.300 -12.142  -1.972  1.00  0.00     0.068 A 
HETATM   18 CL   UNL     1      37.452 -11.083  -3.041  1.00  0.00    -0.081 Cl
BRANCH  16  19
HETATM   19  O   UNL     1      38.750 -13.690  -3.743  1.00  0.00    -0.359 OA
HETATM   20  H   UNL     1      38.159 -14.457  -3.831  1.00  0.00     0.218 HD
ENDBRANCH  16  19
ENDBRANCH   5   6
ENDBRANCH   1   5
BRANCH   2  21
HETATM   21  C   UNL     1      43.018 -14.475   5.882  1.00  0.00     0.127 C 
BRANCH  21  22
HETATM   22  C   UNL     1      43.557 -15.562   4.948  1.00  0.00     0.060 C 
BRANCH  22  23
HETATM   23  C   UNL     1      43.514 -16.905   5.615  1.00  0.00    -0.029 A 
HETATM   24  C   UNL     1      43.638 -18.185   4.982  1.00  0.00    -0.000 A 
HETATM   25  C   UNL     1      43.613 -19.153   5.988  1.00  0.00     0.043 A 
HETATM   26  C   UNL     1      43.786 -18.608   3.645  1.00  0.00     0.038 A 
HETATM   27  C   UNL     1      43.736 -20.523   5.727  1.00  0.00     0.032 A 
HETATM   28  N   UNL     1      43.459 -18.489   7.183  1.00  0.00    -0.365 N 
HETATM   29  C   UNL     1      43.880 -20.918   4.394  1.00  0.00     0.026 A 
HETATM   30  C   UNL     1      43.902 -19.974   3.372  1.00  0.00     0.035 A 
HETATM   31 CL   UNL     1      44.078 -20.497   1.738  1.00  0.00    -0.084 Cl
HETATM   32  H   UNL     1      43.413 -18.939   8.086  1.00  0.00     0.165 HD
HETATM   33  C   UNL     1      43.397 -17.140   6.971  1.00  0.00     0.096 A 
ENDBRANCH  22  23
ENDBRANCH  21  22
ENDBRANCH   2  21
TORSDOF 6
ENDMDL
MODEL 7
REMARK VINA RESULT:      -8.8      2.220      2.770
REMARK  6 active torsions:
REMARK  status: ('A' for Active; 'I' for Inactive)
REMARK    1  A    between atoms: C_3  and  C_4 
REMARK    2  A    between atoms: C_4  and  C_5 
REMARK       I    between atoms: C_5  and  N_6 
REMARK    3  A    between atoms: N_6  and  C_7 
REMARK    4  A    between atoms: C_7  and  C_8 
REMARK    5  A    between atoms: C_8  and  C_9 
REMARK    6  A    between atoms: C_27  and  O_28 
ROOT
HETATM    1  C   UNL     1      41.445 -12.982   3.890  1.00  0.00     0.222 C 
HETATM    2  N   UNL     1      41.650 -11.898   3.057  1.00  0.00    -0.360 N 
HETATM    3  O   UNL     1      40.345 -13.447   4.165  1.00  0.00    -0.273 OA
HETATM    4  H   UNL     1      42.566 -11.867   2.625  1.00  0.00     0.162 HD
ENDROOT
BRANCH   1   5
HETATM    5  C   UNL     1      42.745 -13.567   4.451  1.00  0.00     0.148 C 
BRANCH   5   6
HETATM    6  C   UNL     1      43.029 -14.986   4.010  1.00  0.00     0.033 C 
HETATM    7  C   UNL     1      43.203 -16.033   4.849  1.00  0.00    -0.036 C 
HETATM    8  C   UNL     1      43.184 -15.925   6.352  1.00  0.00     0.050 C 
HETATM    9  C   UNL     1      43.447 -17.371   4.269  1.00  0.00     0.006 A 
HETATM   10  C   UNL     1      43.265 -17.545   2.897  1.00  0.00     0.093 A 
HETATM   11  C   UNL     1      43.824 -18.494   5.018  1.00  0.00     0.041 A 
HETATM   12  O   UNL     1      42.985 -16.459   2.058  1.00  0.00    -0.274 OA
HETATM   13  C   UNL     1      43.402 -18.786   2.270  1.00  0.00     0.076 A 
HETATM   14  C   UNL     1      43.204 -15.187   2.545  1.00  0.00     0.295 C 
HETATM   15  O   UNL     1      43.523 -14.266   1.800  1.00  0.00    -0.259 OA
HETATM   16  C   UNL     1      43.772 -19.888   3.031  1.00  0.00     0.090 A 
HETATM   17  C   UNL     1      43.997 -19.741   4.403  1.00  0.00     0.068 A 
HETATM   18 CL   UNL     1      44.493 -21.077   5.378  1.00  0.00    -0.081 Cl
BRANCH  16  19
HETATM   19  O   UNL     1      43.929 -21.108   2.436  1.00  0.00    -0.359 OA
HETATM   20  H   UNL     1      43.544 -21.089   1.544  1.00  0.00     0.218 HD
ENDBRANCH  16  19
ENDBRANCH   5   6
ENDBRANCH   1   5
BRANCH   2  21
HETATM   21  C   UNL     1      40.584 -11.385   2.216  1.00  0.00     0.127 C 
BRANCH  21  22
HETATM   22  C   UNL     1      40.927 -11.321   0.727  1.00  0.00     0.060 C 
BRANCH  22  23
HETATM   23  C   UNL     1      40.249 -12.429  -0.024  1.00  0.00    -0.029 A 
HETATM   24  C   UNL     1      39.143 -12.306  -0.927  1.00  0.00    -0.000 A 
HETATM   25  C   UNL     1      38.886 -13.576  -1.448  1.00  0.00     0.043 A 
HETATM   26  C   UNL     1      38.346 -11.227  -1.361  1.00  0.00     0.038 A 
HETATM   27  C   UNL     1      37.878 -13.822  -2.389  1.00  0.00     0.032 A 
HETATM   28  N   UNL     1      39.787 -14.439  -0.870  1.00  0.00    -0.365 N 
HETATM   29  C   UNL     1      37.100 -12.737  -2.803  1.00  0.00     0.026 A 
HETATM   30  C   UNL     1      37.331 -11.462  -2.294  1.00  0.00     0.035 A 
HETATM   31 CL   UNL     1      36.351 -10.147  -2.824  1.00  0.00    -0.084 Cl
HETATM   32  H   UNL     1      39.838 -15.429  -1.065  1.00  0.00     0.165 HD
HETATM   33  C   UNL     1      40.608 -13.762  -0.012  1.00  0.00     0.096 A 
ENDBRANCH  22  23
ENDBRANCH  21  22
ENDBRANCH   2  21
TORSDOF 6
ENDMDL
MODEL 8
REMARK VINA RESULT:      -8.5      2.909      8.012
REMARK  6 active torsions:
REMARK  status: ('A' for Active; 'I' for Inactive)
REMARK    1  A    between atoms: C_3  and  C_4 
REMARK    2  A    between atoms: C_4  and  C_5 
REMARK       I    between atoms: C_5  and  N_6 
REMARK    3  A    between atoms: N_6  and  C_7 
REMARK    4  A    between atoms: C_7  and  C_8 
REMARK    5  A    between atoms: C_8  and  C_9 
REMARK    6  A    between atoms: C_27  and  O_28 
ROOT
HETATM    1  C   UNL     1      41.612 -12.873   4.627  1.00  0.00     0.222 C 
HETATM    2  N   UNL     1      41.750 -13.882   5.562  1.00  0.00    -0.360 N 
HETATM    3  O   UNL     1      42.548 -12.305   4.076  1.00  0.00    -0.273 OA
HETATM    4  H   UNL     1      40.950 -14.499   5.636  1.00  0.00     0.162 HD
ENDROOT
BRANCH   1   5
HETATM    5  C   UNL     1      40.151 -12.522   4.329  1.00  0.00     0.148 C 
BRANCH   5   6
HETATM    6  C   UNL     1      39.838 -12.358   2.858  1.00  0.00     0.033 C 
HETATM    7  C   UNL     1      39.733 -13.379   1.975  1.00  0.00    -0.036 C 
HETATM    8  C   UNL     1      39.957 -14.828   2.326  1.00  0.00     0.050 C 
HETATM    9  C   UNL     1      39.394 -13.067   0.570  1.00  0.00     0.006 A 
HETATM   10  C   UNL     1      38.979 -11.772   0.258  1.00  0.00     0.093 A 
HETATM   11  C   UNL     1      39.437 -14.001  -0.473  1.00  0.00     0.041 A 
HETATM   12  O   UNL     1      39.001 -10.751   1.216  1.00  0.00    -0.274 OA
HETATM   13  C   UNL     1      38.571 -11.401  -1.026  1.00  0.00     0.076 A 
HETATM   14  C   UNL     1      39.730 -10.956   2.369  1.00  0.00     0.295 C 
HETATM   15  O   UNL     1      40.257 -10.022   2.965  1.00  0.00    -0.259 OA
HETATM   16  C   UNL     1      38.616 -12.344  -2.045  1.00  0.00     0.090 A 
HETATM   17  C   UNL     1      39.061 -13.640  -1.774  1.00  0.00     0.068 A 
HETATM   18 CL   UNL     1      39.166 -14.832  -3.019  1.00  0.00    -0.081 Cl
BRANCH  16  19
HETATM   19  O   UNL     1      38.238 -11.998  -3.312  1.00  0.00    -0.359 OA
HETATM   20  H   UNL     1      38.879 -11.370  -3.685  1.00  0.00     0.218 HD
ENDBRANCH  16  19
ENDBRANCH   5   6
ENDBRANCH   1   5
BRANCH   2  21
HETATM   21  C   UNL     1      43.026 -14.543   5.770  1.00  0.00     0.127 C 
BRANCH  21  22
HETATM   22  C   UNL     1      43.352 -15.628   4.742  1.00  0.00     0.060 C 
BRANCH  22  23
HETATM   23  C   UNL     1      43.427 -16.975   5.397  1.00  0.00    -0.029 A 
HETATM   24  C   UNL     1      43.574 -18.243   4.744  1.00  0.00    -0.000 A 
HETATM   25  C   UNL     1      43.671 -19.217   5.739  1.00  0.00     0.043 A 
HETATM   26  C   UNL     1      43.649 -18.649   3.395  1.00  0.00     0.038 A 
HETATM   27  C   UNL     1      43.847 -20.578   5.457  1.00  0.00     0.032 A 
HETATM   28  N   UNL     1      43.567 -18.570   6.948  1.00  0.00    -0.365 N 
HETATM   29  C   UNL     1      43.917 -20.956   4.113  1.00  0.00     0.026 A 
HETATM   30  C   UNL     1      43.817 -20.005   3.101  1.00  0.00     0.035 A 
HETATM   31 CL   UNL     1      43.904 -20.508   1.454  1.00  0.00    -0.084 Cl
HETATM   32  H   UNL     1      43.609 -19.028   7.848  1.00  0.00     0.165 HD
HETATM   33  C   UNL     1      43.419 -17.225   6.755  1.00  0.00     0.096 A 
ENDBRANCH  22  23
ENDBRANCH  21  22
ENDBRANCH   2  21
TORSDOF 6
ENDMDL
MODEL 9
REMARK VINA RESULT:      -8.4      2.390      3.674
REMARK  6 active torsions:
REMARK  status: ('A' for Active; 'I' for Inactive)
REMARK    1  A    between atoms: C_3  and  C_4 
REMARK    2  A    between atoms: C_4  and  C_5 
REMARK       I    between atoms: C_5  and  N_6 
REMARK    3  A    between atoms: N_6  and  C_7 
REMARK    4  A    between atoms: C_7  and  C_8 
REMARK    5  A    between atoms: C_8  and  C_9 
REMARK    6  A    between atoms: C_27  and  O_28 
ROOT
HETATM    1  C   UNL     1      39.722 -11.701   2.321  1.00  0.00     0.222 C 
HETATM    2  N   UNL     1      40.973 -11.775   1.738  1.00  0.00    -0.360 N 
HETATM    3  O   UNL     1      39.120 -10.656   2.541  1.00  0.00    -0.273 OA
HETATM    4  H   UNL     1      41.171 -12.656   1.278  1.00  0.00     0.162 HD
ENDROOT
BRANCH   1   5
HETATM    5  C   UNL     1      39.138 -13.073   2.674  1.00  0.00     0.148 C 
BRANCH   5   6
HETATM    6  C   UNL     1      40.169 -14.096   3.099  1.00  0.00     0.033 C 
HETATM    7  C   UNL     1      40.575 -15.141   2.341  1.00  0.00    -0.036 C 
HETATM    8  C   UNL     1      40.021 -15.461   0.977  1.00  0.00     0.050 C 
HETATM    9  C   UNL     1      41.614 -16.044   2.881  1.00  0.00     0.006 A 
HETATM   10  C   UNL     1      42.292 -15.661   4.038  1.00  0.00     0.093 A 
HETATM   11  C   UNL     1      41.986 -17.256   2.284  1.00  0.00     0.041 A 
HETATM   12  O   UNL     1      41.919 -14.518   4.755  1.00  0.00    -0.274 OA
HETATM   13  C   UNL     1      43.337 -16.413   4.583  1.00  0.00     0.076 A 
HETATM   14  C   UNL     1      40.688 -13.955   4.488  1.00  0.00     0.295 C 
HETATM   15  O   UNL     1      40.056 -13.362   5.356  1.00  0.00    -0.259 OA
HETATM   16  C   UNL     1      43.693 -17.610   3.973  1.00  0.00     0.090 A 
HETATM   17  C   UNL     1      43.011 -18.040   2.832  1.00  0.00     0.068 A 
HETATM   18 CL   UNL     1      43.398 -19.538   2.065  1.00  0.00    -0.081 Cl
BRANCH  16  19
HETATM   19  O   UNL     1      44.700 -18.371   4.498  1.00  0.00    -0.359 OA
HETATM   20  H   UNL     1      44.589 -19.296   4.223  1.00  0.00     0.218 HD
ENDBRANCH  16  19
ENDBRANCH   5   6
ENDBRANCH   1   5
BRANCH   2  21
HETATM   21  C   UNL     1      41.566 -10.622   1.085  1.00  0.00     0.127 C 
BRANCH  21  22
HETATM   22  C   UNL     1      41.560 -10.688  -0.444  1.00  0.00     0.060 C 
BRANCH  22  23
HETATM   23  C   UNL     1      40.164 -10.553  -0.977  1.00  0.00    -0.029 A 
HETATM   24  C   UNL     1      39.350 -11.595  -1.532  1.00  0.00    -0.000 A 
HETATM   25  C   UNL     1      38.106 -11.038  -1.831  1.00  0.00     0.043 A 
HETATM   26  C   UNL     1      39.554 -12.966  -1.792  1.00  0.00     0.038 A 
HETATM   27  C   UNL     1      37.049 -11.782  -2.371  1.00  0.00     0.032 A 
HETATM   28  N   UNL     1      38.167  -9.706  -1.491  1.00  0.00    -0.365 N 
HETATM   29  C   UNL     1      37.276 -13.139  -2.621  1.00  0.00     0.026 A 
HETATM   30  C   UNL     1      38.510 -13.718  -2.337  1.00  0.00     0.035 A 
HETATM   31 CL   UNL     1      38.755 -15.393  -2.662  1.00  0.00    -0.084 Cl
HETATM   32  H   UNL     1      37.404  -9.053  -1.595  1.00  0.00     0.165 HD
HETATM   33  C   UNL     1      39.398  -9.404  -0.979  1.00  0.00     0.096 A 
ENDBRANCH  22  23
ENDBRANCH  21  22
ENDBRANCH   2  21
TORSDOF 6
ENDMDL
MODEL 10
REMARK VINA RESULT:      -8.3      6.974     10.924
REMARK  6 active torsions:
REMARK  status: ('A' for Active; 'I' for Inactive)
REMARK    1  A    between atoms: C_3  and  C_4 
REMARK    2  A    between atoms: C_4  and  C_5 
REMARK       I    between atoms: C_5  and  N_6 
REMARK    3  A    between atoms: N_6  and  C_7 
REMARK    4  A    between atoms: C_7  and  C_8 
REMARK    5  A    between atoms: C_8  and  C_9 
REMARK    6  A    between atoms: C_27  and  O_28 
ROOT
HETATM    1  C   UNL     1      41.583 -10.551   5.607  1.00  0.00     0.222 C 
HETATM    2  N   UNL     1      41.561 -11.749   6.297  1.00  0.00    -0.360 N 
HETATM    3  O   UNL     1      42.463 -10.221   4.819  1.00  0.00    -0.273 OA
HETATM    4  H   UNL     1      40.638 -12.048   6.590  1.00  0.00     0.162 HD
ENDROOT
BRANCH   1   5
HETATM    5  C   UNL     1      40.383  -9.652   5.918  1.00  0.00     0.148 C 
BRANCH   5   6
HETATM    6  C   UNL     1      40.256  -9.268   7.376  1.00  0.00     0.033 C 
HETATM    7  C   UNL     1      41.077  -8.406   8.019  1.00  0.00    -0.036 C 
HETATM    8  C   UNL     1      42.267  -7.736   7.382  1.00  0.00     0.050 C 
HETATM    9  C   UNL     1      40.812  -8.105   9.442  1.00  0.00     0.006 A 
HETATM   10  C   UNL     1      39.609  -8.539  10.001  1.00  0.00     0.093 A 
HETATM   11  C   UNL     1      41.684  -7.383  10.268  1.00  0.00     0.041 A 
HETATM   12  O   UNL     1      38.724  -9.351   9.281  1.00  0.00    -0.274 OA
HETATM   13  C   UNL     1      39.239  -8.243  11.316  1.00  0.00     0.076 A 
HETATM   14  C   UNL     1      39.193  -9.975   8.143  1.00  0.00     0.295 C 
HETATM   15  O   UNL     1      38.747 -11.058   7.780  1.00  0.00    -0.259 OA
HETATM   16  C   UNL     1      40.116  -7.521  12.115  1.00  0.00     0.090 A 
HETATM   17  C   UNL     1      41.344  -7.101  11.598  1.00  0.00     0.068 A 
HETATM   18 CL   UNL     1      42.478  -6.233  12.569  1.00  0.00    -0.081 Cl
BRANCH  16  19
HETATM   19  O   UNL     1      39.782  -7.235  13.409  1.00  0.00    -0.359 OA
HETATM   20  H   UNL     1      40.508  -7.498  14.000  1.00  0.00     0.218 HD
ENDBRANCH  16  19
ENDBRANCH   5   6
ENDBRANCH   1   5
BRANCH   2  21
HETATM   21  C   UNL     1      42.447 -12.840   5.936  1.00  0.00     0.127 C 
BRANCH  21  22
HETATM   22  C   UNL     1      43.533 -13.144   6.970  1.00  0.00     0.060 C 
BRANCH  22  23
HETATM   23  C   UNL     1      44.413 -11.949   7.184  1.00  0.00    -0.029 A 
HETATM   24  C   UNL     1      44.457 -11.107   8.344  1.00  0.00    -0.000 A 
HETATM   25  C   UNL     1      45.467 -10.166   8.140  1.00  0.00     0.043 A 
HETATM   26  C   UNL     1      43.738 -11.071   9.557  1.00  0.00     0.038 A 
HETATM   27  C   UNL     1      45.803  -9.193   9.089  1.00  0.00     0.032 A 
HETATM   28  N   UNL     1      46.003 -10.412   6.897  1.00  0.00    -0.365 N 
HETATM   29  C   UNL     1      45.076  -9.176  10.283  1.00  0.00     0.026 A 
HETATM   30  C   UNL     1      44.060 -10.100  10.510  1.00  0.00     0.035 A 
HETATM   31 CL   UNL     1      43.181 -10.048  11.992  1.00  0.00    -0.084 Cl
HETATM   32  H   UNL     1      46.760  -9.884   6.485  1.00  0.00     0.165 HD
HETATM   33  C   UNL     1      45.377 -11.478   6.314  1.00  0.00     0.096 A 
ENDBRANCH  22  23
ENDBRANCH  21  22
ENDBRANCH   2  21
TORSDOF 6
ENDMDL
