MODEL 1
REMARK VINA RESULT:      -8.8      0.000      0.000
REMARK  4 active torsions:
REMARK  status: ('A' for Active; 'I' for Inactive)
REMARK    1  A    between atoms: C_7  and  C_8 
REMARK    2  A    between atoms: N_9  and  C_10 
REMARK    3  A    between atoms: C_10  and  C_11 
REMARK       I    between atoms: C_11  and  N_12 
REMARK    4  A    between atoms: N_12  and  C_13 
ROOT
HETATM    1  C   UNL     1      43.299 -15.096   4.854  1.00  0.00     0.158 C 
HETATM    2  N   UNL     1      43.332 -15.472   6.258  1.00  0.00    -0.326 N 
HETATM    3  C   UNL     1      43.700 -16.789   6.435  1.00  0.00     0.255 C 
HETATM    4  O   UNL     1      43.988 -17.339   7.481  1.00  0.00    -0.267 OA
HETATM    5  C   UNL     1      43.728 -17.408   5.104  1.00  0.00     0.040 A 
HETATM    6  C   UNL     1      43.457 -16.417   4.157  1.00  0.00    -0.015 A 
HETATM    7  C   UNL     1      43.954 -18.729   4.766  1.00  0.00     0.017 A 
HETATM    8  C   UNL     1      43.898 -19.063   3.413  1.00  0.00     0.001 A 
HETATM    9  C   UNL     1      43.629 -18.080   2.444  1.00  0.00     0.001 A 
HETATM   10  C   UNL     1      43.415 -16.745   2.811  1.00  0.00     0.011 A 
ENDROOT
BRANCH   1  11
HETATM   11  C   UNL     1      41.994 -14.499   4.421  1.00  0.00     0.004 A 
HETATM   12  C   UNL     1      40.738 -15.013   4.738  1.00  0.00     0.015 A 
HETATM   13  C   UNL     1      40.345 -16.194   5.552  1.00  0.00     0.069 C 
HETATM   14  N   UNL     1      39.792 -14.226   4.136  1.00  0.00    -0.359 N 
HETATM   15  H   UNL     1      38.794 -14.373   4.185  1.00  0.00     0.166 HD
HETATM   16  C   UNL     1      40.384 -13.201   3.441  1.00  0.00     0.043 A 
HETATM   17  C   UNL     1      41.762 -13.333   3.606  1.00  0.00     0.001 A 
HETATM   18  C   UNL     1      39.798 -12.180   2.683  1.00  0.00     0.030 A 
HETATM   19  C   UNL     1      42.594 -12.378   2.980  1.00  0.00     0.014 A 
HETATM   20  C   UNL     1      42.027 -11.351   2.216  1.00  0.00     0.001 A 
HETATM   21  C   UNL     1      40.646 -11.256   2.070  1.00  0.00     0.002 A 
ENDBRANCH   1  11
BRANCH   2  22
HETATM   22  C   UNL     1      43.190 -14.508   7.336  1.00  0.00     0.229 C 
BRANCH  22  23
HETATM   23  C   UNL     1      43.627 -13.087   6.977  1.00  0.00     0.235 C 
HETATM   24  N   UNL     1      42.620 -12.140   7.006  1.00  0.00    -0.355 N 
HETATM   25  H   UNL     1      41.669 -12.493   7.089  1.00  0.00     0.162 HD
HETATM   26  O   UNL     1      44.761 -12.848   6.568  1.00  0.00    -0.272 OA
BRANCH  24  27
HETATM   27  C   UNL     1      42.816 -10.818   6.420  1.00  0.00     0.084 C 
HETATM   28  C   UNL     1      41.523 -10.307   5.768  1.00  0.00     0.025 C 
HETATM   29  C   UNL     1      40.482  -9.853   6.791  1.00  0.00     0.002 C 
HETATM   30  C   UNL     1      41.062  -8.826   7.758  1.00  0.00     0.000 C 
HETATM   31  C   UNL     1      42.306  -9.363   8.457  1.00  0.00     0.002 C 
HETATM   32  C   UNL     1      43.360  -9.826   7.454  1.00  0.00     0.025 C 
ENDBRANCH  24  27
ENDBRANCH  22  23
ENDBRANCH   2  22
TORSDOF 4
ENDMDL
MODEL 2
REMARK VINA RESULT:      -8.8      2.908      6.258
REMARK  4 active torsions:
REMARK  status: ('A' for Active; 'I' for Inactive)
REMARK    1  A    between atoms: C_7  and  C_8 
REMARK    2  A    between atoms: N_9  and  C_10 
REMARK    3  A    between atoms: C_10  and  C_11 
REMARK       I    between atoms: C_11  and  N_12 
REMARK    4  A    between atoms: N_12  and  C_13 
ROOT
HETATM    1  C   UNL     1      41.077 -13.164   2.327  1.00  0.00     0.158 C 
HETATM    2  N   UNL     1      42.495 -12.865   2.432  1.00  0.00    -0.326 N 
HETATM    3  C   UNL     1      42.726 -11.622   2.982  1.00  0.00     0.255 C 
HETATM    4  O   UNL     1      43.790 -11.169   3.359  1.00  0.00    -0.267 OA
HETATM    5  C   UNL     1      41.424 -10.949   3.078  1.00  0.00     0.040 A 
HETATM    6  C   UNL     1      40.438 -11.846   2.659  1.00  0.00    -0.015 A 
HETATM    7  C   UNL     1      41.144  -9.657   3.481  1.00  0.00     0.017 A 
HETATM    8  C   UNL     1      39.809  -9.253   3.453  1.00  0.00     0.001 A 
HETATM    9  C   UNL     1      38.801 -10.141   3.036  1.00  0.00     0.001 A 
HETATM   10  C   UNL     1      39.110 -11.449   2.644  1.00  0.00     0.011 A 
ENDROOT
BRANCH   1  11
HETATM   11  C   UNL     1      40.643 -13.553   0.947  1.00  0.00     0.004 A 
HETATM   12  C   UNL     1      40.093 -14.785   0.601  1.00  0.00     0.015 A 
HETATM   13  C   UNL     1      39.774 -15.979   1.431  1.00  0.00     0.069 C 
HETATM   14  N   UNL     1      39.862 -14.785  -0.750  1.00  0.00    -0.359 N 
HETATM   15  H   UNL     1      39.478 -15.557  -1.276  1.00  0.00     0.166 HD
HETATM   16  C   UNL     1      40.231 -13.585  -1.304  1.00  0.00     0.043 A 
HETATM   17  C   UNL     1      40.714 -12.784  -0.271  1.00  0.00     0.001 A 
HETATM   18  C   UNL     1      40.173 -13.163  -2.638  1.00  0.00     0.030 A 
HETATM   19  C   UNL     1      41.155 -11.482  -0.598  1.00  0.00     0.014 A 
HETATM   20  C   UNL     1      41.107 -11.043  -1.927  1.00  0.00     0.001 A 
HETATM   21  C   UNL     1      40.623 -11.874  -2.932  1.00  0.00     0.002 A 
ENDBRANCH   1  11
BRANCH   2  22
HETATM   22  C   UNL     1      43.530 -13.852   2.173  1.00  0.00     0.229 C 
BRANCH  22  23
HETATM   23  C   UNL     1      43.196 -15.263   2.657  1.00  0.00     0.235 C 
HETATM   24  N   UNL     1      42.964 -15.377   4.015  1.00  0.00    -0.355 N 
HETATM   25  H   UNL     1      43.203 -14.567   4.584  1.00  0.00     0.162 HD
HETATM   26  O   UNL     1      43.262 -16.233   1.905  1.00  0.00    -0.272 OA
BRANCH  24  27
HETATM   27  C   UNL     1      42.915 -16.684   4.662  1.00  0.00     0.084 C 
HETATM   28  C   UNL     1      44.298 -17.084   5.199  1.00  0.00     0.025 C 
HETATM   29  C   UNL     1      44.687 -16.318   6.463  1.00  0.00     0.002 C 
HETATM   30  C   UNL     1      43.615 -16.438   7.540  1.00  0.00     0.000 C 
HETATM   31  C   UNL     1      42.257 -15.973   7.026  1.00  0.00     0.002 C 
HETATM   32  C   UNL     1      41.848 -16.722   5.760  1.00  0.00     0.025 C 
ENDBRANCH  24  27
ENDBRANCH  22  23
ENDBRANCH   2  22
TORSDOF 4
ENDMDL
MODEL 3
REMARK VINA RESULT:      -8.8      3.022      5.982
REMARK  4 active torsions:
REMARK  status: ('A' for Active; 'I' for Inactive)
REMARK    1  A    between atoms: C_7  and  C_8 
REMARK    2  A    between atoms: N_9  and  C_10 
REMARK    3  A    between atoms: C_10  and  C_11 
REMARK       I    between atoms: C_11  and  N_12 
REMARK    4  A    between atoms: N_12  and  C_13 
ROOT
HETATM    1  C   UNL     1      41.471 -14.332   4.668  1.00  0.00     0.158 C 
HETATM    2  N   UNL     1      42.133 -14.292   3.374  1.00  0.00    -0.326 N 
HETATM    3  C   UNL     1      43.005 -15.346   3.202  1.00  0.00     0.255 C 
HETATM    4  O   UNL     1      43.561 -15.683   2.174  1.00  0.00    -0.267 OA
HETATM    5  C   UNL     1      43.107 -16.032   4.497  1.00  0.00     0.040 A 
HETATM    6  C   UNL     1      42.223 -15.416   5.387  1.00  0.00    -0.015 A 
HETATM    7  C   UNL     1      43.920 -17.090   4.856  1.00  0.00     0.017 A 
HETATM    8  C   UNL     1      43.840 -17.541   6.174  1.00  0.00     0.001 A 
HETATM    9  C   UNL     1      42.956 -16.935   7.085  1.00  0.00     0.001 A 
HETATM   10  C   UNL     1      42.134 -15.872   6.693  1.00  0.00     0.011 A 
ENDROOT
BRANCH   1  11
HETATM   11  C   UNL     1      41.616 -13.068   5.458  1.00  0.00     0.004 A 
HETATM   12  C   UNL     1      40.568 -12.215   5.796  1.00  0.00     0.015 A 
HETATM   13  C   UNL     1      39.109 -12.305   5.520  1.00  0.00     0.069 C 
HETATM   14  N   UNL     1      41.091 -11.149   6.482  1.00  0.00    -0.359 N 
HETATM   15  H   UNL     1      40.558 -10.368   6.839  1.00  0.00     0.166 HD
HETATM   16  C   UNL     1      42.449 -11.279   6.617  1.00  0.00     0.043 A 
HETATM   17  C   UNL     1      42.814 -12.474   5.999  1.00  0.00     0.001 A 
HETATM   18  C   UNL     1      43.371 -10.425   7.236  1.00  0.00     0.030 A 
HETATM   19  C   UNL     1      44.180 -12.832   6.012  1.00  0.00     0.014 A 
HETATM   20  C   UNL     1      45.117 -11.990   6.624  1.00  0.00     0.001 A 
HETATM   21  C   UNL     1      44.715 -10.803   7.226  1.00  0.00     0.002 A 
ENDBRANCH   1  11
BRANCH   2  22
HETATM   22  C   UNL     1      41.755 -13.361   2.324  1.00  0.00     0.229 C 
BRANCH  22  23
HETATM   23  C   UNL     1      40.749 -13.918   1.316  1.00  0.00     0.235 C 
HETATM   24  N   UNL     1      40.892 -13.445   0.024  1.00  0.00    -0.355 N 
HETATM   25  H   UNL     1      41.524 -12.656  -0.101  1.00  0.00     0.162 HD
HETATM   26  O   UNL     1      39.811 -14.628   1.670  1.00  0.00    -0.272 OA
BRANCH  24  27
HETATM   27  C   UNL     1      39.848 -13.659  -0.973  1.00  0.00     0.084 C 
HETATM   28  C   UNL     1      38.798 -12.538  -0.920  1.00  0.00     0.025 C 
HETATM   29  C   UNL     1      39.300 -11.227  -1.523  1.00  0.00     0.002 C 
HETATM   30  C   UNL     1      39.828 -11.430  -2.939  1.00  0.00     0.000 C 
HETATM   31  C   UNL     1      40.920 -12.493  -2.977  1.00  0.00     0.002 C 
HETATM   32  C   UNL     1      40.443 -13.813  -2.377  1.00  0.00     0.025 C 
ENDBRANCH  24  27
ENDBRANCH  22  23
ENDBRANCH   2  22
TORSDOF 4
ENDMDL
MODEL 4
REMARK VINA RESULT:      -8.7      1.357      1.790
REMARK  4 active torsions:
REMARK  status: ('A' for Active; 'I' for Inactive)
REMARK    1  A    between atoms: C_7  and  C_8 
REMARK    2  A    between atoms: N_9  and  C_10 
REMARK    3  A    between atoms: C_10  and  C_11 
REMARK       I    between atoms: C_11  and  N_12 
REMARK    4  A    between atoms: N_12  and  C_13 
ROOT
HETATM    1  C   UNL     1      43.050 -14.195   4.727  1.00  0.00     0.158 C 
HETATM    2  N   UNL     1      43.331 -14.759   6.037  1.00  0.00    -0.326 N 
HETATM    3  C   UNL     1      43.773 -16.063   5.957  1.00  0.00     0.255 C 
HETATM    4  O   UNL     1      44.252 -16.735   6.851  1.00  0.00    -0.267 OA
HETATM    5  C   UNL     1      43.601 -16.489   4.562  1.00  0.00     0.040 A 
HETATM    6  C   UNL     1      43.139 -15.394   3.827  1.00  0.00    -0.015 A 
HETATM    7  C   UNL     1      43.816 -17.734   4.003  1.00  0.00     0.017 A 
HETATM    8  C   UNL     1      43.547 -17.880   2.642  1.00  0.00     0.001 A 
HETATM    9  C   UNL     1      43.083 -16.790   1.883  1.00  0.00     0.001 A 
HETATM   10  C   UNL     1      42.885 -15.535   2.472  1.00  0.00     0.011 A 
ENDROOT
BRANCH   1  11
HETATM   11  C   UNL     1      41.671 -13.624   4.600  1.00  0.00     0.004 A 
HETATM   12  C   UNL     1      40.512 -14.225   5.087  1.00  0.00     0.015 A 
HETATM   13  C   UNL     1      40.312 -15.496   5.835  1.00  0.00     0.069 C 
HETATM   14  N   UNL     1      39.447 -13.432   4.748  1.00  0.00    -0.359 N 
HETATM   15  H   UNL     1      38.480 -13.631   4.963  1.00  0.00     0.166 HD
HETATM   16  C   UNL     1      39.868 -12.319   4.066  1.00  0.00     0.043 A 
HETATM   17  C   UNL     1      41.257 -12.399   3.964  1.00  0.00     0.001 A 
HETATM   18  C   UNL     1      39.121 -11.261   3.534  1.00  0.00     0.030 A 
HETATM   19  C   UNL     1      41.929 -11.350   3.297  1.00  0.00     0.014 A 
HETATM   20  C   UNL     1      41.198 -10.285   2.756  1.00  0.00     0.001 A 
HETATM   21  C   UNL     1      39.813 -10.244   2.873  1.00  0.00     0.002 A 
ENDBRANCH   1  11
BRANCH   2  22
HETATM   22  C   UNL     1      43.336 -13.964   7.253  1.00  0.00     0.229 C 
BRANCH  22  23
HETATM   23  C   UNL     1      44.117 -12.654   7.150  1.00  0.00     0.235 C 
HETATM   24  N   UNL     1      43.775 -11.693   8.084  1.00  0.00    -0.355 N 
HETATM   25  H   UNL     1      42.934 -11.873   8.630  1.00  0.00     0.162 HD
HETATM   26  O   UNL     1      44.893 -12.439   6.221  1.00  0.00    -0.272 OA
BRANCH  24  27
HETATM   27  C   UNL     1      44.221 -10.311   7.937  1.00  0.00     0.084 C 
HETATM   28  C   UNL     1      43.094  -9.329   8.292  1.00  0.00     0.025 C 
HETATM   29  C   UNL     1      42.842  -9.235   9.796  1.00  0.00     0.002 C 
HETATM   30  C   UNL     1      44.123  -8.913  10.559  1.00  0.00     0.000 C 
HETATM   31  C   UNL     1      45.218  -9.931  10.259  1.00  0.00     0.002 C 
HETATM   32  C   UNL     1      45.486 -10.045   8.760  1.00  0.00     0.025 C 
ENDBRANCH  24  27
ENDBRANCH  22  23
ENDBRANCH   2  22
TORSDOF 4
ENDMDL
MODEL 5
REMARK VINA RESULT:      -8.4      2.582      7.227
REMARK  4 active torsions:
REMARK  status: ('A' for Active; 'I' for Inactive)
REMARK    1  A    between atoms: C_7  and  C_8 
REMARK    2  A    between atoms: N_9  and  C_10 
REMARK    3  A    between atoms: C_10  and  C_11 
REMARK       I    between atoms: C_11  and  N_12 
REMARK    4  A    between atoms: N_12  and  C_13 
ROOT
HETATM    1  C   UNL     1      42.532 -10.638   5.254  1.00  0.00     0.158 C 
HETATM    2  N   UNL     1      41.826 -10.761   3.989  1.00  0.00    -0.326 N 
HETATM    3  C   UNL     1      40.633 -10.068   3.990  1.00  0.00     0.255 C 
HETATM    4  O   UNL     1      39.916  -9.835   3.036  1.00  0.00    -0.267 OA
HETATM    5  C   UNL     1      40.403  -9.614   5.368  1.00  0.00     0.040 A 
HETATM    6  C   UNL     1      41.512  -9.978   6.137  1.00  0.00    -0.015 A 
HETATM    7  C   UNL     1      39.306  -8.959   5.893  1.00  0.00     0.017 A 
HETATM    8  C   UNL     1      39.329  -8.662   7.256  1.00  0.00     0.001 A 
HETATM    9  C   UNL     1      40.437  -9.017   8.047  1.00  0.00     0.001 A 
HETATM   10  C   UNL     1      41.541  -9.672   7.488  1.00  0.00     0.011 A 
ENDROOT
BRANCH   1  11
HETATM   11  C   UNL     1      42.895 -11.954   5.871  1.00  0.00     0.004 A 
HETATM   12  C   UNL     1      44.175 -12.314   6.288  1.00  0.00     0.015 A 
HETATM   13  C   UNL     1      45.455 -11.557   6.268  1.00  0.00     0.069 C 
HETATM   14  N   UNL     1      44.123 -13.599   6.760  1.00  0.00    -0.359 N 
HETATM   15  H   UNL     1      44.911 -14.122   7.117  1.00  0.00     0.166 HD
HETATM   16  C   UNL     1      42.846 -14.094   6.681  1.00  0.00     0.043 A 
HETATM   17  C   UNL     1      42.046 -13.088   6.140  1.00  0.00     0.001 A 
HETATM   18  C   UNL     1      42.352 -15.353   7.046  1.00  0.00     0.030 A 
HETATM   19  C   UNL     1      40.672 -13.364   5.964  1.00  0.00     0.014 A 
HETATM   20  C   UNL     1      40.159 -14.617   6.320  1.00  0.00     0.001 A 
HETATM   21  C   UNL     1      40.990 -15.598   6.852  1.00  0.00     0.002 A 
ENDBRANCH   1  11
BRANCH   2  22
HETATM   22  C   UNL     1      42.418 -11.373   2.812  1.00  0.00     0.229 C 
BRANCH  22  23
HETATM   23  C   UNL     1      41.570 -12.476   2.177  1.00  0.00     0.235 C 
HETATM   24  N   UNL     1      41.727 -13.731   2.736  1.00  0.00    -0.355 N 
HETATM   25  H   UNL     1      42.502 -13.842   3.387  1.00  0.00     0.162 HD
HETATM   26  O   UNL     1      40.905 -12.272   1.164  1.00  0.00    -0.272 OA
BRANCH  24  27
HETATM   27  C   UNL     1      41.211 -14.921   2.067  1.00  0.00     0.084 C 
HETATM   28  C   UNL     1      42.188 -15.413   0.989  1.00  0.00     0.025 C 
HETATM   29  C   UNL     1      43.418 -16.105   1.575  1.00  0.00     0.002 C 
HETATM   30  C   UNL     1      43.026 -17.230   2.526  1.00  0.00     0.000 C 
HETATM   31  C   UNL     1      42.112 -16.724   3.637  1.00  0.00     0.002 C 
HETATM   32  C   UNL     1      40.876 -16.025   3.076  1.00  0.00     0.025 C 
ENDBRANCH  24  27
ENDBRANCH  22  23
ENDBRANCH   2  22
TORSDOF 4
ENDMDL
MODEL 6
REMARK VINA RESULT:      -8.3      2.793      6.631
REMARK  4 active torsions:
REMARK  status: ('A' for Active; 'I' for Inactive)
REMARK    1  A    between atoms: C_7  and  C_8 
REMARK    2  A    between atoms: N_9  and  C_10 
REMARK    3  A    between atoms: C_10  and  C_11 
REMARK       I    between atoms: C_11  and  N_12 
REMARK    4  A    between atoms: N_12  and  C_13 
ROOT
HETATM    1  C   UNL     1      42.466 -11.938   4.051  1.00  0.00     0.158 C 
HETATM    2  N   UNL     1      41.429 -10.920   4.076  1.00  0.00    -0.326 N 
HETATM    3  C   UNL     1      41.598 -10.031   5.116  1.00  0.00     0.255 C 
HETATM    4  O   UNL     1      41.007  -8.982   5.292  1.00  0.00    -0.267 OA
HETATM    5  C   UNL     1      42.672 -10.563   5.964  1.00  0.00     0.040 A 
HETATM    6  C   UNL     1      43.174 -11.718   5.358  1.00  0.00    -0.015 A 
HETATM    7  C   UNL     1      43.145 -10.080   7.169  1.00  0.00     0.017 A 
HETATM    8  C   UNL     1      44.167 -10.798   7.790  1.00  0.00     0.001 A 
HETATM    9  C   UNL     1      44.688 -11.962   7.195  1.00  0.00     0.001 A 
HETATM   10  C   UNL     1      44.198 -12.425   5.967  1.00  0.00     0.011 A 
ENDROOT
BRANCH   1  11
HETATM   11  C   UNL     1      41.935 -13.339   4.044  1.00  0.00     0.004 A 
HETATM   12  C   UNL     1      40.948 -13.822   4.901  1.00  0.00     0.015 A 
HETATM   13  C   UNL     1      40.171 -13.144   5.974  1.00  0.00     0.069 C 
HETATM   14  N   UNL     1      40.756 -15.150   4.624  1.00  0.00    -0.359 N 
HETATM   15  H   UNL     1      40.106 -15.757   5.103  1.00  0.00     0.166 HD
HETATM   16  C   UNL     1      41.577 -15.556   3.603  1.00  0.00     0.043 A 
HETATM   17  C   UNL     1      42.322 -14.447   3.206  1.00  0.00     0.001 A 
HETATM   18  C   UNL     1      41.711 -16.819   3.013  1.00  0.00     0.030 A 
HETATM   19  C   UNL     1      43.247 -14.618   2.152  1.00  0.00     0.014 A 
HETATM   20  C   UNL     1      43.397 -15.874   1.551  1.00  0.00     0.001 A 
HETATM   21  C   UNL     1      42.639 -16.959   1.979  1.00  0.00     0.002 A 
ENDBRANCH   1  11
BRANCH   2  22
HETATM   22  C   UNL     1      40.459 -10.757   3.006  1.00  0.00     0.229 C 
BRANCH  22  23
HETATM   23  C   UNL     1      41.021 -10.976   1.602  1.00  0.00     0.235 C 
HETATM   24  N   UNL     1      40.341 -11.905   0.836  1.00  0.00    -0.355 N 
HETATM   25  H   UNL     1      39.652 -12.475   1.323  1.00  0.00     0.162 HD
HETATM   26  O   UNL     1      42.076 -10.455   1.244  1.00  0.00    -0.272 OA
BRANCH  24  27
HETATM   27  C   UNL     1      40.917 -12.424  -0.400  1.00  0.00     0.084 C 
HETATM   28  C   UNL     1      40.856 -13.959  -0.434  1.00  0.00     0.025 C 
HETATM   29  C   UNL     1      39.448 -14.490  -0.701  1.00  0.00     0.002 C 
HETATM   30  C   UNL     1      38.852 -13.881  -1.966  1.00  0.00     0.000 C 
HETATM   31  C   UNL     1      38.849 -12.358  -1.900  1.00  0.00     0.002 C 
HETATM   32  C   UNL     1      40.246 -11.803  -1.630  1.00  0.00     0.025 C 
ENDBRANCH  24  27
ENDBRANCH  22  23
ENDBRANCH   2  22
TORSDOF 4
ENDMDL
MODEL 7
REMARK VINA RESULT:      -8.3      7.561     10.032
REMARK  4 active torsions:
REMARK  status: ('A' for Active; 'I' for Inactive)
REMARK    1  A    between atoms: C_7  and  C_8 
REMARK    2  A    between atoms: N_9  and  C_10 
REMARK    3  A    between atoms: C_10  and  C_11 
REMARK       I    between atoms: C_11  and  N_12 
REMARK    4  A    between atoms: N_12  and  C_13 
ROOT
HETATM    1  C   UNL     1      41.381  -9.607  10.615  1.00  0.00     0.158 C 
HETATM    2  N   UNL     1      40.934  -8.489   9.800  1.00  0.00    -0.326 N 
HETATM    3  C   UNL     1      41.935  -8.009   8.982  1.00  0.00     0.255 C 
HETATM    4  O   UNL     1      41.822  -7.211   8.071  1.00  0.00    -0.267 OA
HETATM    5  C   UNL     1      43.177  -8.682   9.385  1.00  0.00     0.040 A 
HETATM    6  C   UNL     1      42.865  -9.612  10.380  1.00  0.00    -0.015 A 
HETATM    7  C   UNL     1      44.463  -8.475   8.925  1.00  0.00     0.017 A 
HETATM    8  C   UNL     1      45.479  -9.238   9.501  1.00  0.00     0.001 A 
HETATM    9  C   UNL     1      45.186 -10.181  10.503  1.00  0.00     0.001 A 
HETATM   10  C   UNL     1      43.872 -10.380  10.944  1.00  0.00     0.011 A 
ENDROOT
BRANCH   1  11
HETATM   11  C   UNL     1      41.146  -9.415  12.082  1.00  0.00     0.004 A 
HETATM   12  C   UNL     1      40.156 -10.058  12.822  1.00  0.00     0.015 A 
HETATM   13  C   UNL     1      39.134 -11.062  12.419  1.00  0.00     0.069 C 
HETATM   14  N   UNL     1      40.224  -9.600  14.112  1.00  0.00    -0.359 N 
HETATM   15  H   UNL     1      39.615  -9.888  14.865  1.00  0.00     0.166 HD
HETATM   16  C   UNL     1      41.237  -8.685  14.249  1.00  0.00     0.043 A 
HETATM   17  C   UNL     1      41.844  -8.552  13.001  1.00  0.00     0.001 A 
HETATM   18  C   UNL     1      41.649  -7.972  15.382  1.00  0.00     0.030 A 
HETATM   19  C   UNL     1      42.931  -7.656  12.891  1.00  0.00     0.014 A 
HETATM   20  C   UNL     1      43.356  -6.932  14.012  1.00  0.00     0.001 A 
HETATM   21  C   UNL     1      42.721  -7.088  15.240  1.00  0.00     0.002 A 
ENDBRANCH   1  11
BRANCH   2  22
HETATM   22  C   UNL     1      39.543  -8.076   9.723  1.00  0.00     0.229 C 
BRANCH  22  23
HETATM   23  C   UNL     1      39.270  -6.667  10.248  1.00  0.00     0.235 C 
HETATM   24  N   UNL     1      39.043  -6.583  11.610  1.00  0.00    -0.355 N 
HETATM   25  H   UNL     1      38.906  -7.464  12.101  1.00  0.00     0.162 HD
HETATM   26  O   UNL     1      39.136  -5.712   9.486  1.00  0.00    -0.272 OA
BRANCH  24  27
HETATM   27  C   UNL     1      38.495  -5.369  12.206  1.00  0.00     0.084 C 
HETATM   28  C   UNL     1      37.639  -5.698  13.439  1.00  0.00     0.025 C 
HETATM   29  C   UNL     1      38.478  -6.085  14.656  1.00  0.00     0.002 C 
HETATM   30  C   UNL     1      39.526  -5.023  14.973  1.00  0.00     0.000 C 
HETATM   31  C   UNL     1      40.419  -4.748  13.768  1.00  0.00     0.002 C 
HETATM   32  C   UNL     1      39.603  -4.363  12.537  1.00  0.00     0.025 C 
ENDBRANCH  24  27
ENDBRANCH  22  23
ENDBRANCH   2  22
TORSDOF 4
ENDMDL
MODEL 8
REMARK VINA RESULT:      -8.1     16.377     19.214
REMARK  4 active torsions:
REMARK  status: ('A' for Active; 'I' for Inactive)
REMARK    1  A    between atoms: C_7  and  C_8 
REMARK    2  A    between atoms: N_9  and  C_10 
REMARK    3  A    between atoms: C_10  and  C_11 
REMARK       I    between atoms: C_11  and  N_12 
REMARK    4  A    between atoms: N_12  and  C_13 
ROOT
HETATM    1  C   UNL     1      49.234 -29.589   0.066  1.00  0.00     0.158 C 
HETATM    2  N   UNL     1      48.033 -28.775   0.165  1.00  0.00    -0.326 N 
HETATM    3  C   UNL     1      47.699 -28.498   1.473  1.00  0.00     0.255 C 
HETATM    4  O   UNL     1      46.866 -27.705   1.868  1.00  0.00    -0.267 OA
HETATM    5  C   UNL     1      48.579 -29.312   2.322  1.00  0.00     0.040 A 
HETATM    6  C   UNL     1      49.475 -29.992   1.493  1.00  0.00    -0.015 A 
HETATM    7  C   UNL     1      48.572 -29.451   3.696  1.00  0.00     0.017 A 
HETATM    8  C   UNL     1      49.508 -30.320   4.257  1.00  0.00     0.001 A 
HETATM    9  C   UNL     1      50.421 -31.012   3.440  1.00  0.00     0.001 A 
HETATM   10  C   UNL     1      50.415 -30.845   2.050  1.00  0.00     0.011 A 
ENDROOT
BRANCH   1  11
HETATM   11  C   UNL     1      49.052 -30.837  -0.742  1.00  0.00     0.004 A 
HETATM   12  C   UNL     1      49.867 -31.227  -1.802  1.00  0.00     0.015 A 
HETATM   13  C   UNL     1      51.077 -30.589  -2.388  1.00  0.00     0.069 C 
HETATM   14  N   UNL     1      49.367 -32.394  -2.317  1.00  0.00    -0.359 N 
HETATM   15  H   UNL     1      49.754 -32.897  -3.103  1.00  0.00     0.166 HD
HETATM   16  C   UNL     1      48.254 -32.793  -1.622  1.00  0.00     0.043 A 
HETATM   17  C   UNL     1      48.032 -31.849  -0.620  1.00  0.00     0.001 A 
HETATM   18  C   UNL     1      47.435 -33.913  -1.813  1.00  0.00     0.030 A 
HETATM   19  C   UNL     1      46.930 -32.049   0.241  1.00  0.00     0.014 A 
HETATM   20  C   UNL     1      46.099 -33.162   0.064  1.00  0.00     0.001 A 
HETATM   21  C   UNL     1      46.349 -34.080  -0.951  1.00  0.00     0.002 A 
ENDBRANCH   1  11
BRANCH   2  22
HETATM   22  C   UNL     1      47.396 -28.168  -0.991  1.00  0.00     0.229 C 
BRANCH  22  23
HETATM   23  C   UNL     1      45.908 -28.489  -1.135  1.00  0.00     0.235 C 
HETATM   24  N   UNL     1      45.621 -29.621  -1.876  1.00  0.00    -0.355 N 
HETATM   25  H   UNL     1      46.396 -30.030  -2.394  1.00  0.00     0.162 HD
HETATM   26  O   UNL     1      45.042 -27.716  -0.729  1.00  0.00    -0.272 OA
BRANCH  24  27
HETATM   27  C   UNL     1      44.263 -29.893  -2.335  1.00  0.00     0.084 C 
HETATM   28  C   UNL     1      43.988 -29.205  -3.681  1.00  0.00     0.025 C 
HETATM   29  C   UNL     1      44.675 -29.903  -4.854  1.00  0.00     0.002 C 
HETATM   30  C   UNL     1      44.324 -31.386  -4.905  1.00  0.00     0.000 C 
HETATM   31  C   UNL     1      44.663 -32.082  -3.591  1.00  0.00     0.002 C 
HETATM   32  C   UNL     1      43.990 -31.400  -2.403  1.00  0.00     0.025 C 
ENDBRANCH  24  27
ENDBRANCH  22  23
ENDBRANCH   2  22
TORSDOF 4
ENDMDL
MODEL 9
REMARK VINA RESULT:      -8.0     16.140     18.536
REMARK  4 active torsions:
REMARK  status: ('A' for Active; 'I' for Inactive)
REMARK    1  A    between atoms: C_7  and  C_8 
REMARK    2  A    between atoms: N_9  and  C_10 
REMARK    3  A    between atoms: C_10  and  C_11 
REMARK       I    between atoms: C_11  and  N_12 
REMARK    4  A    between atoms: N_12  and  C_13 
ROOT
HETATM    1  C   UNL     1      46.631 -30.026  -0.353  1.00  0.00     0.158 C 
HETATM    2  N   UNL     1      46.640 -31.449  -0.649  1.00  0.00    -0.326 N 
HETATM    3  C   UNL     1      46.331 -31.709  -1.967  1.00  0.00     0.255 C 
HETATM    4  O   UNL     1      46.432 -32.770  -2.552  1.00  0.00    -0.267 OA
HETATM    5  C   UNL     1      45.894 -30.439  -2.562  1.00  0.00     0.040 A 
HETATM    6  C   UNL     1      46.036 -29.435  -1.600  1.00  0.00    -0.015 A 
HETATM    7  C   UNL     1      45.399 -30.201  -3.830  1.00  0.00     0.017 A 
HETATM    8  C   UNL     1      45.027 -28.892  -4.137  1.00  0.00     0.001 A 
HETATM    9  C   UNL     1      45.164 -27.867  -3.183  1.00  0.00     0.001 A 
HETATM   10  C   UNL     1      45.679 -28.132  -1.909  1.00  0.00     0.011 A 
ENDROOT
BRANCH   1  11
HETATM   11  C   UNL     1      45.748 -29.655   0.799  1.00  0.00     0.004 A 
HETATM   12  C   UNL     1      46.114 -28.809   1.844  1.00  0.00     0.015 A 
HETATM   13  C   UNL     1      47.375 -28.061   2.097  1.00  0.00     0.069 C 
HETATM   14  N   UNL     1      45.066 -28.742   2.724  1.00  0.00    -0.359 N 
HETATM   15  H   UNL     1      45.058 -28.209   3.582  1.00  0.00     0.166 HD
HETATM   16  C   UNL     1      44.015 -29.508   2.287  1.00  0.00     0.043 A 
HETATM   17  C   UNL     1      44.401 -30.086   1.078  1.00  0.00     0.001 A 
HETATM   18  C   UNL     1      42.764 -29.728   2.876  1.00  0.00     0.030 A 
HETATM   19  C   UNL     1      43.472 -30.925   0.424  1.00  0.00     0.014 A 
HETATM   20  C   UNL     1      42.216 -31.159   0.998  1.00  0.00     0.001 A 
HETATM   21  C   UNL     1      41.870 -30.568   2.209  1.00  0.00     0.002 A 
ENDBRANCH   1  11
BRANCH   2  22
HETATM   22  C   UNL     1      47.119 -32.446   0.293  1.00  0.00     0.229 C 
BRANCH  22  23
HETATM   23  C   UNL     1      48.634 -32.441   0.505  1.00  0.00     0.235 C 
HETATM   24  N   UNL     1      49.046 -32.086   1.776  1.00  0.00    -0.355 N 
HETATM   25  H   UNL     1      48.333 -31.698   2.391  1.00  0.00     0.162 HD
HETATM   26  O   UNL     1      49.414 -32.614  -0.429  1.00  0.00    -0.272 OA
BRANCH  24  27
HETATM   27  C   UNL     1      50.442 -31.762   2.049  1.00  0.00     0.084 C 
HETATM   28  C   UNL     1      50.609 -30.269   2.371  1.00  0.00     0.025 C 
HETATM   29  C   UNL     1      50.106 -29.905   3.768  1.00  0.00     0.002 C 
HETATM   30  C   UNL     1      50.747 -30.781   4.839  1.00  0.00     0.000 C 
HETATM   31  C   UNL     1      50.520 -32.261   4.554  1.00  0.00     0.002 C 
HETATM   32  C   UNL     1      51.011 -32.649   3.162  1.00  0.00     0.025 C 
ENDBRANCH  24  27
ENDBRANCH  22  23
ENDBRANCH   2  22
TORSDOF 4
ENDMDL
MODEL 10
REMARK VINA RESULT:      -8.0      2.514      6.658
REMARK  4 active torsions:
REMARK  status: ('A' for Active; 'I' for Inactive)
REMARK    1  A    between atoms: C_7  and  C_8 
REMARK    2  A    between atoms: N_9  and  C_10 
REMARK    3  A    between atoms: C_10  and  C_11 
REMARK       I    between atoms: C_11  and  N_12 
REMARK    4  A    between atoms: N_12  and  C_13 
ROOT
HETATM    1  C   UNL     1      42.855 -12.211   4.653  1.00  0.00     0.158 C 
HETATM    2  N   UNL     1      41.521 -11.788   5.044  1.00  0.00    -0.326 N 
HETATM    3  C   UNL     1      41.543 -10.920   6.116  1.00  0.00     0.255 C 
HETATM    4  O   UNL     1      40.617 -10.263   6.551  1.00  0.00    -0.267 OA
HETATM    5  C   UNL     1      42.923 -10.896   6.617  1.00  0.00     0.040 A 
HETATM    6  C   UNL     1      43.707 -11.688   5.774  1.00  0.00    -0.015 A 
HETATM    7  C   UNL     1      43.431 -10.248   7.727  1.00  0.00     0.017 A 
HETATM    8  C   UNL     1      44.790 -10.412   7.999  1.00  0.00     0.001 A 
HETATM    9  C   UNL     1      45.596 -11.204   7.161  1.00  0.00     0.001 A 
HETATM   10  C   UNL     1      45.060 -11.841   6.036  1.00  0.00     0.011 A 
ENDROOT
BRANCH   1  11
HETATM   11  C   UNL     1      43.024 -13.699   4.600  1.00  0.00     0.004 A 
HETATM   12  C   UNL     1      43.160 -14.445   3.432  1.00  0.00     0.015 A 
HETATM   13  C   UNL     1      43.199 -14.025   2.005  1.00  0.00     0.069 C 
HETATM   14  N   UNL     1      43.251 -15.767   3.779  1.00  0.00    -0.359 N 
HETATM   15  H   UNL     1      43.345 -16.536   3.130  1.00  0.00     0.166 HD
HETATM   16  C   UNL     1      43.193 -15.916   5.142  1.00  0.00     0.043 A 
HETATM   17  C   UNL     1      43.062 -14.641   5.691  1.00  0.00     0.001 A 
HETATM   18  C   UNL     1      43.242 -17.082   5.916  1.00  0.00     0.030 A 
HETATM   19  C   UNL     1      42.985 -14.535   7.097  1.00  0.00     0.014 A 
HETATM   20  C   UNL     1      43.031 -15.689   7.889  1.00  0.00     0.001 A 
HETATM   21  C   UNL     1      43.156 -16.945   7.303  1.00  0.00     0.002 A 
ENDBRANCH   1  11
BRANCH   2  22
HETATM   22  C   UNL     1      40.336 -12.092   4.260  1.00  0.00     0.229 C 
BRANCH  22  23
HETATM   23  C   UNL     1      40.249 -11.346   2.928  1.00  0.00     0.235 C 
HETATM   24  N   UNL     1      40.082 -12.151   1.816  1.00  0.00    -0.355 N 
HETATM   25  H   UNL     1      40.206 -13.151   1.959  1.00  0.00     0.162 HD
HETATM   26  O   UNL     1      40.447 -10.135   2.856  1.00  0.00    -0.272 OA
BRANCH  24  27
HETATM   27  C   UNL     1      40.267 -11.618   0.470  1.00  0.00     0.084 C 
HETATM   28  C   UNL     1      40.782 -12.705  -0.487  1.00  0.00     0.025 C 
HETATM   29  C   UNL     1      39.699 -13.709  -0.881  1.00  0.00     0.002 C 
HETATM   30  C   UNL     1      38.467 -13.009  -1.444  1.00  0.00     0.000 C 
HETATM   31  C   UNL     1      37.916 -11.980  -0.463  1.00  0.00     0.002 C 
HETATM   32  C   UNL     1      38.981 -10.967  -0.052  1.00  0.00     0.025 C 
ENDBRANCH  24  27
ENDBRANCH  22  23
ENDBRANCH   2  22
TORSDOF 4
ENDMDL
