MODEL 1
REMARK VINA RESULT:      -8.6      0.000      0.000
REMARK  4 active torsions:
REMARK  status: ('A' for Active; 'I' for Inactive)
REMARK    1  A    between atoms: C_3  and  N_4 
REMARK       I    between atoms: N_4  and  C_5 
REMARK       I    between atoms: C_5  and  N_6 
REMARK    2  A    between atoms: N_6  and  C_7 
REMARK    3  A    between atoms: C_18  and  C_19 
REMARK       I    between atoms: C_19  and  N_20 
REMARK    4  A    between atoms: N_20  and  C_21 
ROOT
HETATM    1  C   UNL     1      42.760 -12.252   2.718  1.00  0.00     0.050 C 
HETATM    2  C   UNL     1      42.176 -13.513   3.299  1.00  0.00    -0.034 A 
HETATM    3  C   UNL     1      40.837 -13.901   3.158  1.00  0.00     0.042 A 
HETATM    4  C   UNL     1      40.440 -15.178   3.582  1.00  0.00     0.031 A 
HETATM    5  C   UNL     1      41.326 -16.023   4.258  1.00  0.00     0.019 A 
HETATM    6  C   UNL     1      42.643 -15.631   4.466  1.00  0.00     0.032 A 
HETATM    7  C   UNL     1      43.057 -14.378   3.982  1.00  0.00     0.026 A 
ENDROOT
BRANCH   3   8
HETATM    8  N   UNL     1      39.836 -13.113   2.566  1.00  0.00    -0.308 N 
HETATM    9  C   UNL     1      39.536 -12.902   1.243  1.00  0.00     0.325 C 
HETATM   10  N   UNL     1      40.330 -13.519   0.318  1.00  0.00    -0.305 N 
HETATM   11  O   UNL     1      38.623 -12.115   0.999  1.00  0.00    -0.247 OA
HETATM   12  H   UNL     1      40.968 -14.220   0.653  1.00  0.00     0.171 HD
HETATM   13  H   UNL     1      39.474 -12.340   3.111  1.00  0.00     0.170 HD
BRANCH  10  14
HETATM   14  C   UNL     1      40.308 -13.335  -1.057  1.00  0.00     0.086 A 
HETATM   15  C   UNL     1      39.778 -14.095  -2.141  1.00  0.00     0.079 A 
HETATM   16  C   UNL     1      38.992 -15.355  -2.143  1.00  0.00     0.075 C 
HETATM   17  N   UNL     1      40.006 -13.493  -3.318  1.00  0.00    -0.177 NA
HETATM   18  N   UNL     1      40.656 -12.372  -2.996  1.00  0.00    -0.280 N 
HETATM   19  H   UNL     1      40.938 -11.754  -3.749  1.00  0.00     0.189 HD
HETATM   20  C   UNL     1      40.846 -12.209  -1.654  1.00  0.00     0.052 A 
HETATM   21  C   UNL     1      41.553 -11.025  -1.114  1.00  0.00     0.072 C 
ENDBRANCH  10  14
ENDBRANCH   3   8
BRANCH   6  22
HETATM   22  C   UNL     1      43.617 -16.397   5.278  1.00  0.00     0.252 C 
HETATM   23  N   UNL     1      44.248 -17.545   4.891  1.00  0.00    -0.352 N 
HETATM   24  H   UNL     1      44.846 -17.852   5.651  1.00  0.00     0.163 HD
HETATM   25  O   UNL     1      43.910 -15.945   6.388  1.00  0.00    -0.268 OA
BRANCH  23  26
HETATM   26  C   UNL     1      44.282 -18.415   3.728  1.00  0.00     0.084 C 
HETATM   27  C   UNL     1      44.027 -19.892   4.025  1.00  0.00     0.025 C 
HETATM   28  C   UNL     1      43.669 -20.461   2.662  1.00  0.00     0.002 C 
HETATM   29  C   UNL     1      42.834 -19.364   2.015  1.00  0.00     0.002 C 
HETATM   30  C   UNL     1      43.429 -18.046   2.514  1.00  0.00     0.025 C 
ENDBRANCH  23  26
ENDBRANCH   6  22
TORSDOF 4
ENDMDL
MODEL 2
REMARK VINA RESULT:      -8.5      1.584      2.435
REMARK  4 active torsions:
REMARK  status: ('A' for Active; 'I' for Inactive)
REMARK    1  A    between atoms: C_3  and  N_4 
REMARK       I    between atoms: N_4  and  C_5 
REMARK       I    between atoms: C_5  and  N_6 
REMARK    2  A    between atoms: N_6  and  C_7 
REMARK    3  A    between atoms: C_18  and  C_19 
REMARK       I    between atoms: C_19  and  N_20 
REMARK    4  A    between atoms: N_20  and  C_21 
ROOT
HETATM    1  C   UNL     1      42.910 -12.920   5.318  1.00  0.00     0.050 C 
HETATM    2  C   UNL     1      42.261 -14.279   5.310  1.00  0.00    -0.034 A 
HETATM    3  C   UNL     1      40.953 -14.526   4.871  1.00  0.00     0.042 A 
HETATM    4  C   UNL     1      40.510 -15.849   4.734  1.00  0.00     0.031 A 
HETATM    5  C   UNL     1      41.304 -16.924   5.148  1.00  0.00     0.019 A 
HETATM    6  C   UNL     1      42.581 -16.697   5.646  1.00  0.00     0.032 A 
HETATM    7  C   UNL     1      43.049 -15.374   5.721  1.00  0.00     0.026 A 
ENDROOT
BRANCH   3   8
HETATM    8  N   UNL     1      40.034 -13.530   4.500  1.00  0.00    -0.308 N 
HETATM    9  C   UNL     1      39.815 -12.930   3.284  1.00  0.00     0.325 C 
HETATM   10  N   UNL     1      40.614 -13.317   2.246  1.00  0.00    -0.305 N 
HETATM   11  O   UNL     1      38.967 -12.041   3.249  1.00  0.00    -0.247 OA
HETATM   12  H   UNL     1      41.190 -14.129   2.385  1.00  0.00     0.171 HD
HETATM   13  H   UNL     1      39.695 -12.919   5.233  1.00  0.00     0.170 HD
BRANCH  10  14
HETATM   14  C   UNL     1      40.673 -12.749   0.982  1.00  0.00     0.086 A 
HETATM   15  C   UNL     1      41.073 -11.468   0.498  1.00  0.00     0.079 A 
HETATM   16  C   UNL     1      41.635 -10.297   1.217  1.00  0.00     0.075 C 
HETATM   17  N   UNL     1      40.955 -11.390  -0.837  1.00  0.00    -0.177 NA
HETATM   18  N   UNL     1      40.503 -12.593  -1.199  1.00  0.00    -0.280 N 
HETATM   19  H   UNL     1      40.333 -12.759  -2.185  1.00  0.00     0.189 HD
HETATM   20  C   UNL     1      40.336 -13.459  -0.156  1.00  0.00     0.052 A 
HETATM   21  C   UNL     1      39.836 -14.836  -0.371  1.00  0.00     0.072 C 
ENDBRANCH  10  14
ENDBRANCH   3   8
BRANCH   6  22
HETATM   22  C   UNL     1      43.445 -17.753   6.225  1.00  0.00     0.252 C 
HETATM   23  N   UNL     1      44.106 -18.717   5.518  1.00  0.00    -0.352 N 
HETATM   24  H   UNL     1      44.606 -19.306   6.174  1.00  0.00     0.163 HD
HETATM   25  O   UNL     1      43.607 -17.746   7.448  1.00  0.00    -0.268 OA
BRANCH  23  26
HETATM   26  C   UNL     1      44.270 -19.112   4.130  1.00  0.00     0.084 C 
HETATM   27  C   UNL     1      43.765 -20.515   3.799  1.00  0.00     0.025 C 
HETATM   28  C   UNL     1      43.631 -20.485   2.285  1.00  0.00     0.002 C 
HETATM   29  C   UNL     1      43.105 -19.086   1.991  1.00  0.00     0.002 C 
HETATM   30  C   UNL     1      43.751 -18.176   3.037  1.00  0.00     0.025 C 
ENDBRANCH  23  26
ENDBRANCH   6  22
TORSDOF 4
ENDMDL
MODEL 3
REMARK VINA RESULT:      -8.3      1.605      3.111
REMARK  4 active torsions:
REMARK  status: ('A' for Active; 'I' for Inactive)
REMARK    1  A    between atoms: C_3  and  N_4 
REMARK       I    between atoms: N_4  and  C_5 
REMARK       I    between atoms: C_5  and  N_6 
REMARK    2  A    between atoms: N_6  and  C_7 
REMARK    3  A    between atoms: C_18  and  C_19 
REMARK       I    between atoms: C_19  and  N_20 
REMARK    4  A    between atoms: N_20  and  C_21 
ROOT
HETATM    1  C   UNL     1      43.081 -12.864   3.031  1.00  0.00     0.050 C 
HETATM    2  C   UNL     1      42.426 -14.214   2.904  1.00  0.00    -0.034 A 
HETATM    3  C   UNL     1      41.105 -14.415   2.483  1.00  0.00     0.042 A 
HETATM    4  C   UNL     1      40.653 -15.717   2.226  1.00  0.00     0.031 A 
HETATM    5  C   UNL     1      41.455 -16.829   2.504  1.00  0.00     0.019 A 
HETATM    6  C   UNL     1      42.747 -16.655   2.984  1.00  0.00     0.032 A 
HETATM    7  C   UNL     1      43.222 -15.346   3.179  1.00  0.00     0.026 A 
ENDROOT
BRANCH   3   8
HETATM    8  N   UNL     1      40.179 -13.386   2.242  1.00  0.00    -0.308 N 
HETATM    9  C   UNL     1      39.959 -12.632   1.115  1.00  0.00     0.325 C 
HETATM   10  N   UNL     1      40.766 -12.871   0.040  1.00  0.00    -0.305 N 
HETATM   11  O   UNL     1      39.103 -11.753   1.194  1.00  0.00    -0.247 OA
HETATM   12  H   UNL     1      41.347 -13.691   0.072  1.00  0.00     0.171 HD
HETATM   13  H   UNL     1      39.832 -12.880   3.048  1.00  0.00     0.170 HD
BRANCH  10  14
HETATM   14  C   UNL     1      40.825 -12.141  -1.138  1.00  0.00     0.086 A 
HETATM   15  C   UNL     1      41.210 -10.802  -1.445  1.00  0.00     0.079 A 
HETATM   16  C   UNL     1      41.752  -9.730  -0.574  1.00  0.00     0.075 C 
HETATM   17  N   UNL     1      41.099 -10.550  -2.759  1.00  0.00    -0.177 NA
HETATM   18  N   UNL     1      40.665 -11.700  -3.280  1.00  0.00    -0.280 N 
HETATM   19  H   UNL     1      40.503 -11.736  -4.281  1.00  0.00     0.189 HD
HETATM   20  C   UNL     1      40.503 -12.698  -2.363  1.00  0.00     0.052 A 
HETATM   21  C   UNL     1      40.023 -14.041  -2.761  1.00  0.00     0.072 C 
ENDBRANCH  10  14
ENDBRANCH   3   8
BRANCH   6  22
HETATM   22  C   UNL     1      43.624 -17.765   3.427  1.00  0.00     0.252 C 
HETATM   23  N   UNL     1      43.923 -18.073   4.724  1.00  0.00    -0.352 N 
HETATM   24  H   UNL     1      44.553 -18.869   4.724  1.00  0.00     0.163 HD
HETATM   25  O   UNL     1      44.102 -18.492   2.554  1.00  0.00    -0.268 OA
BRANCH  23  26
HETATM   26  C   UNL     1      43.599 -17.580   6.051  1.00  0.00     0.084 C 
HETATM   27  C   UNL     1      44.488 -16.441   6.546  1.00  0.00     0.025 C 
HETATM   28  C   UNL     1      43.677 -15.839   7.682  1.00  0.00     0.002 C 
HETATM   29  C   UNL     1      42.240 -15.904   7.181  1.00  0.00     0.002 C 
HETATM   30  C   UNL     1      42.152 -17.186   6.350  1.00  0.00     0.025 C 
ENDBRANCH  23  26
ENDBRANCH   6  22
TORSDOF 4
ENDMDL
MODEL 4
REMARK VINA RESULT:      -8.3      5.293      8.470
REMARK  4 active torsions:
REMARK  status: ('A' for Active; 'I' for Inactive)
REMARK    1  A    between atoms: C_3  and  N_4 
REMARK       I    between atoms: N_4  and  C_5 
REMARK       I    between atoms: C_5  and  N_6 
REMARK    2  A    between atoms: N_6  and  C_7 
REMARK    3  A    between atoms: C_18  and  C_19 
REMARK       I    between atoms: C_19  and  N_20 
REMARK    4  A    between atoms: N_20  and  C_21 
ROOT
HETATM    1  C   UNL     1      43.206 -14.560   7.487  1.00  0.00     0.050 C 
HETATM    2  C   UNL     1      42.931 -13.553   6.401  1.00  0.00    -0.034 A 
HETATM    3  C   UNL     1      43.682 -12.387   6.197  1.00  0.00     0.042 A 
HETATM    4  C   UNL     1      43.456 -11.613   5.050  1.00  0.00     0.031 A 
HETATM    5  C   UNL     1      42.408 -11.912   4.171  1.00  0.00     0.019 A 
HETATM    6  C   UNL     1      41.609 -13.027   4.391  1.00  0.00     0.032 A 
HETATM    7  C   UNL     1      41.880 -13.840   5.506  1.00  0.00     0.026 A 
ENDROOT
BRANCH   3   8
HETATM    8  N   UNL     1      44.709 -11.940   7.045  1.00  0.00    -0.308 N 
HETATM    9  C   UNL     1      44.656 -11.141   8.160  1.00  0.00     0.325 C 
HETATM   10  N   UNL     1      43.431 -10.659   8.523  1.00  0.00    -0.305 N 
HETATM   11  O   UNL     1      45.728 -10.864   8.696  1.00  0.00    -0.247 OA
HETATM   12  H   UNL     1      42.627 -11.052   8.067  1.00  0.00     0.171 HD
HETATM   13  H   UNL     1      45.644 -11.902   6.658  1.00  0.00     0.170 HD
BRANCH  10  14
HETATM   14  C   UNL     1      43.161  -9.725   9.513  1.00  0.00     0.086 A 
HETATM   15  C   UNL     1      43.160  -9.778  10.939  1.00  0.00     0.079 A 
HETATM   16  C   UNL     1      43.521 -10.881  11.864  1.00  0.00     0.075 C 
HETATM   17  N   UNL     1      42.830  -8.591  11.472  1.00  0.00    -0.177 NA
HETATM   18  N   UNL     1      42.635  -7.797  10.416  1.00  0.00    -0.280 N 
HETATM   19  H   UNL     1      42.366  -6.835  10.589  1.00  0.00     0.189 HD
HETATM   20  C   UNL     1      42.841  -8.413   9.215  1.00  0.00     0.052 A 
HETATM   21  C   UNL     1      42.665  -7.687   7.936  1.00  0.00     0.072 C 
ENDBRANCH  10  14
ENDBRANCH   3   8
BRANCH   6  22
HETATM   22  C   UNL     1      40.403 -13.353   3.594  1.00  0.00     0.252 C 
HETATM   23  N   UNL     1      40.297 -14.375   2.694  1.00  0.00    -0.352 N 
HETATM   24  H   UNL     1      39.365 -14.349   2.293  1.00  0.00     0.163 HD
HETATM   25  O   UNL     1      39.398 -12.663   3.779  1.00  0.00    -0.268 OA
BRANCH  23  26
HETATM   26  C   UNL     1      41.132 -15.442   2.172  1.00  0.00     0.084 C 
HETATM   27  C   UNL     1      42.413 -14.975   1.485  1.00  0.00     0.025 C 
HETATM   28  C   UNL     1      43.271 -16.230   1.462  1.00  0.00     0.002 C 
HETATM   29  C   UNL     1      42.984 -16.893   2.803  1.00  0.00     0.002 C 
HETATM   30  C   UNL     1      41.515 -16.593   3.105  1.00  0.00     0.025 C 
ENDBRANCH  23  26
ENDBRANCH   6  22
TORSDOF 4
ENDMDL
MODEL 5
REMARK VINA RESULT:      -8.3      5.822      8.448
REMARK  4 active torsions:
REMARK  status: ('A' for Active; 'I' for Inactive)
REMARK    1  A    between atoms: C_3  and  N_4 
REMARK       I    between atoms: N_4  and  C_5 
REMARK       I    between atoms: C_5  and  N_6 
REMARK    2  A    between atoms: N_6  and  C_7 
REMARK    3  A    between atoms: C_18  and  C_19 
REMARK       I    between atoms: C_19  and  N_20 
REMARK    4  A    between atoms: N_20  and  C_21 
ROOT
HETATM    1  C   UNL     1      44.658 -12.313   6.595  1.00  0.00     0.050 C 
HETATM    2  C   UNL     1      43.185 -12.549   6.393  1.00  0.00    -0.034 A 
HETATM    3  C   UNL     1      42.228 -11.529   6.293  1.00  0.00     0.042 A 
HETATM    4  C   UNL     1      40.914 -11.849   5.925  1.00  0.00     0.031 A 
HETATM    5  C   UNL     1      40.508 -13.180   5.780  1.00  0.00     0.019 A 
HETATM    6  C   UNL     1      41.426 -14.211   5.938  1.00  0.00     0.032 A 
HETATM    7  C   UNL     1      42.759 -13.885   6.243  1.00  0.00     0.026 A 
ENDROOT
BRANCH   3   8
HETATM    8  N   UNL     1      42.495 -10.164   6.491  1.00  0.00    -0.308 N 
HETATM    9  C   UNL     1      42.719  -9.459   7.648  1.00  0.00     0.325 C 
HETATM   10  N   UNL     1      42.657 -10.154   8.822  1.00  0.00    -0.305 N 
HETATM   11  O   UNL     1      42.884  -8.246   7.536  1.00  0.00    -0.247 OA
HETATM   12  H   UNL     1      42.626 -11.157   8.763  1.00  0.00     0.171 HD
HETATM   13  H   UNL     1      42.177  -9.523   5.773  1.00  0.00     0.170 HD
BRANCH  10  14
HETATM   14  C   UNL     1      42.703  -9.630  10.105  1.00  0.00     0.086 A 
HETATM   15  C   UNL     1      41.700  -9.241  11.043  1.00  0.00     0.079 A 
HETATM   16  C   UNL     1      40.221  -9.330  10.967  1.00  0.00     0.075 C 
HETATM   17  N   UNL     1      42.246  -8.784  12.181  1.00  0.00    -0.177 NA
HETATM   18  N   UNL     1      43.562  -8.889  11.981  1.00  0.00    -0.280 N 
HETATM   19  H   UNL     1      44.181  -8.588  12.727  1.00  0.00     0.189 HD
HETATM   20  C   UNL     1      43.898  -9.411  10.765  1.00  0.00     0.052 A 
HETATM   21  C   UNL     1      45.314  -9.594  10.369  1.00  0.00     0.072 C 
ENDBRANCH  10  14
ENDBRANCH   3   8
BRANCH   6  22
HETATM   22  C   UNL     1      41.067 -15.649   5.930  1.00  0.00     0.252 C 
HETATM   23  N   UNL     1      41.222 -16.502   4.874  1.00  0.00    -0.352 N 
HETATM   24  H   UNL     1      40.881 -17.416   5.151  1.00  0.00     0.163 HD
HETATM   25  O   UNL     1      40.618 -16.127   6.975  1.00  0.00    -0.268 OA
BRANCH  23  26
HETATM   26  C   UNL     1      41.717 -16.448   3.510  1.00  0.00     0.084 C 
HETATM   27  C   UNL     1      40.900 -15.569   2.566  1.00  0.00     0.025 C 
HETATM   28  C   UNL     1      41.852 -15.330   1.405  1.00  0.00     0.002 C 
HETATM   29  C   UNL     1      43.211 -15.167   2.075  1.00  0.00     0.002 C 
HETATM   30  C   UNL     1      43.190 -16.108   3.280  1.00  0.00     0.025 C 
ENDBRANCH  23  26
ENDBRANCH   6  22
TORSDOF 4
ENDMDL
MODEL 6
REMARK VINA RESULT:      -8.3      2.042      3.092
REMARK  4 active torsions:
REMARK  status: ('A' for Active; 'I' for Inactive)
REMARK    1  A    between atoms: C_3  and  N_4 
REMARK       I    between atoms: N_4  and  C_5 
REMARK       I    between atoms: C_5  and  N_6 
REMARK    2  A    between atoms: N_6  and  C_7 
REMARK    3  A    between atoms: C_18  and  C_19 
REMARK       I    between atoms: C_19  and  N_20 
REMARK    4  A    between atoms: N_20  and  C_21 
ROOT
HETATM    1  C   UNL     1      39.853 -16.054   1.463  1.00  0.00     0.050 C 
HETATM    2  C   UNL     1      41.075 -15.659   2.249  1.00  0.00    -0.034 A 
HETATM    3  C   UNL     1      41.896 -14.567   1.937  1.00  0.00     0.042 A 
HETATM    4  C   UNL     1      42.900 -14.180   2.836  1.00  0.00     0.031 A 
HETATM    5  C   UNL     1      43.182 -14.939   3.977  1.00  0.00     0.019 A 
HETATM    6  C   UNL     1      42.421 -16.064   4.271  1.00  0.00     0.032 A 
HETATM    7  C   UNL     1      41.372 -16.413   3.404  1.00  0.00     0.026 A 
ENDROOT
BRANCH   3   8
HETATM    8  N   UNL     1      41.764 -13.772   0.787  1.00  0.00    -0.308 N 
HETATM    9  C   UNL     1      40.859 -12.783   0.488  1.00  0.00     0.325 C 
HETATM   10  N   UNL     1      39.899 -12.514   1.422  1.00  0.00    -0.305 N 
HETATM   11  O   UNL     1      40.942 -12.273  -0.628  1.00  0.00    -0.247 OA
HETATM   12  H   UNL     1      40.014 -12.925   2.332  1.00  0.00     0.171 HD
HETATM   13  H   UNL     1      42.140 -14.144  -0.077  1.00  0.00     0.170 HD
BRANCH  10  14
HETATM   14  C   UNL     1      38.806 -11.672   1.277  1.00  0.00     0.086 A 
HETATM   15  C   UNL     1      37.868 -11.453   0.226  1.00  0.00     0.079 A 
HETATM   16  C   UNL     1      37.716 -12.127  -1.088  1.00  0.00     0.075 C 
HETATM   17  N   UNL     1      36.966 -10.517   0.562  1.00  0.00    -0.177 NA
HETATM   18  N   UNL     1      37.312 -10.155   1.799  1.00  0.00    -0.280 N 
HETATM   19  H   UNL     1      36.758  -9.439   2.256  1.00  0.00     0.189 HD
HETATM   20  C   UNL     1      38.393 -10.828   2.292  1.00  0.00     0.052 A 
HETATM   21  C   UNL     1      38.921 -10.552   3.648  1.00  0.00     0.072 C 
ENDBRANCH  10  14
ENDBRANCH   3   8
BRANCH   6  22
HETATM   22  C   UNL     1      42.721 -17.001   5.380  1.00  0.00     0.252 C 
HETATM   23  N   UNL     1      43.373 -18.195   5.259  1.00  0.00    -0.352 N 
HETATM   24  H   UNL     1      43.424 -18.625   6.176  1.00  0.00     0.163 HD
HETATM   25  O   UNL     1      42.380 -16.662   6.516  1.00  0.00    -0.268 OA
BRANCH  23  26
HETATM   26  C   UNL     1      43.983 -18.987   4.205  1.00  0.00     0.084 C 
HETATM   27  C   UNL     1      43.906 -20.498   4.412  1.00  0.00     0.025 C 
HETATM   28  C   UNL     1      44.175 -21.052   3.022  1.00  0.00     0.002 C 
HETATM   29  C   UNL     1      43.451 -20.084   2.096  1.00  0.00     0.002 C 
HETATM   30  C   UNL     1      43.578 -18.710   2.756  1.00  0.00     0.025 C 
ENDBRANCH  23  26
ENDBRANCH   6  22
TORSDOF 4
ENDMDL
MODEL 7
REMARK VINA RESULT:      -8.1      5.747      8.254
REMARK  4 active torsions:
REMARK  status: ('A' for Active; 'I' for Inactive)
REMARK    1  A    between atoms: C_3  and  N_4 
REMARK       I    between atoms: N_4  and  C_5 
REMARK       I    between atoms: C_5  and  N_6 
REMARK    2  A    between atoms: N_6  and  C_7 
REMARK    3  A    between atoms: C_18  and  C_19 
REMARK       I    between atoms: C_19  and  N_20 
REMARK    4  A    between atoms: N_20  and  C_21 
ROOT
HETATM    1  C   UNL     1      44.409 -12.306   6.275  1.00  0.00     0.050 C 
HETATM    2  C   UNL     1      42.925 -12.562   6.244  1.00  0.00    -0.034 A 
HETATM    3  C   UNL     1      41.950 -11.555   6.233  1.00  0.00     0.042 A 
HETATM    4  C   UNL     1      40.607 -11.898   6.021  1.00  0.00     0.031 A 
HETATM    5  C   UNL     1      40.205 -13.236   5.948  1.00  0.00     0.019 A 
HETATM    6  C   UNL     1      41.149 -14.253   6.022  1.00  0.00     0.032 A 
HETATM    7  C   UNL     1      42.503 -13.905   6.169  1.00  0.00     0.026 A 
ENDROOT
BRANCH   3   8
HETATM    8  N   UNL     1      42.218 -10.183   6.372  1.00  0.00    -0.308 N 
HETATM    9  C   UNL     1      42.550  -9.450   7.485  1.00  0.00     0.325 C 
HETATM   10  N   UNL     1      42.615 -10.118   8.674  1.00  0.00    -0.305 N 
HETATM   11  O   UNL     1      42.687  -8.238   7.330  1.00  0.00    -0.247 OA
HETATM   12  H   UNL     1      42.591 -11.123   8.640  1.00  0.00     0.171 HD
HETATM   13  H   UNL     1      41.822  -9.562   5.676  1.00  0.00     0.170 HD
BRANCH  10  14
HETATM   14  C   UNL     1      42.784  -9.565   9.935  1.00  0.00     0.086 A 
HETATM   15  C   UNL     1      43.920  -9.349  10.769  1.00  0.00     0.079 A 
HETATM   16  C   UNL     1      45.361  -9.606  10.522  1.00  0.00     0.075 C 
HETATM   17  N   UNL     1      43.574  -8.763  11.925  1.00  0.00    -0.177 NA
HETATM   18  N   UNL     1      42.253  -8.597  11.829  1.00  0.00    -0.280 N 
HETATM   19  H   UNL     1      41.771  -8.167  12.611  1.00  0.00     0.189 HD
HETATM   20  C   UNL     1      41.724  -9.037  10.650  1.00  0.00     0.052 A 
HETATM   21  C   UNL     1      40.273  -8.937  10.372  1.00  0.00     0.072 C 
ENDBRANCH  10  14
ENDBRANCH   3   8
BRANCH   6  22
HETATM   22  C   UNL     1      40.811 -15.695   6.083  1.00  0.00     0.252 C 
HETATM   23  N   UNL     1      41.407 -16.683   5.351  1.00  0.00    -0.352 N 
HETATM   24  H   UNL     1      40.966 -17.565   5.589  1.00  0.00     0.163 HD
HETATM   25  O   UNL     1      39.939 -16.040   6.883  1.00  0.00    -0.268 OA
BRANCH  23  26
HETATM   26  C   UNL     1      42.457 -16.801   4.355  1.00  0.00     0.084 C 
HETATM   27  C   UNL     1      43.469 -17.914   4.619  1.00  0.00     0.025 C 
HETATM   28  C   UNL     1      44.131 -18.108   3.264  1.00  0.00     0.002 C 
HETATM   29  C   UNL     1      42.987 -17.946   2.272  1.00  0.00     0.002 C 
HETATM   30  C   UNL     1      42.059 -16.894   2.881  1.00  0.00     0.025 C 
ENDBRANCH  23  26
ENDBRANCH   6  22
TORSDOF 4
ENDMDL
MODEL 8
REMARK VINA RESULT:      -7.9      5.252      8.172
REMARK  4 active torsions:
REMARK  status: ('A' for Active; 'I' for Inactive)
REMARK    1  A    between atoms: C_3  and  N_4 
REMARK       I    between atoms: N_4  and  C_5 
REMARK       I    between atoms: C_5  and  N_6 
REMARK    2  A    between atoms: N_6  and  C_7 
REMARK    3  A    between atoms: C_18  and  C_19 
REMARK       I    between atoms: C_19  and  N_20 
REMARK    4  A    between atoms: N_20  and  C_21 
ROOT
HETATM    1  C   UNL     1      42.925 -11.674   4.488  1.00  0.00     0.050 C 
HETATM    2  C   UNL     1      42.867 -12.887   5.379  1.00  0.00    -0.034 A 
HETATM    3  C   UNL     1      43.695 -13.091   6.492  1.00  0.00     0.042 A 
HETATM    4  C   UNL     1      43.437 -14.164   7.357  1.00  0.00     0.031 A 
HETATM    5  C   UNL     1      42.449 -15.109   7.062  1.00  0.00     0.019 A 
HETATM    6  C   UNL     1      41.658 -14.962   5.929  1.00  0.00     0.032 A 
HETATM    7  C   UNL     1      41.874 -13.849   5.097  1.00  0.00     0.026 A 
ENDROOT
BRANCH   3   8
HETATM    8  N   UNL     1      44.767 -12.257   6.851  1.00  0.00    -0.308 N 
HETATM    9  C   UNL     1      44.821 -11.211   7.739  1.00  0.00     0.325 C 
HETATM   10  N   UNL     1      43.661 -10.877   8.379  1.00  0.00    -0.305 N 
HETATM   11  O   UNL     1      45.892 -10.613   7.829  1.00  0.00    -0.247 OA
HETATM   12  H   UNL     1      42.889 -11.515   8.299  1.00  0.00     0.171 HD
HETATM   13  H   UNL     1      45.519 -12.156   6.180  1.00  0.00     0.170 HD
BRANCH  10  14
HETATM   14  C   UNL     1      43.446  -9.776   9.196  1.00  0.00     0.086 A 
HETATM   15  C   UNL     1      43.037  -8.433   8.946  1.00  0.00     0.079 A 
HETATM   16  C   UNL     1      42.637  -7.765   7.682  1.00  0.00     0.075 C 
HETATM   17  N   UNL     1      42.965  -7.724  10.083  1.00  0.00    -0.177 NA
HETATM   18  N   UNL     1      43.307  -8.593  11.037  1.00  0.00    -0.280 N 
HETATM   19  H   UNL     1      43.326  -8.263  11.996  1.00  0.00     0.189 HD
HETATM   20  C   UNL     1      43.584  -9.846  10.570  1.00  0.00     0.052 A 
HETATM   21  C   UNL     1      43.987 -10.938  11.487  1.00  0.00     0.072 C 
ENDBRANCH  10  14
ENDBRANCH   3   8
BRANCH   6  22
HETATM   22  C   UNL     1      40.677 -15.971   5.465  1.00  0.00     0.252 C 
HETATM   23  N   UNL     1      40.641 -16.532   4.220  1.00  0.00    -0.352 N 
HETATM   24  H   UNL     1      39.858 -17.177   4.185  1.00  0.00     0.163 HD
HETATM   25  O   UNL     1      39.839 -16.363   6.280  1.00  0.00    -0.268 OA
BRANCH  23  26
HETATM   26  C   UNL     1      41.390 -16.448   2.979  1.00  0.00     0.084 C 
HETATM   27  C   UNL     1      41.013 -15.273   2.080  1.00  0.00     0.025 C 
HETATM   28  C   UNL     1      42.202 -15.161   1.140  1.00  0.00     0.002 C 
HETATM   29  C   UNL     1      43.402 -15.455   2.031  1.00  0.00     0.002 C 
HETATM   30  C   UNL     1      42.918 -16.495   3.042  1.00  0.00     0.025 C 
ENDBRANCH  23  26
ENDBRANCH   6  22
TORSDOF 4
ENDMDL
MODEL 9
REMARK VINA RESULT:      -7.9      2.691      3.997
REMARK  4 active torsions:
REMARK  status: ('A' for Active; 'I' for Inactive)
REMARK    1  A    between atoms: C_3  and  N_4 
REMARK       I    between atoms: N_4  and  C_5 
REMARK       I    between atoms: C_5  and  N_6 
REMARK    2  A    between atoms: N_6  and  C_7 
REMARK    3  A    between atoms: C_18  and  C_19 
REMARK       I    between atoms: C_19  and  N_20 
REMARK    4  A    between atoms: N_20  and  C_21 
ROOT
HETATM    1  C   UNL     1      40.001 -15.575   1.298  1.00  0.00     0.050 C 
HETATM    2  C   UNL     1      40.346 -14.331   2.073  1.00  0.00    -0.034 A 
HETATM    3  C   UNL     1      40.838 -13.152   1.495  1.00  0.00     0.042 A 
HETATM    4  C   UNL     1      40.954 -11.996   2.279  1.00  0.00     0.031 A 
HETATM    5  C   UNL     1      40.711 -12.029   3.657  1.00  0.00     0.019 A 
HETATM    6  C   UNL     1      40.284 -13.204   4.262  1.00  0.00     0.032 A 
HETATM    7  C   UNL     1      40.104 -14.347   3.462  1.00  0.00     0.026 A 
ENDROOT
BRANCH   3   8
HETATM    8  N   UNL     1      41.190 -13.014   0.142  1.00  0.00    -0.308 N 
HETATM    9  C   UNL     1      40.412 -12.745  -0.957  1.00  0.00     0.325 C 
HETATM   10  N   UNL     1      39.069 -12.608  -0.750  1.00  0.00    -0.305 N 
HETATM   11  O   UNL     1      40.979 -12.723  -2.047  1.00  0.00    -0.247 OA
HETATM   12  H   UNL     1      38.753 -12.538   0.202  1.00  0.00     0.171 HD
HETATM   13  H   UNL     1      42.040 -13.471  -0.163  1.00  0.00     0.170 HD
BRANCH  10  14
HETATM   14  C   UNL     1      38.083 -12.484  -1.719  1.00  0.00     0.086 A 
HETATM   15  C   UNL     1      37.196 -11.429  -2.087  1.00  0.00     0.079 A 
HETATM   16  C   UNL     1      37.076 -10.043  -1.569  1.00  0.00     0.075 C 
HETATM   17  N   UNL     1      36.409 -11.789  -3.113  1.00  0.00    -0.177 NA
HETATM   18  N   UNL     1      36.789 -13.036  -3.400  1.00  0.00    -0.280 N 
HETATM   19  H   UNL     1      36.312 -13.515  -4.156  1.00  0.00     0.189 HD
HETATM   20  C   UNL     1      37.804 -13.500  -2.615  1.00  0.00     0.052 A 
HETATM   21  C   UNL     1      38.351 -14.865  -2.788  1.00  0.00     0.072 C 
ENDBRANCH  10  14
ENDBRANCH   3   8
BRANCH   6  22
HETATM   22  C   UNL     1      40.123 -13.373   5.726  1.00  0.00     0.252 C 
HETATM   23  N   UNL     1      40.872 -14.196   6.519  1.00  0.00    -0.352 N 
HETATM   24  H   UNL     1      40.531 -14.116   7.471  1.00  0.00     0.163 HD
HETATM   25  O   UNL     1      39.261 -12.690   6.283  1.00  0.00    -0.268 OA
BRANCH  23  26
HETATM   26  C   UNL     1      41.977 -15.126   6.367  1.00  0.00     0.084 C 
HETATM   27  C   UNL     1      41.570 -16.549   5.992  1.00  0.00     0.025 C 
HETATM   28  C   UNL     1      42.863 -17.149   5.463  1.00  0.00     0.002 C 
HETATM   29  C   UNL     1      43.508 -16.007   4.690  1.00  0.00     0.002 C 
HETATM   30  C   UNL     1      43.141 -14.734   5.454  1.00  0.00     0.025 C 
ENDBRANCH  23  26
ENDBRANCH   6  22
TORSDOF 4
ENDMDL
MODEL 10
REMARK VINA RESULT:      -7.8      2.530      4.232
REMARK  4 active torsions:
REMARK  status: ('A' for Active; 'I' for Inactive)
REMARK    1  A    between atoms: C_3  and  N_4 
REMARK       I    between atoms: N_4  and  C_5 
REMARK       I    between atoms: C_5  and  N_6 
REMARK    2  A    between atoms: N_6  and  C_7 
REMARK    3  A    between atoms: C_18  and  C_19 
REMARK       I    between atoms: C_19  and  N_20 
REMARK    4  A    between atoms: N_20  and  C_21 
ROOT
HETATM    1  C   UNL     1      43.550 -15.959   1.540  1.00  0.00     0.050 C 
HETATM    2  C   UNL     1      42.564 -15.932   2.678  1.00  0.00    -0.034 A 
HETATM    3  C   UNL     1      41.172 -15.900   2.516  1.00  0.00     0.042 A 
HETATM    4  C   UNL     1      40.344 -16.061   3.636  1.00  0.00     0.031 A 
HETATM    5  C   UNL     1      40.877 -16.124   4.928  1.00  0.00     0.019 A 
HETATM    6  C   UNL     1      42.253 -16.092   5.116  1.00  0.00     0.032 A 
HETATM    7  C   UNL     1      43.086 -15.998   3.987  1.00  0.00     0.026 A 
ENDROOT
BRANCH   3   8
HETATM    8  N   UNL     1      40.515 -15.765   1.282  1.00  0.00    -0.308 N 
HETATM    9  C   UNL     1      40.206 -14.640   0.557  1.00  0.00     0.325 C 
HETATM   10  N   UNL     1      40.550 -13.435   1.101  1.00  0.00    -0.305 N 
HETATM   11  O   UNL     1      39.576 -14.807  -0.485  1.00  0.00    -0.247 OA
HETATM   12  H   UNL     1      41.157 -13.447   1.902  1.00  0.00     0.171 HD
HETATM   13  H   UNL     1      39.893 -16.515   1.005  1.00  0.00     0.170 HD
BRANCH  10  14
HETATM   14  C   UNL     1      40.209 -12.177   0.626  1.00  0.00     0.086 A 
HETATM   15  C   UNL     1      40.485 -11.478  -0.586  1.00  0.00     0.079 A 
HETATM   16  C   UNL     1      41.207 -11.911  -1.808  1.00  0.00     0.075 C 
HETATM   17  N   UNL     1      39.923 -10.258  -0.585  1.00  0.00    -0.177 NA
HETATM   18  N   UNL     1      39.296 -10.184   0.591  1.00  0.00    -0.280 N 
HETATM   19  H   UNL     1      38.799  -9.328   0.810  1.00  0.00     0.189 HD
HETATM   20  C   UNL     1      39.411 -11.312   1.352  1.00  0.00     0.052 A 
HETATM   21  C   UNL     1      38.784 -11.406   2.690  1.00  0.00     0.072 C 
ENDBRANCH  10  14
ENDBRANCH   3   8
BRANCH   6  22
HETATM   22  C   UNL     1      42.907 -16.026   6.445  1.00  0.00     0.252 C 
HETATM   23  N   UNL     1      43.265 -14.881   7.099  1.00  0.00    -0.352 N 
HETATM   24  H   UNL     1      43.702 -15.140   7.977  1.00  0.00     0.163 HD
HETATM   25  O   UNL     1      43.121 -17.092   7.025  1.00  0.00    -0.268 OA
BRANCH  23  26
HETATM   26  C   UNL     1      43.196 -13.447   6.877  1.00  0.00     0.084 C 
HETATM   27  C   UNL     1      44.515 -12.799   6.462  1.00  0.00     0.025 C 
HETATM   28  C   UNL     1      44.075 -11.469   5.871  1.00  0.00     0.002 C 
HETATM   29  C   UNL     1      42.794 -11.808   5.120  1.00  0.00     0.002 C 
HETATM   30  C   UNL     1      42.114 -12.903   5.943  1.00  0.00     0.025 C 
ENDBRANCH  23  26
ENDBRANCH   6  22
TORSDOF 4
ENDMDL
