MODEL 1
REMARK VINA RESULT:      -8.5      0.000      0.000
REMARK  5 active torsions:
REMARK  status: ('A' for Active; 'I' for Inactive)
REMARK    1  A    between atoms: O_2  and  C_3 
REMARK    2  A    between atoms: C_5  and  C_15 
REMARK    3  A    between atoms: C_8  and  C_9 
REMARK       I    between atoms: C_15  and  N_17 
REMARK    4  A    between atoms: N_17  and  C_18 
REMARK    5  A    between atoms: C_18  and  C_19 
ROOT
HETATM    1  C   UNL     1      43.410 -17.043   4.725  1.00  0.00     0.080 A 
HETATM    2  C   UNL     1      43.139 -15.669   4.816  1.00  0.00     0.054 A 
HETATM    3  C   UNL     1      42.902 -14.910   3.661  1.00  0.00     0.034 A 
HETATM    4  C   UNL     1      42.973 -15.516   2.407  1.00  0.00     0.018 A 
HETATM    5  C   UNL     1      43.232 -16.884   2.308  1.00  0.00     0.016 A 
HETATM    6  C   UNL     1      43.436 -17.668   3.458  1.00  0.00     0.010 A 
ENDROOT
BRANCH   3   7
HETATM    7  C   UNL     1      42.581 -13.458   3.731  1.00  0.00     0.252 C 
HETATM    8  O   UNL     1      41.488 -13.045   3.365  1.00  0.00    -0.268 OA
HETATM    9  N   UNL     1      43.564 -12.649   4.259  1.00  0.00    -0.353 N 
HETATM   10  H   UNL     1      44.295 -13.089   4.805  1.00  0.00     0.163 HD
BRANCH   9  11
HETATM   11  C   UNL     1      43.311 -11.255   4.539  1.00  0.00     0.163 C 
BRANCH  11  12
HETATM   12  C   UNL     1      43.722 -10.901   5.947  1.00  0.00    -0.019 A 
HETATM   13  C   UNL     1      45.019 -11.227   6.379  1.00  0.00     0.012 A 
HETATM   14  C   UNL     1      45.438 -10.932   7.679  1.00  0.00     0.020 A 
HETATM   15  C   UNL     1      44.558 -10.314   8.563  1.00  0.00     0.012 A 
HETATM   16 BR   UNL     1      45.120  -9.924  10.325  1.00  0.00    -0.051 Br
HETATM   17  C   UNL     1      43.267  -9.986   8.161  1.00  0.00     0.043 A 
HETATM   18  C   UNL     1      42.852 -10.278   6.859  1.00  0.00     0.043 A 
HETATM   19 CL   UNL     1      41.229  -9.867   6.427  1.00  0.00    -0.084 Cl
ENDBRANCH  11  12
ENDBRANCH   9  11
ENDBRANCH   3   7
BRANCH   1  20
HETATM   20  O   UNL     1      43.613 -17.841   5.823  1.00  0.00    -0.355 OA
HETATM   21  C   UNL     1      43.497 -17.246   7.109  1.00  0.00     0.210 C 
ENDBRANCH   1  20
BRANCH   6  22
HETATM   22  C   UNL     1      43.687 -19.098   3.304  1.00  0.00     0.013 A 
HETATM   23  C   UNL     1      43.626 -19.942   2.170  1.00  0.00     0.152 A 
HETATM   24  N   UNL     1      43.934 -21.212   2.449  1.00  0.00    -0.187 NA
HETATM   25  N   UNL     1      44.210 -21.184   3.761  1.00  0.00    -0.289 N 
HETATM   26  H   UNL     1      44.488 -22.050   4.212  1.00  0.00     0.188 HD
HETATM   27  C   UNL     1      44.074 -19.948   4.321  1.00  0.00     0.123 A 
ENDBRANCH   6  22
TORSDOF 5
ENDMDL
MODEL 2
REMARK VINA RESULT:      -8.4      9.625     13.157
REMARK  5 active torsions:
REMARK  status: ('A' for Active; 'I' for Inactive)
REMARK    1  A    between atoms: O_2  and  C_3 
REMARK    2  A    between atoms: C_5  and  C_15 
REMARK    3  A    between atoms: C_8  and  C_9 
REMARK       I    between atoms: C_15  and  N_17 
REMARK    4  A    between atoms: N_17  and  C_18 
REMARK    5  A    between atoms: C_18  and  C_19 
ROOT
HETATM    1  C   UNL     1      41.691  -9.355  13.346  1.00  0.00     0.080 A 
HETATM    2  C   UNL     1      41.325  -8.713  14.540  1.00  0.00     0.054 A 
HETATM    3  C   UNL     1      42.031  -7.588  14.991  1.00  0.00     0.034 A 
HETATM    4  C   UNL     1      43.130  -7.124  14.268  1.00  0.00     0.018 A 
HETATM    5  C   UNL     1      43.494  -7.750  13.075  1.00  0.00     0.016 A 
HETATM    6  C   UNL     1      42.775  -8.857  12.589  1.00  0.00     0.010 A 
ENDROOT
BRANCH   3   7
HETATM    7  C   UNL     1      41.645  -6.870  16.236  1.00  0.00     0.252 C 
HETATM    8  O   UNL     1      40.583  -6.264  16.301  1.00  0.00    -0.268 OA
HETATM    9  N   UNL     1      42.529  -6.972  17.288  1.00  0.00    -0.353 N 
HETATM   10  H   UNL     1      43.213  -7.718  17.260  1.00  0.00     0.163 HD
BRANCH   9  11
HETATM   11  C   UNL     1      42.190  -6.467  18.599  1.00  0.00     0.163 C 
BRANCH  11  12
HETATM   12  C   UNL     1      42.222  -7.569  19.629  1.00  0.00    -0.019 A 
HETATM   13  C   UNL     1      43.406  -7.790  20.353  1.00  0.00     0.012 A 
HETATM   14  C   UNL     1      43.485  -8.808  21.306  1.00  0.00     0.020 A 
HETATM   15  C   UNL     1      42.380  -9.622  21.538  1.00  0.00     0.012 A 
HETATM   16 BR   UNL     1      42.490 -11.008  22.819  1.00  0.00    -0.051 Br
HETATM   17  C   UNL     1      41.198  -9.428  20.831  1.00  0.00     0.043 A 
HETATM   18  C   UNL     1      41.119  -8.405  19.881  1.00  0.00     0.043 A 
HETATM   19 CL   UNL     1      39.632  -8.229  19.018  1.00  0.00    -0.084 Cl
ENDBRANCH  11  12
ENDBRANCH   9  11
ENDBRANCH   3   7
BRANCH   1  20
HETATM   20  O   UNL     1      41.014 -10.435  12.839  1.00  0.00    -0.355 OA
HETATM   21  C   UNL     1      39.599 -10.458  12.975  1.00  0.00     0.210 C 
ENDBRANCH   1  20
BRANCH   6  22
HETATM   22  C   UNL     1      43.185  -9.468  11.327  1.00  0.00     0.013 A 
HETATM   23  C   UNL     1      43.992 -10.596  11.053  1.00  0.00     0.152 A 
HETATM   24  N   UNL     1      44.129 -10.833   9.745  1.00  0.00    -0.187 NA
HETATM   25  N   UNL     1      43.395  -9.866   9.175  1.00  0.00    -0.289 N 
HETATM   26  H   UNL     1      43.334  -9.844   8.162  1.00  0.00     0.188 HD
HETATM   27  C   UNL     1      42.813  -9.022  10.074  1.00  0.00     0.123 A 
ENDBRANCH   6  22
TORSDOF 5
ENDMDL
MODEL 3
REMARK VINA RESULT:      -8.0      1.853      2.358
REMARK  5 active torsions:
REMARK  status: ('A' for Active; 'I' for Inactive)
REMARK    1  A    between atoms: O_2  and  C_3 
REMARK    2  A    between atoms: C_5  and  C_15 
REMARK    3  A    between atoms: C_8  and  C_9 
REMARK       I    between atoms: C_15  and  N_17 
REMARK    4  A    between atoms: N_17  and  C_18 
REMARK    5  A    between atoms: C_18  and  C_19 
ROOT
HETATM    1  C   UNL     1      43.099 -16.876   4.305  1.00  0.00     0.080 A 
HETATM    2  C   UNL     1      42.831 -15.512   4.111  1.00  0.00     0.054 A 
HETATM    3  C   UNL     1      42.897 -14.946   2.830  1.00  0.00     0.034 A 
HETATM    4  C   UNL     1      43.269 -15.737   1.742  1.00  0.00     0.018 A 
HETATM    5  C   UNL     1      43.527 -17.096   1.924  1.00  0.00     0.016 A 
HETATM    6  C   UNL     1      43.430 -17.688   3.196  1.00  0.00     0.010 A 
ENDROOT
BRANCH   3   7
HETATM    7  C   UNL     1      42.588 -13.510   2.591  1.00  0.00     0.252 C 
HETATM    8  O   UNL     1      41.640 -13.188   1.886  1.00  0.00    -0.268 OA
HETATM    9  N   UNL     1      43.399 -12.604   3.239  1.00  0.00    -0.353 N 
HETATM   10  H   UNL     1      43.948 -12.937   4.022  1.00  0.00     0.163 HD
BRANCH   9  11
HETATM   11  C   UNL     1      43.096 -11.191   3.228  1.00  0.00     0.163 C 
BRANCH  11  12
HETATM   12  C   UNL     1      42.315 -10.795   4.456  1.00  0.00    -0.019 A 
HETATM   13  C   UNL     1      40.970 -10.411   4.312  1.00  0.00     0.012 A 
HETATM   14  C   UNL     1      40.213 -10.022   5.420  1.00  0.00     0.020 A 
HETATM   15  C   UNL     1      40.798 -10.005   6.683  1.00  0.00     0.012 A 
HETATM   16 BR   UNL     1      39.777  -9.468   8.181  1.00  0.00    -0.051 Br
HETATM   17  C   UNL     1      42.128 -10.375   6.851  1.00  0.00     0.043 A 
HETATM   18  C   UNL     1      42.883 -10.768   5.742  1.00  0.00     0.043 A 
HETATM   19 CL   UNL     1      44.537 -11.193   6.012  1.00  0.00    -0.084 Cl
ENDBRANCH  11  12
ENDBRANCH   9  11
ENDBRANCH   3   7
BRANCH   1  20
HETATM   20  O   UNL     1      43.013 -17.491   5.529  1.00  0.00    -0.355 OA
HETATM   21  C   UNL     1      42.571 -16.713   6.634  1.00  0.00     0.210 C 
ENDBRANCH   1  20
BRANCH   6  22
HETATM   22  C   UNL     1      43.694 -19.117   3.333  1.00  0.00     0.013 A 
HETATM   23  C   UNL     1      43.527 -20.191   2.427  1.00  0.00     0.152 A 
HETATM   24  N   UNL     1      43.891 -21.369   2.942  1.00  0.00    -0.187 NA
HETATM   25  N   UNL     1      44.309 -21.053   4.177  1.00  0.00    -0.289 N 
HETATM   26  H   UNL     1      44.654 -21.799   4.773  1.00  0.00     0.188 HD
HETATM   27  C   UNL     1      44.209 -19.723   4.463  1.00  0.00     0.123 A 
ENDBRANCH   6  22
TORSDOF 5
ENDMDL
MODEL 4
REMARK VINA RESULT:      -8.0      3.275      5.104
REMARK  5 active torsions:
REMARK  status: ('A' for Active; 'I' for Inactive)
REMARK    1  A    between atoms: O_2  and  C_3 
REMARK    2  A    between atoms: C_5  and  C_15 
REMARK    3  A    between atoms: C_8  and  C_9 
REMARK       I    between atoms: C_15  and  N_17 
REMARK    4  A    between atoms: N_17  and  C_18 
REMARK    5  A    between atoms: C_18  and  C_19 
ROOT
HETATM    1  C   UNL     1      43.167 -12.639   4.088  1.00  0.00     0.080 A 
HETATM    2  C   UNL     1      43.910 -11.812   4.945  1.00  0.00     0.054 A 
HETATM    3  C   UNL     1      44.217 -12.228   6.249  1.00  0.00     0.034 A 
HETATM    4  C   UNL     1      43.748 -13.458   6.712  1.00  0.00     0.018 A 
HETATM    5  C   UNL     1      43.017 -14.290   5.863  1.00  0.00     0.016 A 
HETATM    6  C   UNL     1      42.731 -13.904   4.541  1.00  0.00     0.010 A 
ENDROOT
BRANCH   3   7
HETATM    7  C   UNL     1      45.030 -11.386   7.169  1.00  0.00     0.252 C 
HETATM    8  O   UNL     1      46.193 -11.116   6.899  1.00  0.00    -0.268 OA
HETATM    9  N   UNL     1      44.378 -10.918   8.289  1.00  0.00    -0.353 N 
HETATM   10  H   UNL     1      43.366 -10.929   8.286  1.00  0.00     0.163 HD
BRANCH   9  11
HETATM   11  C   UNL     1      45.003  -9.954   9.165  1.00  0.00     0.163 C 
BRANCH  11  12
HETATM   12  C   UNL     1      44.126  -9.657  10.357  1.00  0.00    -0.019 A 
HETATM   13  C   UNL     1      43.903 -10.669  11.306  1.00  0.00     0.012 A 
HETATM   14  C   UNL     1      43.087 -10.444  12.417  1.00  0.00     0.020 A 
HETATM   15  C   UNL     1      42.479  -9.203  12.585  1.00  0.00     0.012 A 
HETATM   16 BR   UNL     1      41.366  -8.900  14.083  1.00  0.00    -0.051 Br
HETATM   17  C   UNL     1      42.679  -8.186  11.657  1.00  0.00     0.043 A 
HETATM   18  C   UNL     1      43.500  -8.413  10.548  1.00  0.00     0.043 A 
HETATM   19 CL   UNL     1      43.691  -7.118   9.419  1.00  0.00    -0.084 Cl
ENDBRANCH  11  12
ENDBRANCH   9  11
ENDBRANCH   3   7
BRANCH   1  20
HETATM   20  O   UNL     1      42.871 -12.299   2.791  1.00  0.00    -0.355 OA
HETATM   21  C   UNL     1      42.295 -11.021   2.553  1.00  0.00     0.210 C 
ENDBRANCH   1  20
BRANCH   6  22
HETATM   22  C   UNL     1      41.977 -14.816   3.685  1.00  0.00     0.013 A 
HETATM   23  C   UNL     1      40.607 -14.853   3.337  1.00  0.00     0.152 A 
HETATM   24  N   UNL     1      40.306 -15.862   2.513  1.00  0.00    -0.187 NA
HETATM   25  N   UNL     1      41.487 -16.466   2.317  1.00  0.00    -0.289 N 
HETATM   26  H   UNL     1      41.518 -17.274   1.702  1.00  0.00     0.188 HD
HETATM   27  C   UNL     1      42.517 -15.884   2.996  1.00  0.00     0.123 A 
ENDBRANCH   6  22
TORSDOF 5
ENDMDL
MODEL 5
REMARK VINA RESULT:      -7.8      2.371      3.464
REMARK  5 active torsions:
REMARK  status: ('A' for Active; 'I' for Inactive)
REMARK    1  A    between atoms: O_2  and  C_3 
REMARK    2  A    between atoms: C_5  and  C_15 
REMARK    3  A    between atoms: C_8  and  C_9 
REMARK       I    between atoms: C_15  and  N_17 
REMARK    4  A    between atoms: N_17  and  C_18 
REMARK    5  A    between atoms: C_18  and  C_19 
ROOT
HETATM    1  C   UNL     1      42.747 -15.355   4.499  1.00  0.00     0.080 A 
HETATM    2  C   UNL     1      42.595 -13.962   4.573  1.00  0.00     0.054 A 
HETATM    3  C   UNL     1      43.169 -13.236   5.626  1.00  0.00     0.034 A 
HETATM    4  C   UNL     1      43.867 -13.907   6.631  1.00  0.00     0.018 A 
HETATM    5  C   UNL     1      44.031 -15.291   6.560  1.00  0.00     0.016 A 
HETATM    6  C   UNL     1      43.493 -16.030   5.492  1.00  0.00     0.010 A 
ENDROOT
BRANCH   3   7
HETATM    7  C   UNL     1      43.051 -11.754   5.712  1.00  0.00     0.252 C 
HETATM    8  O   UNL     1      43.145 -11.064   4.705  1.00  0.00    -0.268 OA
HETATM    9  N   UNL     1      42.794 -11.243   6.965  1.00  0.00    -0.353 N 
HETATM   10  H   UNL     1      42.436 -11.876   7.670  1.00  0.00     0.163 HD
BRANCH   9  11
HETATM   11  C   UNL     1      42.487  -9.844   7.151  1.00  0.00     0.163 C 
BRANCH  11  12
HETATM   12  C   UNL     1      42.669  -9.435   8.592  1.00  0.00    -0.019 A 
HETATM   13  C   UNL     1      41.530  -9.245   9.394  1.00  0.00     0.012 A 
HETATM   14  C   UNL     1      41.651  -8.852  10.729  1.00  0.00     0.020 A 
HETATM   15  C   UNL     1      42.914  -8.638  11.273  1.00  0.00     0.012 A 
HETATM   16 BR   UNL     1      43.078  -8.096  13.077  1.00  0.00    -0.051 Br
HETATM   17  C   UNL     1      44.056  -8.814  10.499  1.00  0.00     0.043 A 
HETATM   18  C   UNL     1      43.933  -9.212   9.164  1.00  0.00     0.043 A 
HETATM   19 CL   UNL     1      45.388  -9.391   8.247  1.00  0.00    -0.084 Cl
ENDBRANCH  11  12
ENDBRANCH   9  11
ENDBRANCH   3   7
BRANCH   1  20
HETATM   20  O   UNL     1      42.239 -16.111   3.473  1.00  0.00    -0.355 OA
HETATM   21  C   UNL     1      40.891 -15.883   3.082  1.00  0.00     0.210 C 
ENDBRANCH   1  20
BRANCH   6  22
HETATM   22  C   UNL     1      43.705 -17.474   5.453  1.00  0.00     0.013 A 
HETATM   23  C   UNL     1      44.374 -18.297   4.517  1.00  0.00     0.152 A 
HETATM   24  N   UNL     1      44.347 -19.591   4.847  1.00  0.00    -0.187 NA
HETATM   25  N   UNL     1      43.674 -19.602   6.007  1.00  0.00    -0.289 N 
HETATM   26  H   UNL     1      43.532 -20.494   6.471  1.00  0.00     0.188 HD
HETATM   27  C   UNL     1      43.265 -18.366   6.412  1.00  0.00     0.123 A 
ENDBRANCH   6  22
TORSDOF 5
ENDMDL
MODEL 6
REMARK VINA RESULT:      -7.8      3.394      4.879
REMARK  5 active torsions:
REMARK  status: ('A' for Active; 'I' for Inactive)
REMARK    1  A    between atoms: O_2  and  C_3 
REMARK    2  A    between atoms: C_5  and  C_15 
REMARK    3  A    between atoms: C_8  and  C_9 
REMARK       I    between atoms: C_15  and  N_17 
REMARK    4  A    between atoms: N_17  and  C_18 
REMARK    5  A    between atoms: C_18  and  C_19 
ROOT
HETATM    1  C   UNL     1      42.944 -13.975   6.336  1.00  0.00     0.080 A 
HETATM    2  C   UNL     1      43.637 -13.019   7.095  1.00  0.00     0.054 A 
HETATM    3  C   UNL     1      44.164 -11.870   6.487  1.00  0.00     0.034 A 
HETATM    4  C   UNL     1      44.031 -11.692   5.109  1.00  0.00     0.018 A 
HETATM    5  C   UNL     1      43.335 -12.633   4.349  1.00  0.00     0.016 A 
HETATM    6  C   UNL     1      42.769 -13.772   4.948  1.00  0.00     0.010 A 
ENDROOT
BRANCH   3   7
HETATM    7  C   UNL     1      44.875 -10.825   7.272  1.00  0.00     0.252 C 
HETATM    8  O   UNL     1      46.082 -10.904   7.462  1.00  0.00    -0.268 OA
HETATM    9  N   UNL     1      44.101  -9.775   7.717  1.00  0.00    -0.353 N 
HETATM   10  H   UNL     1      43.203  -9.629   7.274  1.00  0.00     0.163 HD
BRANCH   9  11
HETATM   11  C   UNL     1      44.702  -8.617   8.338  1.00  0.00     0.163 C 
BRANCH  11  12
HETATM   12  C   UNL     1      44.013  -8.279   9.637  1.00  0.00    -0.019 A 
HETATM   13  C   UNL     1      43.181  -7.147   9.691  1.00  0.00     0.012 A 
HETATM   14  C   UNL     1      42.535  -6.788  10.876  1.00  0.00     0.020 A 
HETATM   15  C   UNL     1      42.721  -7.555  12.023  1.00  0.00     0.012 A 
HETATM   16 BR   UNL     1      41.855  -7.064  13.629  1.00  0.00    -0.051 Br
HETATM   17  C   UNL     1      43.543  -8.677  11.996  1.00  0.00     0.043 A 
HETATM   18  C   UNL     1      44.185  -9.037  10.808  1.00  0.00     0.043 A 
HETATM   19 CL   UNL     1      45.212 -10.427  10.845  1.00  0.00    -0.084 Cl
ENDBRANCH  11  12
ENDBRANCH   9  11
ENDBRANCH   3   7
BRANCH   1  20
HETATM   20  O   UNL     1      42.376 -15.098   6.883  1.00  0.00    -0.355 OA
HETATM   21  C   UNL     1      43.086 -15.766   7.918  1.00  0.00     0.210 C 
ENDBRANCH   1  20
BRANCH   6  22
HETATM   22  C   UNL     1      42.035 -14.720   4.113  1.00  0.00     0.013 A 
HETATM   23  C   UNL     1      40.669 -14.787   3.754  1.00  0.00     0.152 A 
HETATM   24  N   UNL     1      40.390 -15.824   2.958  1.00  0.00    -0.187 NA
HETATM   25  N   UNL     1      41.581 -16.417   2.791  1.00  0.00    -0.289 N 
HETATM   26  H   UNL     1      41.628 -17.241   2.201  1.00  0.00     0.188 HD
HETATM   27  C   UNL     1      42.596 -15.800   3.462  1.00  0.00     0.123 A 
ENDBRANCH   6  22
TORSDOF 5
ENDMDL
MODEL 7
REMARK VINA RESULT:      -7.6     15.546     17.730
REMARK  5 active torsions:
REMARK  status: ('A' for Active; 'I' for Inactive)
REMARK    1  A    between atoms: O_2  and  C_3 
REMARK    2  A    between atoms: C_5  and  C_15 
REMARK    3  A    between atoms: C_8  and  C_9 
REMARK       I    between atoms: C_15  and  N_17 
REMARK    4  A    between atoms: N_17  and  C_18 
REMARK    5  A    between atoms: C_18  and  C_19 
ROOT
HETATM    1  C   UNL     1      49.283 -30.764   1.895  1.00  0.00     0.080 A 
HETATM    2  C   UNL     1      48.603 -30.080   0.876  1.00  0.00     0.054 A 
HETATM    3  C   UNL     1      47.848 -28.934   1.165  1.00  0.00     0.034 A 
HETATM    4  C   UNL     1      47.739 -28.491   2.484  1.00  0.00     0.018 A 
HETATM    5  C   UNL     1      48.420 -29.160   3.502  1.00  0.00     0.016 A 
HETATM    6  C   UNL     1      49.211 -30.289   3.225  1.00  0.00     0.010 A 
ENDROOT
BRANCH   3   7
HETATM    7  C   UNL     1      47.143 -28.171   0.099  1.00  0.00     0.252 C 
HETATM    8  O   UNL     1      47.778 -27.554  -0.747  1.00  0.00    -0.268 OA
HETATM    9  N   UNL     1      45.767 -28.246   0.116  1.00  0.00    -0.353 N 
HETATM   10  H   UNL     1      45.341 -28.999   0.642  1.00  0.00     0.163 HD
BRANCH   9  11
HETATM   11  C   UNL     1      44.978 -27.695  -0.962  1.00  0.00     0.163 C 
BRANCH  11  12
HETATM   12  C   UNL     1      44.800 -28.701  -2.073  1.00  0.00    -0.019 A 
HETATM   13  C   UNL     1      45.154 -28.336  -3.383  1.00  0.00     0.012 A 
HETATM   14  C   UNL     1      44.992 -29.229  -4.445  1.00  0.00     0.020 A 
HETATM   15  C   UNL     1      44.467 -30.496  -4.206  1.00  0.00     0.012 A 
HETATM   16 BR   UNL     1      44.238 -31.702  -5.644  1.00  0.00    -0.051 Br
HETATM   17  C   UNL     1      44.104 -30.879  -2.919  1.00  0.00     0.043 A 
HETATM   18  C   UNL     1      44.271 -29.985  -1.857  1.00  0.00     0.043 A 
HETATM   19 CL   UNL     1      43.780 -30.512  -0.285  1.00  0.00    -0.084 Cl
ENDBRANCH  11  12
ENDBRANCH   9  11
ENDBRANCH   3   7
BRANCH   1  20
HETATM   20  O   UNL     1      50.066 -31.867   1.664  1.00  0.00    -0.355 OA
HETATM   21  C   UNL     1      51.071 -31.772   0.663  1.00  0.00     0.210 C 
ENDBRANCH   1  20
BRANCH   6  22
HETATM   22  C   UNL     1      49.917 -30.945   4.321  1.00  0.00     0.013 A 
HETATM   23  C   UNL     1      51.228 -30.773   4.825  1.00  0.00     0.152 A 
HETATM   24  N   UNL     1      51.499 -31.578   5.857  1.00  0.00    -0.187 NA
HETATM   25  N   UNL     1      50.356 -32.258   6.030  1.00  0.00    -0.289 N 
HETATM   26  H   UNL     1      50.310 -32.939   6.781  1.00  0.00     0.188 HD
HETATM   27  C   UNL     1      49.381 -31.921   5.137  1.00  0.00     0.123 A 
ENDBRANCH   6  22
TORSDOF 5
ENDMDL
MODEL 8
REMARK VINA RESULT:      -7.6      2.338      3.191
REMARK  5 active torsions:
REMARK  status: ('A' for Active; 'I' for Inactive)
REMARK    1  A    between atoms: O_2  and  C_3 
REMARK    2  A    between atoms: C_5  and  C_15 
REMARK    3  A    between atoms: C_8  and  C_9 
REMARK       I    between atoms: C_15  and  N_17 
REMARK    4  A    between atoms: N_17  and  C_18 
REMARK    5  A    between atoms: C_18  and  C_19 
ROOT
HETATM    1  C   UNL     1      42.616 -16.768   4.074  1.00  0.00     0.080 A 
HETATM    2  C   UNL     1      42.623 -15.625   4.890  1.00  0.00     0.054 A 
HETATM    3  C   UNL     1      43.562 -15.491   5.922  1.00  0.00     0.034 A 
HETATM    4  C   UNL     1      44.475 -16.518   6.167  1.00  0.00     0.018 A 
HETATM    5  C   UNL     1      44.481 -17.652   5.354  1.00  0.00     0.016 A 
HETATM    6  C   UNL     1      43.570 -17.788   4.291  1.00  0.00     0.010 A 
ENDROOT
BRANCH   3   7
HETATM    7  C   UNL     1      43.612 -14.277   6.782  1.00  0.00     0.252 C 
HETATM    8  O   UNL     1      43.261 -14.330   7.954  1.00  0.00    -0.268 OA
HETATM    9  N   UNL     1      44.109 -13.138   6.186  1.00  0.00    -0.353 N 
HETATM   10  H   UNL     1      44.648 -13.246   5.336  1.00  0.00     0.163 HD
BRANCH   9  11
HETATM   11  C   UNL     1      44.370 -11.946   6.959  1.00  0.00     0.163 C 
BRANCH  11  12
HETATM   12  C   UNL     1      43.348 -10.876   6.668  1.00  0.00    -0.019 A 
HETATM   13  C   UNL     1      42.826 -10.770   5.367  1.00  0.00     0.012 A 
HETATM   14  C   UNL     1      41.888  -9.785   5.048  1.00  0.00     0.020 A 
HETATM   15  C   UNL     1      41.469  -8.889   6.028  1.00  0.00     0.012 A 
HETATM   16 BR   UNL     1      40.208  -7.549   5.594  1.00  0.00    -0.051 Br
HETATM   17  C   UNL     1      41.974  -8.969   7.321  1.00  0.00     0.043 A 
HETATM   18  C   UNL     1      42.909  -9.959   7.639  1.00  0.00     0.043 A 
HETATM   19 CL   UNL     1      43.518  -9.992   9.257  1.00  0.00    -0.084 Cl
ENDBRANCH  11  12
ENDBRANCH   9  11
ENDBRANCH   3   7
BRANCH   1  20
HETATM   20  O   UNL     1      41.746 -16.935   3.027  1.00  0.00    -0.355 OA
HETATM   21  C   UNL     1      40.667 -16.017   2.904  1.00  0.00     0.210 C 
ENDBRANCH   1  20
BRANCH   6  22
HETATM   22  C   UNL     1      43.627 -18.986   3.459  1.00  0.00     0.013 A 
HETATM   23  C   UNL     1      43.962 -20.325   3.768  1.00  0.00     0.152 A 
HETATM   24  N   UNL     1      43.891 -21.137   2.710  1.00  0.00    -0.187 NA
HETATM   25  N   UNL     1      43.494 -20.325   1.720  1.00  0.00    -0.289 N 
HETATM   26  H   UNL     1      43.355 -20.724   0.797  1.00  0.00     0.188 HD
HETATM   27  C   UNL     1      43.325 -19.029   2.112  1.00  0.00     0.123 A 
ENDBRANCH   6  22
TORSDOF 5
ENDMDL
MODEL 9
REMARK VINA RESULT:      -7.6      5.321      6.868
REMARK  5 active torsions:
REMARK  status: ('A' for Active; 'I' for Inactive)
REMARK    1  A    between atoms: O_2  and  C_3 
REMARK    2  A    between atoms: C_5  and  C_15 
REMARK    3  A    between atoms: C_8  and  C_9 
REMARK       I    between atoms: C_15  and  N_17 
REMARK    4  A    between atoms: N_17  and  C_18 
REMARK    5  A    between atoms: C_18  and  C_19 
ROOT
HETATM    1  C   UNL     1      41.019 -15.670   4.585  1.00  0.00     0.080 A 
HETATM    2  C   UNL     1      40.433 -15.339   3.353  1.00  0.00     0.054 A 
HETATM    3  C   UNL     1      41.086 -15.638   2.149  1.00  0.00     0.034 A 
HETATM    4  C   UNL     1      42.346 -16.236   2.174  1.00  0.00     0.018 A 
HETATM    5  C   UNL     1      42.931 -16.578   3.394  1.00  0.00     0.016 A 
HETATM    6  C   UNL     1      42.275 -16.318   4.610  1.00  0.00     0.010 A 
ENDROOT
BRANCH   3   7
HETATM    7  C   UNL     1      40.473 -15.327   0.828  1.00  0.00     0.252 C 
HETATM    8  O   UNL     1      39.545 -16.001   0.399  1.00  0.00    -0.268 OA
HETATM    9  N   UNL     1      40.989 -14.232   0.169  1.00  0.00    -0.353 N 
HETATM   10  H   UNL     1      41.527 -13.566   0.709  1.00  0.00     0.163 HD
BRANCH   9  11
HETATM   11  C   UNL     1      40.368 -13.726  -1.033  1.00  0.00     0.163 C 
BRANCH  11  12
HETATM   12  C   UNL     1      39.308 -12.704  -0.706  1.00  0.00    -0.019 A 
HETATM   13  C   UNL     1      39.475 -11.888   0.426  1.00  0.00     0.012 A 
HETATM   14  C   UNL     1      38.512 -10.938   0.775  1.00  0.00     0.020 A 
HETATM   15  C   UNL     1      37.366 -10.801  -0.003  1.00  0.00     0.012 A 
HETATM   16 BR   UNL     1      36.057  -9.524   0.475  1.00  0.00    -0.051 Br
HETATM   17  C   UNL     1      37.174 -11.599  -1.126  1.00  0.00     0.043 A 
HETATM   18  C   UNL     1      38.142 -12.546  -1.476  1.00  0.00     0.043 A 
HETATM   19 CL   UNL     1      37.835 -13.524  -2.868  1.00  0.00    -0.084 Cl
ENDBRANCH  11  12
ENDBRANCH   9  11
ENDBRANCH   3   7
BRANCH   1  20
HETATM   20  O   UNL     1      40.410 -15.435   5.792  1.00  0.00    -0.355 OA
HETATM   21  C   UNL     1      40.279 -14.086   6.221  1.00  0.00     0.210 C 
ENDBRANCH   1  20
BRANCH   6  22
HETATM   22  C   UNL     1      42.921 -16.709   5.860  1.00  0.00     0.013 A 
HETATM   23  C   UNL     1      43.569 -15.943   6.857  1.00  0.00     0.152 A 
HETATM   24  N   UNL     1      44.035 -16.687   7.865  1.00  0.00    -0.187 NA
HETATM   25  N   UNL     1      43.672 -17.933   7.525  1.00  0.00    -0.289 N 
HETATM   26  H   UNL     1      43.910 -18.691   8.156  1.00  0.00     0.188 HD
HETATM   27  C   UNL     1      43.007 -18.002   6.336  1.00  0.00     0.123 A 
ENDBRANCH   6  22
TORSDOF 5
ENDMDL
MODEL 10
REMARK VINA RESULT:      -7.6      2.692      3.543
REMARK  5 active torsions:
REMARK  status: ('A' for Active; 'I' for Inactive)
REMARK    1  A    between atoms: O_2  and  C_3 
REMARK    2  A    between atoms: C_5  and  C_15 
REMARK    3  A    between atoms: C_8  and  C_9 
REMARK       I    between atoms: C_15  and  N_17 
REMARK    4  A    between atoms: N_17  and  C_18 
REMARK    5  A    between atoms: C_18  and  C_19 
ROOT
HETATM    1  C   UNL     1      42.920 -16.839   3.956  1.00  0.00     0.080 A 
HETATM    2  C   UNL     1      42.854 -15.537   4.479  1.00  0.00     0.054 A 
HETATM    3  C   UNL     1      43.552 -15.202   5.648  1.00  0.00     0.034 A 
HETATM    4  C   UNL     1      44.287 -16.178   6.320  1.00  0.00     0.018 A 
HETATM    5  C   UNL     1      44.366 -17.471   5.802  1.00  0.00     0.016 A 
HETATM    6  C   UNL     1      43.702 -17.816   4.611  1.00  0.00     0.010 A 
ENDROOT
BRANCH   3   7
HETATM    7  C   UNL     1      43.526 -13.822   6.206  1.00  0.00     0.252 C 
HETATM    8  O   UNL     1      43.608 -13.639   7.414  1.00  0.00    -0.268 OA
HETATM    9  N   UNL     1      43.447 -12.801   5.284  1.00  0.00    -0.353 N 
HETATM   10  H   UNL     1      43.685 -13.013   4.323  1.00  0.00     0.163 HD
BRANCH   9  11
HETATM   11  C   UNL     1      43.589 -11.421   5.687  1.00  0.00     0.163 C 
BRANCH  11  12
HETATM   12  C   UNL     1      42.293 -10.669   5.513  1.00  0.00    -0.019 A 
HETATM   13  C   UNL     1      41.594 -10.244   6.656  1.00  0.00     0.012 A 
HETATM   14  C   UNL     1      40.382  -9.558   6.543  1.00  0.00     0.020 A 
HETATM   15  C   UNL     1      39.853  -9.297   5.282  1.00  0.00     0.012 A 
HETATM   16 BR   UNL     1      38.209  -8.378   5.128  1.00  0.00    -0.051 Br
HETATM   17  C   UNL     1      40.523  -9.711   4.135  1.00  0.00     0.043 A 
HETATM   18  C   UNL     1      41.738 -10.394   4.251  1.00  0.00     0.043 A 
HETATM   19 CL   UNL     1      42.509 -10.904   2.790  1.00  0.00    -0.084 Cl
ENDBRANCH  11  12
ENDBRANCH   9  11
ENDBRANCH   3   7
BRANCH   1  20
HETATM   20  O   UNL     1      42.289 -17.213   2.796  1.00  0.00    -0.355 OA
HETATM   21  C   UNL     1      41.248 -16.378   2.306  1.00  0.00     0.210 C 
ENDBRANCH   1  20
BRANCH   6  22
HETATM   22  C   UNL     1      43.828 -19.178   4.100  1.00  0.00     0.013 A 
HETATM   23  C   UNL     1      43.756 -19.694   2.785  1.00  0.00     0.152 A 
HETATM   24  N   UNL     1      43.927 -21.019   2.735  1.00  0.00    -0.187 NA
HETATM   25  N   UNL     1      44.125 -21.355   4.018  1.00  0.00    -0.289 N 
HETATM   26  H   UNL     1      44.294 -22.332   4.237  1.00  0.00     0.188 HD
HETATM   27  C   UNL     1      44.072 -20.295   4.874  1.00  0.00     0.123 A 
ENDBRANCH   6  22
TORSDOF 5
ENDMDL
