MODEL 1
REMARK VINA RESULT:     -10.2      0.000      0.000
REMARK  5 active torsions:
REMARK  status: ('A' for Active; 'I' for Inactive)
REMARK    1  A    between atoms: C_4  and  C_5 
REMARK    2  A    between atoms: C_5  and  N_6 
REMARK       I    between atoms: N_6  and  C_7 
REMARK    3  A    between atoms: C_7  and  C_8 
REMARK    4  A    between atoms: C_20  and  N_21 
REMARK       I    between atoms: N_21  and  C_22 
REMARK    5  A    between atoms: C_22  and  C_23 
ROOT
HETATM    1  C   UNL     1      41.163 -13.362   3.783  1.00  0.00     0.079 A 
HETATM    2  C   UNL     1      41.715 -14.580   3.674  1.00  0.00     0.131 A 
HETATM    3  N   UNL     1      42.676 -14.989   4.606  1.00  0.00    -0.259 N 
HETATM    4  C   UNL     1      43.138 -16.263   4.205  1.00  0.00     0.071 A 
HETATM    5  C   UNL     1      42.443 -16.586   3.016  1.00  0.00     0.061 A 
HETATM    6  C   UNL     1      42.646 -17.789   2.379  1.00  0.00     0.032 A 
HETATM    7  C   UNL     1      43.599 -18.656   2.925  1.00  0.00     0.002 A 
HETATM    8  C   UNL     1      44.311 -18.316   4.096  1.00  0.00     0.002 A 
HETATM    9  C   UNL     1      44.082 -17.104   4.754  1.00  0.00     0.032 A 
HETATM   10  N   UNL     1      41.496 -15.585   2.743  1.00  0.00    -0.339 N 
HETATM   11  C   UNL     1      43.096 -14.247   5.687  1.00  0.00     0.281 A 
HETATM   12  O   UNL     1      43.926 -14.580   6.534  1.00  0.00    -0.265 OA
HETATM   13  C   UNL     1      42.450 -12.876   5.809  1.00  0.00     0.105 A 
HETATM   14  C   UNL     1      41.573 -12.489   4.869  1.00  0.00     0.056 A 
HETATM   15  H   UNL     1      41.229 -15.323   1.801  1.00  0.00     0.167 HD
ENDROOT
BRANCH   1  16
HETATM   16  C   UNL     1      40.131 -12.946   2.791  1.00  0.00     0.255 C 
HETATM   17  N   UNL     1      40.552 -11.953   1.944  1.00  0.00    -0.353 N 
HETATM   18  H   UNL     1      41.474 -11.549   2.051  1.00  0.00     0.163 HD
HETATM   19  O   UNL     1      39.010 -13.443   2.770  1.00  0.00    -0.268 OA
BRANCH  17  20
HETATM   20  C   UNL     1      39.734 -11.468   0.860  1.00  0.00     0.161 C 
BRANCH  20  21
HETATM   21  C   UNL     1      40.100 -12.164  -0.424  1.00  0.00    -0.041 A 
HETATM   22  C   UNL     1      40.934 -11.534  -1.363  1.00  0.00     0.009 A 
HETATM   23  C   UNL     1      41.233 -12.156  -2.576  1.00  0.00     0.001 A 
HETATM   24  C   UNL     1      40.707 -13.414  -2.861  1.00  0.00     0.000 A 
HETATM   25  C   UNL     1      39.880 -14.051  -1.937  1.00  0.00     0.001 A 
HETATM   26  C   UNL     1      39.574 -13.427  -0.725  1.00  0.00     0.009 A 
ENDBRANCH  20  21
ENDBRANCH  17  20
ENDBRANCH   1  16
BRANCH  13  27
HETATM   27  N   UNL     1      42.842 -12.136   6.912  1.00  0.00    -0.318 N 
HETATM   28  C   UNL     1      43.928 -11.290   7.022  1.00  0.00     0.256 C 
HETATM   29  O   UNL     1      44.745 -11.068   6.133  1.00  0.00    -0.267 OA
HETATM   30  H   UNL     1      42.166 -12.175   7.672  1.00  0.00     0.169 HD
BRANCH  28  31
HETATM   31  C   UNL     1      44.065 -10.556   8.314  1.00  0.00     0.032 A 
HETATM   32  C   UNL     1      45.285 -10.444   8.997  1.00  0.00     0.020 A 
HETATM   33  C   UNL     1      45.343  -9.752  10.211  1.00  0.00     0.043 A 
HETATM   34  C   UNL     1      44.191  -9.169  10.730  1.00  0.00     0.116 A 
HETATM   35  F   UNL     1      44.254  -8.508  11.893  1.00  0.00    -0.206 F 
HETATM   36  C   UNL     1      42.979  -9.255  10.057  1.00  0.00     0.043 A 
HETATM   37  C   UNL     1      42.916  -9.947   8.846  1.00  0.00     0.020 A 
ENDBRANCH  28  31
ENDBRANCH  13  27
TORSDOF 5
ENDMDL
MODEL 2
REMARK VINA RESULT:     -10.0      1.770      6.026
REMARK  5 active torsions:
REMARK  status: ('A' for Active; 'I' for Inactive)
REMARK    1  A    between atoms: C_4  and  C_5 
REMARK    2  A    between atoms: C_5  and  N_6 
REMARK       I    between atoms: N_6  and  C_7 
REMARK    3  A    between atoms: C_7  and  C_8 
REMARK    4  A    between atoms: C_20  and  N_21 
REMARK       I    between atoms: N_21  and  C_22 
REMARK    5  A    between atoms: C_22  and  C_23 
ROOT
HETATM    1  C   UNL     1      42.156 -14.458   2.530  1.00  0.00     0.079 A 
HETATM    2  C   UNL     1      41.774 -13.556   1.613  1.00  0.00     0.131 A 
HETATM    3  N   UNL     1      41.829 -12.191   1.922  1.00  0.00    -0.259 N 
HETATM    4  C   UNL     1      41.296 -11.487   0.819  1.00  0.00     0.071 A 
HETATM    5  C   UNL     1      40.915 -12.462  -0.134  1.00  0.00     0.061 A 
HETATM    6  C   UNL     1      40.381 -12.097  -1.348  1.00  0.00     0.032 A 
HETATM    7  C   UNL     1      40.185 -10.732  -1.584  1.00  0.00     0.002 A 
HETATM    8  C   UNL     1      40.541  -9.765  -0.619  1.00  0.00     0.002 A 
HETATM    9  C   UNL     1      41.107 -10.139   0.604  1.00  0.00     0.032 A 
HETATM   10  N   UNL     1      41.298 -13.733   0.322  1.00  0.00    -0.339 N 
HETATM   11  C   UNL     1      42.293 -11.666   3.107  1.00  0.00     0.281 A 
HETATM   12  O   UNL     1      42.370 -10.474   3.407  1.00  0.00    -0.265 OA
HETATM   13  C   UNL     1      42.740 -12.698   4.130  1.00  0.00     0.105 A 
HETATM   14  C   UNL     1      42.624 -14.001   3.828  1.00  0.00     0.056 A 
HETATM   15  H   UNL     1      40.774 -14.575   0.110  1.00  0.00     0.167 HD
ENDROOT
BRANCH   1  16
HETATM   16  C   UNL     1      42.105 -15.907   2.181  1.00  0.00     0.255 C 
HETATM   17  N   UNL     1      43.334 -16.516   2.187  1.00  0.00    -0.353 N 
HETATM   18  H   UNL     1      44.169 -15.977   2.379  1.00  0.00     0.163 HD
HETATM   19  O   UNL     1      41.055 -16.472   1.896  1.00  0.00    -0.268 OA
BRANCH  17  20
HETATM   20  C   UNL     1      43.492 -17.931   1.958  1.00  0.00     0.161 C 
BRANCH  20  21
HETATM   21  C   UNL     1      43.671 -18.656   3.265  1.00  0.00    -0.041 A 
HETATM   22  C   UNL     1      43.800 -20.054   3.292  1.00  0.00     0.009 A 
HETATM   23  C   UNL     1      43.914 -20.733   4.506  1.00  0.00     0.001 A 
HETATM   24  C   UNL     1      43.906 -20.021   5.705  1.00  0.00     0.000 A 
HETATM   25  C   UNL     1      43.781 -18.634   5.690  1.00  0.00     0.001 A 
HETATM   26  C   UNL     1      43.659 -17.954   4.477  1.00  0.00     0.009 A 
ENDBRANCH  20  21
ENDBRANCH  17  20
ENDBRANCH   1  16
BRANCH  13  27
HETATM   27  N   UNL     1      43.239 -12.178   5.313  1.00  0.00    -0.318 N 
HETATM   28  C   UNL     1      44.443 -11.533   5.514  1.00  0.00     0.256 C 
HETATM   29  O   UNL     1      45.288 -11.326   4.648  1.00  0.00    -0.267 OA
HETATM   30  H   UNL     1      42.562 -12.212   6.072  1.00  0.00     0.169 HD
BRANCH  28  31
HETATM   31  C   UNL     1      44.688 -11.006   6.888  1.00  0.00     0.032 A 
HETATM   32  C   UNL     1      43.694 -10.977   7.878  1.00  0.00     0.020 A 
HETATM   33  C   UNL     1      43.987 -10.459   9.143  1.00  0.00     0.043 A 
HETATM   34  C   UNL     1      45.266  -9.984   9.418  1.00  0.00     0.116 A 
HETATM   35  F   UNL     1      45.539  -9.489  10.632  1.00  0.00    -0.206 F 
HETATM   36  C   UNL     1      46.266 -10.023   8.455  1.00  0.00     0.043 A 
HETATM   37  C   UNL     1      45.978 -10.537   7.189  1.00  0.00     0.020 A 
ENDBRANCH  28  31
ENDBRANCH  13  27
TORSDOF 5
ENDMDL
MODEL 3
REMARK VINA RESULT:      -9.9      4.172      9.629
REMARK  5 active torsions:
REMARK  status: ('A' for Active; 'I' for Inactive)
REMARK    1  A    between atoms: C_4  and  C_5 
REMARK    2  A    between atoms: C_5  and  N_6 
REMARK       I    between atoms: N_6  and  C_7 
REMARK    3  A    between atoms: C_7  and  C_8 
REMARK    4  A    between atoms: C_20  and  N_21 
REMARK       I    between atoms: N_21  and  C_22 
REMARK    5  A    between atoms: C_22  and  C_23 
ROOT
HETATM    1  C   UNL     1      43.694 -12.123   6.679  1.00  0.00     0.079 A 
HETATM    2  C   UNL     1      42.552 -11.513   6.324  1.00  0.00     0.131 A 
HETATM    3  N   UNL     1      41.614 -12.202   5.545  1.00  0.00    -0.259 N 
HETATM    4  C   UNL     1      40.563 -11.303   5.257  1.00  0.00     0.071 A 
HETATM    5  C   UNL     1      40.907 -10.074   5.867  1.00  0.00     0.061 A 
HETATM    6  C   UNL     1      40.067  -8.986   5.797  1.00  0.00     0.032 A 
HETATM    7  C   UNL     1      38.886  -9.129   5.060  1.00  0.00     0.002 A 
HETATM    8  C   UNL     1      38.561 -10.349   4.430  1.00  0.00     0.002 A 
HETATM    9  C   UNL     1      39.406 -11.460   4.526  1.00  0.00     0.032 A 
HETATM   10  N   UNL     1      42.091 -10.235   6.605  1.00  0.00    -0.339 N 
HETATM   11  C   UNL     1      41.740 -13.507   5.127  1.00  0.00     0.281 A 
HETATM   12  O   UNL     1      40.931 -14.149   4.455  1.00  0.00    -0.265 OA
HETATM   13  C   UNL     1      43.030 -14.192   5.550  1.00  0.00     0.105 A 
HETATM   14  C   UNL     1      43.936 -13.489   6.249  1.00  0.00     0.056 A 
HETATM   15  H   UNL     1      42.770  -9.491   6.726  1.00  0.00     0.167 HD
ENDROOT
BRANCH   1  16
HETATM   16  C   UNL     1      44.676 -11.381   7.520  1.00  0.00     0.255 C 
HETATM   17  N   UNL     1      44.146 -10.908   8.694  1.00  0.00    -0.353 N 
HETATM   18  H   UNL     1      43.165 -11.046   8.902  1.00  0.00     0.163 HD
HETATM   19  O   UNL     1      45.835 -11.201   7.163  1.00  0.00    -0.268 OA
BRANCH  17  20
HETATM   20  C   UNL     1      44.950 -10.236   9.685  1.00  0.00     0.161 C 
BRANCH  20  21
HETATM   21  C   UNL     1      44.104  -9.839  10.865  1.00  0.00    -0.041 A 
HETATM   22  C   UNL     1      43.963  -8.487  11.218  1.00  0.00     0.009 A 
HETATM   23  C   UNL     1      43.221  -8.121  12.342  1.00  0.00     0.001 A 
HETATM   24  C   UNL     1      42.608  -9.100  13.120  1.00  0.00     0.000 A 
HETATM   25  C   UNL     1      42.738 -10.445  12.779  1.00  0.00     0.001 A 
HETATM   26  C   UNL     1      43.486 -10.814  11.659  1.00  0.00     0.009 A 
ENDBRANCH  20  21
ENDBRANCH  17  20
ENDBRANCH   1  16
BRANCH  13  27
HETATM   27  N   UNL     1      43.151 -15.515   5.160  1.00  0.00    -0.318 N 
HETATM   28  C   UNL     1      43.373 -16.007   3.890  1.00  0.00     0.256 C 
HETATM   29  O   UNL     1      43.489 -15.324   2.876  1.00  0.00    -0.267 OA
HETATM   30  H   UNL     1      43.169 -16.157   5.950  1.00  0.00     0.169 HD
BRANCH  28  31
HETATM   31  C   UNL     1      43.537 -17.486   3.774  1.00  0.00     0.032 A 
HETATM   32  C   UNL     1      43.954 -18.290   4.846  1.00  0.00     0.020 A 
HETATM   33  C   UNL     1      44.099 -19.669   4.667  1.00  0.00     0.043 A 
HETATM   34  C   UNL     1      43.819 -20.240   3.430  1.00  0.00     0.116 A 
HETATM   35  F   UNL     1      43.960 -21.561   3.265  1.00  0.00    -0.206 F 
HETATM   36  C   UNL     1      43.388 -19.460   2.363  1.00  0.00     0.043 A 
HETATM   37  C   UNL     1      43.243 -18.082   2.536  1.00  0.00     0.020 A 
ENDBRANCH  28  31
ENDBRANCH  13  27
TORSDOF 5
ENDMDL
MODEL 4
REMARK VINA RESULT:      -9.9      3.252      8.199
REMARK  5 active torsions:
REMARK  status: ('A' for Active; 'I' for Inactive)
REMARK    1  A    between atoms: C_4  and  C_5 
REMARK    2  A    between atoms: C_5  and  N_6 
REMARK       I    between atoms: N_6  and  C_7 
REMARK    3  A    between atoms: C_7  and  C_8 
REMARK    4  A    between atoms: C_20  and  N_21 
REMARK       I    between atoms: N_21  and  C_22 
REMARK    5  A    between atoms: C_22  and  C_23 
ROOT
HETATM    1  C   UNL     1      42.780 -14.500   4.788  1.00  0.00     0.079 A 
HETATM    2  C   UNL     1      43.130 -15.787   4.632  1.00  0.00     0.131 A 
HETATM    3  N   UNL     1      43.127 -16.353   3.351  1.00  0.00    -0.259 N 
HETATM    4  C   UNL     1      43.452 -17.720   3.494  1.00  0.00     0.071 A 
HETATM    5  C   UNL     1      43.630 -17.949   4.879  1.00  0.00     0.061 A 
HETATM    6  C   UNL     1      43.987 -19.190   5.354  1.00  0.00     0.032 A 
HETATM    7  C   UNL     1      44.118 -20.226   4.421  1.00  0.00     0.002 A 
HETATM    8  C   UNL     1      43.911 -19.999   3.044  1.00  0.00     0.002 A 
HETATM    9  C   UNL     1      43.574 -18.729   2.563  1.00  0.00     0.032 A 
HETATM   10  N   UNL     1      43.523 -16.731   5.569  1.00  0.00    -0.339 N 
HETATM   11  C   UNL     1      42.826 -15.679   2.189  1.00  0.00     0.281 A 
HETATM   12  O   UNL     1      42.828 -16.139   1.047  1.00  0.00    -0.265 OA
HETATM   13  C   UNL     1      42.449 -14.219   2.378  1.00  0.00     0.105 A 
HETATM   14  C   UNL     1      42.406 -13.717   3.623  1.00  0.00     0.056 A 
HETATM   15  H   UNL     1      43.152 -16.663   6.511  1.00  0.00     0.167 HD
ENDROOT
BRANCH   1  16
HETATM   16  C   UNL     1      42.801 -13.909   6.156  1.00  0.00     0.255 C 
HETATM   17  N   UNL     1      43.014 -12.553   6.164  1.00  0.00    -0.353 N 
HETATM   18  H   UNL     1      43.173 -12.057   5.296  1.00  0.00     0.163 HD
HETATM   19  O   UNL     1      42.665 -14.593   7.165  1.00  0.00    -0.268 OA
BRANCH  17  20
HETATM   20  C   UNL     1      42.987 -11.778   7.380  1.00  0.00     0.161 C 
BRANCH  20  21
HETATM   21  C   UNL     1      44.244 -10.959   7.506  1.00  0.00    -0.041 A 
HETATM   22  C   UNL     1      45.453 -11.421   6.960  1.00  0.00     0.009 A 
HETATM   23  C   UNL     1      46.630 -10.688   7.120  1.00  0.00     0.001 A 
HETATM   24  C   UNL     1      46.610  -9.485   7.823  1.00  0.00     0.000 A 
HETATM   25  C   UNL     1      45.417  -9.015   8.368  1.00  0.00     0.001 A 
HETATM   26  C   UNL     1      44.239  -9.751   8.215  1.00  0.00     0.009 A 
ENDBRANCH  20  21
ENDBRANCH  17  20
ENDBRANCH   1  16
BRANCH  13  27
HETATM   27  N   UNL     1      42.176 -13.524   1.211  1.00  0.00    -0.318 N 
HETATM   28  C   UNL     1      40.940 -13.222   0.675  1.00  0.00     0.256 C 
HETATM   29  O   UNL     1      39.860 -13.544   1.160  1.00  0.00    -0.267 OA
HETATM   30  H   UNL     1      43.011 -13.126   0.787  1.00  0.00     0.169 HD
BRANCH  28  31
HETATM   31  C   UNL     1      40.944 -12.389  -0.564  1.00  0.00     0.032 A 
HETATM   32  C   UNL     1      41.206 -11.011  -0.550  1.00  0.00     0.020 A 
HETATM   33  C   UNL     1      41.183 -10.286  -1.746  1.00  0.00     0.043 A 
HETATM   34  C   UNL     1      40.910 -10.938  -2.945  1.00  0.00     0.116 A 
HETATM   35  F   UNL     1      40.889 -10.237  -4.086  1.00  0.00    -0.206 F 
HETATM   36  C   UNL     1      40.667 -12.305  -2.977  1.00  0.00     0.043 A 
HETATM   37  C   UNL     1      40.687 -13.033  -1.786  1.00  0.00     0.020 A 
ENDBRANCH  28  31
ENDBRANCH  13  27
TORSDOF 5
ENDMDL
MODEL 5
REMARK VINA RESULT:      -9.8      4.224      9.413
REMARK  5 active torsions:
REMARK  status: ('A' for Active; 'I' for Inactive)
REMARK    1  A    between atoms: C_4  and  C_5 
REMARK    2  A    between atoms: C_5  and  N_6 
REMARK       I    between atoms: N_6  and  C_7 
REMARK    3  A    between atoms: C_7  and  C_8 
REMARK    4  A    between atoms: C_20  and  N_21 
REMARK       I    between atoms: N_21  and  C_22 
REMARK    5  A    between atoms: C_22  and  C_23 
ROOT
HETATM    1  C   UNL     1      40.929 -13.961   4.707  1.00  0.00     0.079 A 
HETATM    2  C   UNL     1      40.488 -12.810   5.238  1.00  0.00     0.131 A 
HETATM    3  N   UNL     1      39.736 -11.929   4.451  1.00  0.00    -0.259 N 
HETATM    4  C   UNL     1      39.481 -10.779   5.230  1.00  0.00     0.071 A 
HETATM    5  C   UNL     1      40.108 -10.994   6.481  1.00  0.00     0.061 A 
HETATM    6  C   UNL     1      40.022 -10.061   7.488  1.00  0.00     0.032 A 
HETATM    7  C   UNL     1      39.334  -8.874   7.212  1.00  0.00     0.002 A 
HETATM    8  C   UNL     1      38.735  -8.652   5.954  1.00  0.00     0.002 A 
HETATM    9  C   UNL     1      38.803  -9.615   4.941  1.00  0.00     0.032 A 
HETATM   10  N   UNL     1      40.649 -12.289   6.514  1.00  0.00    -0.339 N 
HETATM   11  C   UNL     1      39.359 -12.159   3.147  1.00  0.00     0.281 A 
HETATM   12  O   UNL     1      38.686 -11.416   2.430  1.00  0.00    -0.265 OA
HETATM   13  C   UNL     1      39.849 -13.474   2.563  1.00  0.00     0.105 A 
HETATM   14  C   UNL     1      40.616 -14.273   3.323  1.00  0.00     0.056 A 
HETATM   15  H   UNL     1      41.491 -12.521   7.029  1.00  0.00     0.167 HD
ENDROOT
BRANCH   1  16
HETATM   16  C   UNL     1      41.717 -14.894   5.562  1.00  0.00     0.255 C 
HETATM   17  N   UNL     1      42.523 -15.743   4.848  1.00  0.00    -0.353 N 
HETATM   18  H   UNL     1      42.518 -15.721   3.836  1.00  0.00     0.163 HD
HETATM   19  O   UNL     1      41.616 -14.901   6.784  1.00  0.00    -0.268 OA
BRANCH  17  20
HETATM   20  C   UNL     1      43.427 -16.666   5.490  1.00  0.00     0.161 C 
BRANCH  20  21
HETATM   21  C   UNL     1      43.553 -17.927   4.677  1.00  0.00    -0.041 A 
HETATM   22  C   UNL     1      43.923 -19.135   5.289  1.00  0.00     0.009 A 
HETATM   23  C   UNL     1      44.091 -20.293   4.528  1.00  0.00     0.001 A 
HETATM   24  C   UNL     1      43.886 -20.257   3.150  1.00  0.00     0.000 A 
HETATM   25  C   UNL     1      43.516 -19.064   2.531  1.00  0.00     0.001 A 
HETATM   26  C   UNL     1      43.355 -17.903   3.290  1.00  0.00     0.009 A 
ENDBRANCH  20  21
ENDBRANCH  17  20
ENDBRANCH   1  16
BRANCH  13  27
HETATM   27  N   UNL     1      39.447 -13.729   1.263  1.00  0.00    -0.318 N 
HETATM   28  C   UNL     1      40.073 -13.348   0.093  1.00  0.00     0.256 C 
HETATM   29  O   UNL     1      41.110 -12.694   0.025  1.00  0.00    -0.267 OA
HETATM   30  H   UNL     1      38.647 -14.356   1.215  1.00  0.00     0.169 HD
BRANCH  28  31
HETATM   31  C   UNL     1      39.452 -13.830  -1.176  1.00  0.00     0.032 A 
HETATM   32  C   UNL     1      39.242 -15.190  -1.449  1.00  0.00     0.020 A 
HETATM   33  C   UNL     1      38.665 -15.576  -2.663  1.00  0.00     0.043 A 
HETATM   34  C   UNL     1      38.291 -14.608  -3.590  1.00  0.00     0.116 A 
HETATM   35  F   UNL     1      37.739 -14.984  -4.750  1.00  0.00    -0.206 F 
HETATM   36  C   UNL     1      38.475 -13.256  -3.327  1.00  0.00     0.043 A 
HETATM   37  C   UNL     1      39.053 -12.866  -2.117  1.00  0.00     0.020 A 
ENDBRANCH  28  31
ENDBRANCH  13  27
TORSDOF 5
ENDMDL
MODEL 6
REMARK VINA RESULT:      -9.8      3.543      8.864
REMARK  5 active torsions:
REMARK  status: ('A' for Active; 'I' for Inactive)
REMARK    1  A    between atoms: C_4  and  C_5 
REMARK    2  A    between atoms: C_5  and  N_6 
REMARK       I    between atoms: N_6  and  C_7 
REMARK    3  A    between atoms: C_7  and  C_8 
REMARK    4  A    between atoms: C_20  and  N_21 
REMARK       I    between atoms: N_21  and  C_22 
REMARK    5  A    between atoms: C_22  and  C_23 
ROOT
HETATM    1  C   UNL     1      42.313 -14.059   5.114  1.00  0.00     0.079 A 
HETATM    2  C   UNL     1      42.352 -12.864   5.723  1.00  0.00     0.131 A 
HETATM    3  N   UNL     1      41.731 -11.762   5.122  1.00  0.00    -0.259 N 
HETATM    4  C   UNL     1      41.997 -10.634   5.929  1.00  0.00     0.071 A 
HETATM    5  C   UNL     1      42.796 -11.090   7.004  1.00  0.00     0.061 A 
HETATM    6  C   UNL     1      43.209 -10.231   7.997  1.00  0.00     0.032 A 
HETATM    7  C   UNL     1      42.848  -8.884   7.876  1.00  0.00     0.002 A 
HETATM    8  C   UNL     1      42.075  -8.429   6.787  1.00  0.00     0.002 A 
HETATM    9  C   UNL     1      41.636  -9.311   5.794  1.00  0.00     0.032 A 
HETATM   10  N   UNL     1      42.934 -12.485   6.923  1.00  0.00    -0.339 N 
HETATM   11  C   UNL     1      41.023 -11.800   3.941  1.00  0.00     0.281 A 
HETATM   12  O   UNL     1      40.452 -10.857   3.391  1.00  0.00    -0.265 OA
HETATM   13  C   UNL     1      40.972 -13.164   3.271  1.00  0.00     0.105 A 
HETATM   14  C   UNL     1      41.624 -14.190   3.842  1.00  0.00     0.056 A 
HETATM   15  H   UNL     1      43.766 -12.975   7.234  1.00  0.00     0.167 HD
ENDROOT
BRANCH   1  16
HETATM   16  C   UNL     1      42.967 -15.225   5.774  1.00  0.00     0.255 C 
HETATM   17  N   UNL     1      43.567 -16.089   4.893  1.00  0.00    -0.353 N 
HETATM   18  H   UNL     1      43.508 -15.923   3.896  1.00  0.00     0.163 HD
HETATM   19  O   UNL     1      42.937 -15.388   6.989  1.00  0.00    -0.268 OA
BRANCH  17  20
HETATM   20  C   UNL     1      44.325 -17.234   5.334  1.00  0.00     0.161 C 
BRANCH  20  21
HETATM   21  C   UNL     1      44.088 -18.404   4.416  1.00  0.00    -0.041 A 
HETATM   22  C   UNL     1      43.687 -18.195   3.086  1.00  0.00     0.009 A 
HETATM   23  C   UNL     1      43.417 -19.278   2.248  1.00  0.00     0.001 A 
HETATM   24  C   UNL     1      43.550 -20.580   2.729  1.00  0.00     0.000 A 
HETATM   25  C   UNL     1      43.949 -20.799   4.046  1.00  0.00     0.001 A 
HETATM   26  C   UNL     1      44.213 -19.717   4.887  1.00  0.00     0.009 A 
ENDBRANCH  20  21
ENDBRANCH  17  20
ENDBRANCH   1  16
BRANCH  13  27
HETATM   27  N   UNL     1      40.236 -13.218   2.099  1.00  0.00    -0.318 N 
HETATM   28  C   UNL     1      40.670 -12.964   0.814  1.00  0.00     0.256 C 
HETATM   29  O   UNL     1      41.809 -12.627   0.505  1.00  0.00    -0.267 OA
HETATM   30  H   UNL     1      39.299 -13.589   2.242  1.00  0.00     0.169 HD
BRANCH  28  31
HETATM   31  C   UNL     1      39.670 -13.176  -0.274  1.00  0.00     0.032 A 
HETATM   32  C   UNL     1      39.682 -14.306  -1.105  1.00  0.00     0.020 A 
HETATM   33  C   UNL     1      38.723 -14.438  -2.114  1.00  0.00     0.043 A 
HETATM   34  C   UNL     1      37.755 -13.452  -2.283  1.00  0.00     0.116 A 
HETATM   35  F   UNL     1      36.840 -13.585  -3.251  1.00  0.00    -0.206 F 
HETATM   36  C   UNL     1      37.719 -12.336  -1.457  1.00  0.00     0.043 A 
HETATM   37  C   UNL     1      38.676 -12.198  -0.449  1.00  0.00     0.020 A 
ENDBRANCH  28  31
ENDBRANCH  13  27
TORSDOF 5
ENDMDL
MODEL 7
REMARK VINA RESULT:      -9.7      3.408      8.622
REMARK  5 active torsions:
REMARK  status: ('A' for Active; 'I' for Inactive)
REMARK    1  A    between atoms: C_4  and  C_5 
REMARK    2  A    between atoms: C_5  and  N_6 
REMARK       I    between atoms: N_6  and  C_7 
REMARK    3  A    between atoms: C_7  and  C_8 
REMARK    4  A    between atoms: C_20  and  N_21 
REMARK       I    between atoms: N_21  and  C_22 
REMARK    5  A    between atoms: C_22  and  C_23 
ROOT
HETATM    1  C   UNL     1      40.490 -12.428   4.877  1.00  0.00     0.079 A 
HETATM    2  C   UNL     1      39.801 -12.015   3.802  1.00  0.00     0.131 A 
HETATM    3  N   UNL     1      39.741 -12.829   2.664  1.00  0.00    -0.259 N 
HETATM    4  C   UNL     1      39.031 -12.117   1.672  1.00  0.00     0.071 A 
HETATM    5  C   UNL     1      38.687 -10.868   2.242  1.00  0.00     0.061 A 
HETATM    6  C   UNL     1      37.957  -9.941   1.535  1.00  0.00     0.032 A 
HETATM    7  C   UNL     1      37.609 -10.262   0.218  1.00  0.00     0.002 A 
HETATM    8  C   UNL     1      37.978 -11.498  -0.355  1.00  0.00     0.002 A 
HETATM    9  C   UNL     1      38.698 -12.447   0.376  1.00  0.00     0.032 A 
HETATM   10  N   UNL     1      39.083 -10.846   3.589  1.00  0.00    -0.339 N 
HETATM   11  C   UNL     1      40.311 -14.077   2.555  1.00  0.00     0.281 A 
HETATM   12  O   UNL     1      40.267 -14.826   1.578  1.00  0.00    -0.265 OA
HETATM   13  C   UNL     1      41.073 -14.541   3.786  1.00  0.00     0.105 A 
HETATM   14  C   UNL     1      41.160 -13.716   4.841  1.00  0.00     0.056 A 
HETATM   15  H   UNL     1      39.384 -10.000   4.061  1.00  0.00     0.167 HD
ENDROOT
BRANCH   1  16
HETATM   16  C   UNL     1      40.532 -11.556   6.085  1.00  0.00     0.255 C 
HETATM   17  N   UNL     1      41.787 -11.088   6.381  1.00  0.00    -0.353 N 
HETATM   18  H   UNL     1      42.581 -11.371   5.820  1.00  0.00     0.163 HD
HETATM   19  O   UNL     1      39.530 -11.314   6.750  1.00  0.00    -0.268 OA
BRANCH  17  20
HETATM   20  C   UNL     1      42.028 -10.163   7.461  1.00  0.00     0.161 C 
BRANCH  20  21
HETATM   21  C   UNL     1      43.507  -9.973   7.666  1.00  0.00    -0.041 A 
HETATM   22  C   UNL     1      43.990  -8.862   8.378  1.00  0.00     0.009 A 
HETATM   23  C   UNL     1      45.363  -8.656   8.524  1.00  0.00     0.001 A 
HETATM   24  C   UNL     1      46.266  -9.560   7.968  1.00  0.00     0.000 A 
HETATM   25  C   UNL     1      45.799 -10.667   7.262  1.00  0.00     0.001 A 
HETATM   26  C   UNL     1      44.426 -10.871   7.107  1.00  0.00     0.009 A 
ENDBRANCH  20  21
ENDBRANCH  17  20
ENDBRANCH   1  16
BRANCH  13  27
HETATM   27  N   UNL     1      41.622 -15.809   3.696  1.00  0.00    -0.318 N 
HETATM   28  C   UNL     1      42.811 -16.177   3.099  1.00  0.00     0.256 C 
HETATM   29  O   UNL     1      43.582 -15.413   2.526  1.00  0.00    -0.267 OA
HETATM   30  H   UNL     1      41.103 -16.501   4.233  1.00  0.00     0.169 HD
BRANCH  28  31
HETATM   31  C   UNL     1      43.194 -17.615   3.221  1.00  0.00     0.032 A 
HETATM   32  C   UNL     1      43.780 -18.148   4.379  1.00  0.00     0.020 A 
HETATM   33  C   UNL     1      44.126 -19.502   4.424  1.00  0.00     0.043 A 
HETATM   34  C   UNL     1      43.877 -20.317   3.324  1.00  0.00     0.116 A 
HETATM   35  F   UNL     1      44.211 -21.613   3.374  1.00  0.00    -0.206 F 
HETATM   36  C   UNL     1      43.281 -19.808   2.177  1.00  0.00     0.043 A 
HETATM   37  C   UNL     1      42.935 -18.457   2.126  1.00  0.00     0.020 A 
ENDBRANCH  28  31
ENDBRANCH  13  27
TORSDOF 5
ENDMDL
MODEL 8
REMARK VINA RESULT:      -9.7      1.805      5.444
REMARK  5 active torsions:
REMARK  status: ('A' for Active; 'I' for Inactive)
REMARK    1  A    between atoms: C_4  and  C_5 
REMARK    2  A    between atoms: C_5  and  N_6 
REMARK       I    between atoms: N_6  and  C_7 
REMARK    3  A    between atoms: C_7  and  C_8 
REMARK    4  A    between atoms: C_20  and  N_21 
REMARK       I    between atoms: N_21  and  C_22 
REMARK    5  A    between atoms: C_22  and  C_23 
ROOT
HETATM    1  C   UNL     1      41.971 -14.598   5.092  1.00  0.00     0.079 A 
HETATM    2  C   UNL     1      41.513 -14.349   3.855  1.00  0.00     0.131 A 
HETATM    3  N   UNL     1      41.179 -13.038   3.493  1.00  0.00    -0.259 N 
HETATM    4  C   UNL     1      40.654 -13.083   2.182  1.00  0.00     0.071 A 
HETATM    5  C   UNL     1      40.674 -14.442   1.788  1.00  0.00     0.061 A 
HETATM    6  C   UNL     1      40.249 -14.824   0.536  1.00  0.00     0.032 A 
HETATM    7  C   UNL     1      39.755 -13.826  -0.311  1.00  0.00     0.002 A 
HETATM    8  C   UNL     1      39.712 -12.476   0.097  1.00  0.00     0.002 A 
HETATM    9  C   UNL     1      40.168 -12.088   1.362  1.00  0.00     0.032 A 
HETATM   10  N   UNL     1      41.292 -15.208   2.789  1.00  0.00    -0.339 N 
HETATM   11  C   UNL     1      41.318 -11.934   4.304  1.00  0.00     0.281 A 
HETATM   12  O   UNL     1      41.050 -10.767   4.015  1.00  0.00    -0.265 OA
HETATM   13  C   UNL     1      41.854 -12.228   5.696  1.00  0.00     0.105 A 
HETATM   14  C   UNL     1      42.113 -13.502   6.033  1.00  0.00     0.056 A 
HETATM   15  H   UNL     1      41.032 -16.169   2.986  1.00  0.00     0.167 HD
ENDROOT
BRANCH   1  16
HETATM   16  C   UNL     1      42.335 -15.997   5.457  1.00  0.00     0.255 C 
HETATM   17  N   UNL     1      43.633 -16.322   5.154  1.00  0.00    -0.353 N 
HETATM   18  H   UNL     1      44.233 -15.650   4.693  1.00  0.00     0.163 HD
HETATM   19  O   UNL     1      41.527 -16.772   5.956  1.00  0.00    -0.268 OA
BRANCH  17  20
HETATM   20  C   UNL     1      44.207 -17.599   5.503  1.00  0.00     0.161 C 
BRANCH  20  21
HETATM   21  C   UNL     1      43.983 -18.593   4.395  1.00  0.00    -0.041 A 
HETATM   22  C   UNL     1      43.593 -18.160   3.117  1.00  0.00     0.009 A 
HETATM   23  C   UNL     1      43.335 -19.083   2.103  1.00  0.00     0.001 A 
HETATM   24  C   UNL     1      43.469 -20.448   2.354  1.00  0.00     0.000 A 
HETATM   25  C   UNL     1      43.858 -20.890   3.617  1.00  0.00     0.001 A 
HETATM   26  C   UNL     1      44.109 -19.968   4.635  1.00  0.00     0.009 A 
ENDBRANCH  20  21
ENDBRANCH  17  20
ENDBRANCH   1  16
BRANCH  13  27
HETATM   27  N   UNL     1      42.028 -11.119   6.507  1.00  0.00    -0.318 N 
HETATM   28  C   UNL     1      43.210 -10.489   6.839  1.00  0.00     0.256 C 
HETATM   29  O   UNL     1      44.326 -10.834   6.462  1.00  0.00    -0.267 OA
HETATM   30  H   UNL     1      41.145 -10.696   6.788  1.00  0.00     0.169 HD
BRANCH  28  31
HETATM   31  C   UNL     1      43.091  -9.260   7.677  1.00  0.00     0.032 A 
HETATM   32  C   UNL     1      41.881  -8.569   7.842  1.00  0.00     0.020 A 
HETATM   33  C   UNL     1      41.840  -7.416   8.633  1.00  0.00     0.043 A 
HETATM   34  C   UNL     1      42.997  -6.966   9.261  1.00  0.00     0.116 A 
HETATM   35  F   UNL     1      42.951  -5.861  10.016  1.00  0.00    -0.206 F 
HETATM   36  C   UNL     1      44.199  -7.649   9.122  1.00  0.00     0.043 A 
HETATM   37  C   UNL     1      44.246  -8.800   8.332  1.00  0.00     0.020 A 
ENDBRANCH  28  31
ENDBRANCH  13  27
TORSDOF 5
ENDMDL
MODEL 9
REMARK VINA RESULT:      -9.5      1.483      2.107
REMARK  5 active torsions:
REMARK  status: ('A' for Active; 'I' for Inactive)
REMARK    1  A    between atoms: C_4  and  C_5 
REMARK    2  A    between atoms: C_5  and  N_6 
REMARK       I    between atoms: N_6  and  C_7 
REMARK    3  A    between atoms: C_7  and  C_8 
REMARK    4  A    between atoms: C_20  and  N_21 
REMARK       I    between atoms: N_21  and  C_22 
REMARK    5  A    between atoms: C_22  and  C_23 
ROOT
HETATM    1  C   UNL     1      42.191 -14.152   2.831  1.00  0.00     0.079 A 
HETATM    2  C   UNL     1      42.537 -15.438   2.996  1.00  0.00     0.131 A 
HETATM    3  N   UNL     1      43.199 -15.832   4.164  1.00  0.00    -0.259 N 
HETATM    4  C   UNL     1      43.509 -17.204   4.033  1.00  0.00     0.071 A 
HETATM    5  C   UNL     1      43.032 -17.603   2.762  1.00  0.00     0.061 A 
HETATM    6  C   UNL     1      43.154 -18.905   2.334  1.00  0.00     0.032 A 
HETATM    7  C   UNL     1      43.810 -19.805   3.182  1.00  0.00     0.002 A 
HETATM    8  C   UNL     1      44.310 -19.395   4.437  1.00  0.00     0.002 A 
HETATM    9  C   UNL     1      44.160 -18.076   4.878  1.00  0.00     0.032 A 
HETATM   10  N   UNL     1      42.348 -16.533   2.164  1.00  0.00    -0.339 N 
HETATM   11  C   UNL     1      43.505 -15.000   5.218  1.00  0.00     0.281 A 
HETATM   12  O   UNL     1      44.071 -15.313   6.266  1.00  0.00    -0.265 OA
HETATM   13  C   UNL     1      43.092 -13.550   5.027  1.00  0.00     0.105 A 
HETATM   14  C   UNL     1      42.509 -13.190   3.872  1.00  0.00     0.056 A 
HETATM   15  H   UNL     1      42.331 -16.382   1.161  1.00  0.00     0.167 HD
ENDROOT
BRANCH   1  16
HETATM   16  C   UNL     1      41.475 -13.751   1.586  1.00  0.00     0.255 C 
HETATM   17  N   UNL     1      41.537 -12.406   1.327  1.00  0.00    -0.353 N 
HETATM   18  H   UNL     1      42.006 -11.783   1.972  1.00  0.00     0.163 HD
HETATM   19  O   UNL     1      40.873 -14.562   0.891  1.00  0.00    -0.268 OA
BRANCH  17  20
HETATM   20  C   UNL     1      40.979 -11.828   0.129  1.00  0.00     0.161 C 
BRANCH  20  21
HETATM   21  C   UNL     1      39.531 -11.475   0.343  1.00  0.00    -0.041 A 
HETATM   22  C   UNL     1      38.613 -11.561  -0.716  1.00  0.00     0.009 A 
HETATM   23  C   UNL     1      37.281 -11.184  -0.532  1.00  0.00     0.001 A 
HETATM   24  C   UNL     1      36.853 -10.723   0.712  1.00  0.00     0.000 A 
HETATM   25  C   UNL     1      37.755 -10.635   1.771  1.00  0.00     0.001 A 
HETATM   26  C   UNL     1      39.089 -11.005   1.587  1.00  0.00     0.009 A 
ENDBRANCH  20  21
ENDBRANCH  17  20
ENDBRANCH   1  16
BRANCH  13  27
HETATM   27  N   UNL     1      43.367 -12.712   6.095  1.00  0.00    -0.318 N 
HETATM   28  C   UNL     1      44.256 -11.657   6.138  1.00  0.00     0.256 C 
HETATM   29  O   UNL     1      44.972 -11.297   5.207  1.00  0.00    -0.267 OA
HETATM   30  H   UNL     1      42.747 -12.869   6.887  1.00  0.00     0.169 HD
BRANCH  28  31
HETATM   31  C   UNL     1      44.292 -10.874   7.408  1.00  0.00     0.032 A 
HETATM   32  C   UNL     1      45.451 -10.747   8.188  1.00  0.00     0.020 A 
HETATM   33  C   UNL     1      45.413 -10.008   9.375  1.00  0.00     0.043 A 
HETATM   34  C   UNL     1      44.229  -9.393   9.770  1.00  0.00     0.116 A 
HETATM   35  F   UNL     1      44.200  -8.688  10.908  1.00  0.00    -0.206 F 
HETATM   36  C   UNL     1      43.078  -9.495   8.999  1.00  0.00     0.043 A 
HETATM   37  C   UNL     1      43.110 -10.233   7.814  1.00  0.00     0.020 A 
ENDBRANCH  28  31
ENDBRANCH  13  27
TORSDOF 5
ENDMDL
MODEL 10
REMARK VINA RESULT:      -9.3      3.937     10.121
REMARK  5 active torsions:
REMARK  status: ('A' for Active; 'I' for Inactive)
REMARK    1  A    between atoms: C_4  and  C_5 
REMARK    2  A    between atoms: C_5  and  N_6 
REMARK       I    between atoms: N_6  and  C_7 
REMARK    3  A    between atoms: C_7  and  C_8 
REMARK    4  A    between atoms: C_20  and  N_21 
REMARK       I    between atoms: N_21  and  C_22 
REMARK    5  A    between atoms: C_22  and  C_23 
ROOT
HETATM    1  C   UNL     1      42.445 -10.128   7.354  1.00  0.00     0.079 A 
HETATM    2  C   UNL     1      41.334  -9.433   7.063  1.00  0.00     0.131 A 
HETATM    3  N   UNL     1      40.499  -9.867   6.027  1.00  0.00    -0.259 N 
HETATM    4  C   UNL     1      39.465  -8.913   5.891  1.00  0.00     0.071 A 
HETATM    5  C   UNL     1      39.717  -7.907   6.854  1.00  0.00     0.061 A 
HETATM    6  C   UNL     1      38.866  -6.836   7.001  1.00  0.00     0.032 A 
HETATM    7  C   UNL     1      37.772  -6.755   6.132  1.00  0.00     0.002 A 
HETATM    8  C   UNL     1      37.541  -7.747   5.154  1.00  0.00     0.002 A 
HETATM    9  C   UNL     1      38.395  -8.848   5.026  1.00  0.00     0.032 A 
HETATM   10  N   UNL     1      40.820  -8.280   7.639  1.00  0.00    -0.339 N 
HETATM   11  C   UNL     1      40.696 -11.004   5.276  1.00  0.00     0.281 A 
HETATM   12  O   UNL     1      39.976 -11.424   4.369  1.00  0.00    -0.265 OA
HETATM   13  C   UNL     1      41.948 -11.791   5.626  1.00  0.00     0.105 A 
HETATM   14  C   UNL     1      42.760 -11.321   6.587  1.00  0.00     0.056 A 
HETATM   15  H   UNL     1      41.466  -7.606   8.036  1.00  0.00     0.167 HD
ENDROOT
BRANCH   1  16
HETATM   16  C   UNL     1      43.317  -9.660   8.469  1.00  0.00     0.255 C 
HETATM   17  N   UNL     1      43.334 -10.511   9.545  1.00  0.00    -0.353 N 
HETATM   18  H   UNL     1      42.760 -11.345   9.545  1.00  0.00     0.163 HD
HETATM   19  O   UNL     1      43.931  -8.600   8.416  1.00  0.00    -0.268 OA
BRANCH  17  20
HETATM   20  C   UNL     1      44.179 -10.283  10.692  1.00  0.00     0.161 C 
BRANCH  20  21
HETATM   21  C   UNL     1      43.397  -9.616  11.793  1.00  0.00    -0.041 A 
HETATM   22  C   UNL     1      42.329 -10.284  12.414  1.00  0.00     0.009 A 
HETATM   23  C   UNL     1      41.571  -9.649  13.398  1.00  0.00     0.001 A 
HETATM   24  C   UNL     1      41.875  -8.342  13.775  1.00  0.00     0.000 A 
HETATM   25  C   UNL     1      42.934  -7.669  13.168  1.00  0.00     0.001 A 
HETATM   26  C   UNL     1      43.689  -8.301  12.178  1.00  0.00     0.009 A 
ENDBRANCH  20  21
ENDBRANCH  17  20
ENDBRANCH   1  16
BRANCH  13  27
HETATM   27  N   UNL     1      42.137 -12.953   4.897  1.00  0.00    -0.318 N 
HETATM   28  C   UNL     1      42.955 -13.142   3.802  1.00  0.00     0.256 C 
HETATM   29  O   UNL     1      43.652 -12.276   3.282  1.00  0.00    -0.267 OA
HETATM   30  H   UNL     1      41.675 -13.758   5.315  1.00  0.00     0.169 HD
BRANCH  28  31
HETATM   31  C   UNL     1      43.021 -14.531   3.259  1.00  0.00     0.032 A 
HETATM   32  C   UNL     1      43.254 -14.805   1.903  1.00  0.00     0.020 A 
HETATM   33  C   UNL     1      43.293 -16.130   1.457  1.00  0.00     0.043 A 
HETATM   34  C   UNL     1      43.110 -17.171   2.363  1.00  0.00     0.116 A 
HETATM   35  F   UNL     1      43.148 -18.437   1.929  1.00  0.00    -0.206 F 
HETATM   36  C   UNL     1      42.896 -16.916   3.712  1.00  0.00     0.043 A 
HETATM   37  C   UNL     1      42.855 -15.595   4.162  1.00  0.00     0.020 A 
ENDBRANCH  28  31
ENDBRANCH  13  27
TORSDOF 5
ENDMDL
