MODEL 1
REMARK VINA RESULT:      -8.0      0.000      0.000
REMARK  7 active torsions:
REMARK  status: ('A' for Active; 'I' for Inactive)
REMARK    1  A    between atoms: C_7  and  C_8 
REMARK    2  A    between atoms: C_8  and  N_9 
REMARK       I    between atoms: N_9  and  C_10 
REMARK       I    between atoms: C_10  and  N_11 
REMARK    3  A    between atoms: N_11  and  C_12 
REMARK    4  A    between atoms: C_12  and  C_13 
REMARK    5  A    between atoms: C_13  and  C_14 
REMARK    6  A    between atoms: C_14  and  O_15 
REMARK    7  A    between atoms: C_14  and  C_16 
ROOT
HETATM    1  N   UNL     1      43.641 -12.702   6.786  1.00  0.00    -0.337 N 
HETATM    2  C   UNL     1      43.652 -11.425   7.290  1.00  0.00     0.316 C 
HETATM    3  N   UNL     1      44.774 -11.173   8.028  1.00  0.00    -0.339 N 
HETATM    4  O   UNL     1      42.797 -10.588   7.020  1.00  0.00    -0.247 OA
HETATM    5  H   UNL     1      44.219 -13.356   7.294  1.00  0.00     0.164 HD
HETATM    6  H   UNL     1      45.217 -11.963   8.476  1.00  0.00     0.164 HD
ENDROOT
BRANCH   1   7
HETATM    7  C   UNL     1      42.478 -13.250   6.116  1.00  0.00     0.183 C 
BRANCH   7   8
HETATM    8  C   UNL     1      42.798 -14.490   5.359  1.00  0.00     0.044 A 
HETATM    9  N   UNL     1      43.239 -15.649   5.980  1.00  0.00    -0.343 N 
HETATM   10  C   UNL     1      43.487 -16.604   5.098  1.00  0.00     0.112 A 
HETATM   11  H   UNL     1      43.290 -15.741   7.001  1.00  0.00     0.167 HD
HETATM   12  N   UNL     1      43.218 -16.108   3.873  1.00  0.00    -0.311 N 
HETATM   13  C   UNL     1      43.974 -17.989   5.293  1.00  0.00     0.049 A 
HETATM   14  C   UNL     1      43.376 -16.862   2.711  1.00  0.00     0.014 A 
HETATM   15  C   UNL     1      42.782 -14.794   4.015  1.00  0.00     0.125 A 
HETATM   16  C   UNL     1      43.059 -16.286   1.365  1.00  0.00     0.068 C 
HETATM   17  C   UNL     1      43.824 -18.128   2.877  1.00  0.00     0.025 A 
HETATM   18  C   UNL     1      44.134 -18.716   4.176  1.00  0.00     0.006 A 
ENDBRANCH   7   8
ENDBRANCH   1   7
BRANCH   3  19
HETATM   19  C   UNL     1      45.007  -9.878   8.659  1.00  0.00     0.085 C 
HETATM   20  C   UNL     1      46.295  -9.263   8.118  1.00  0.00     0.032 C 
BRANCH  19  21
HETATM   21  C   UNL     1      44.919  -9.927  10.200  1.00  0.00     0.063 C 
BRANCH  21  22
HETATM   22  C   UNL     1      43.577 -10.280  10.852  1.00  0.00     0.177 C 
BRANCH  22  23
HETATM   23  O   UNL     1      42.510 -10.158   9.915  1.00  0.00    -0.389 OA
HETATM   24  H   UNL     1      42.755 -10.683   9.134  1.00  0.00     0.210 HD
ENDBRANCH  22  23
BRANCH  22  25
HETATM   25  C   UNL     1      43.228  -9.459  12.045  1.00  0.00     0.081 A 
HETATM   26  O   UNL     1      42.402 -10.038  12.969  1.00  0.00    -0.324 OA
HETATM   27  C   UNL     1      42.154  -9.105  13.924  1.00  0.00     0.142 A 
HETATM   28  C   UNL     1      42.826  -7.940  13.646  1.00  0.00     0.027 A 
HETATM   29  C   UNL     1      43.520  -8.166  12.434  1.00  0.00     0.037 A 
ENDBRANCH  22  25
ENDBRANCH  21  22
ENDBRANCH  19  21
ENDBRANCH   3  19
TORSDOF 7
ENDMDL
MODEL 2
REMARK VINA RESULT:      -8.0      0.630      1.605
REMARK  7 active torsions:
REMARK  status: ('A' for Active; 'I' for Inactive)
REMARK    1  A    between atoms: C_7  and  C_8 
REMARK    2  A    between atoms: C_8  and  N_9 
REMARK       I    between atoms: N_9  and  C_10 
REMARK       I    between atoms: C_10  and  N_11 
REMARK    3  A    between atoms: N_11  and  C_12 
REMARK    4  A    between atoms: C_12  and  C_13 
REMARK    5  A    between atoms: C_13  and  C_14 
REMARK    6  A    between atoms: C_14  and  O_15 
REMARK    7  A    between atoms: C_14  and  C_16 
ROOT
HETATM    1  N   UNL     1      43.490 -12.607   6.836  1.00  0.00    -0.337 N 
HETATM    2  C   UNL     1      43.523 -11.328   7.334  1.00  0.00     0.316 C 
HETATM    3  N   UNL     1      44.595 -11.125   8.156  1.00  0.00    -0.339 N 
HETATM    4  O   UNL     1      42.733 -10.454   6.993  1.00  0.00    -0.247 OA
HETATM    5  H   UNL     1      43.993 -13.284   7.390  1.00  0.00     0.164 HD
HETATM    6  H   UNL     1      44.962 -11.932   8.641  1.00  0.00     0.164 HD
ENDROOT
BRANCH   1   7
HETATM    7  C   UNL     1      42.357 -13.104   6.079  1.00  0.00     0.183 C 
BRANCH   7   8
HETATM    8  C   UNL     1      42.691 -14.334   5.312  1.00  0.00     0.044 A 
HETATM    9  N   UNL     1      42.683 -14.373   3.925  1.00  0.00    -0.343 N 
HETATM   10  C   UNL     1      42.982 -15.580   3.475  1.00  0.00     0.112 A 
HETATM   11  H   UNL     1      42.526 -13.536   3.351  1.00  0.00     0.167 HD
HETATM   12  N   UNL     1      43.198 -16.373   4.544  1.00  0.00    -0.311 N 
HETATM   13  C   UNL     1      43.088 -16.090   2.088  1.00  0.00     0.049 A 
HETATM   14  C   UNL     1      43.537 -17.720   4.420  1.00  0.00     0.014 A 
HETATM   15  C   UNL     1      43.027 -15.614   5.698  1.00  0.00     0.125 A 
HETATM   16  C   UNL     1      43.779 -18.572   5.628  1.00  0.00     0.068 C 
HETATM   17  C   UNL     1      43.632 -18.197   3.158  1.00  0.00     0.025 A 
HETATM   18  C   UNL     1      43.407 -17.389   1.964  1.00  0.00     0.006 A 
ENDBRANCH   7   8
ENDBRANCH   1   7
BRANCH   3  19
HETATM   19  C   UNL     1      44.841  -9.838   8.798  1.00  0.00     0.085 C 
HETATM   20  C   UNL     1      46.116  -9.215   8.238  1.00  0.00     0.032 C 
BRANCH  19  21
HETATM   21  C   UNL     1      44.786  -9.906  10.341  1.00  0.00     0.063 C 
BRANCH  21  22
HETATM   22  C   UNL     1      43.444 -10.209  11.018  1.00  0.00     0.177 C 
BRANCH  22  23
HETATM   23  O   UNL     1      42.366 -10.066  10.098  1.00  0.00    -0.389 OA
HETATM   24  H   UNL     1      42.748 -10.099   9.204  1.00  0.00     0.210 HD
ENDBRANCH  22  23
BRANCH  22  25
HETATM   25  C   UNL     1      43.140  -9.364  12.207  1.00  0.00     0.081 A 
HETATM   26  O   UNL     1      42.337  -9.917  13.166  1.00  0.00    -0.324 OA
HETATM   27  C   UNL     1      42.127  -8.965  14.111  1.00  0.00     0.142 A 
HETATM   28  C   UNL     1      42.803  -7.812  13.791  1.00  0.00     0.027 A 
HETATM   29  C   UNL     1      43.457  -8.067  12.563  1.00  0.00     0.037 A 
ENDBRANCH  22  25
ENDBRANCH  21  22
ENDBRANCH  19  21
ENDBRANCH   3  19
TORSDOF 7
ENDMDL
MODEL 3
REMARK VINA RESULT:      -7.9      7.462      9.792
REMARK  7 active torsions:
REMARK  status: ('A' for Active; 'I' for Inactive)
REMARK    1  A    between atoms: C_7  and  C_8 
REMARK    2  A    between atoms: C_8  and  N_9 
REMARK       I    between atoms: N_9  and  C_10 
REMARK       I    between atoms: C_10  and  N_11 
REMARK    3  A    between atoms: N_11  and  C_12 
REMARK    4  A    between atoms: C_12  and  C_13 
REMARK    5  A    between atoms: C_13  and  C_14 
REMARK    6  A    between atoms: C_14  and  O_15 
REMARK    7  A    between atoms: C_14  and  C_16 
ROOT
HETATM    1  N   UNL     1      42.084 -14.630   0.784  1.00  0.00    -0.337 N 
HETATM    2  C   UNL     1      40.757 -14.516   0.455  1.00  0.00     0.316 C 
HETATM    3  N   UNL     1      40.569 -14.404  -0.894  1.00  0.00    -0.339 N 
HETATM    4  O   UNL     1      39.851 -14.605   1.277  1.00  0.00    -0.247 OA
HETATM    5  H   UNL     1      42.720 -14.264   0.090  1.00  0.00     0.164 HD
HETATM    6  H   UNL     1      41.323 -13.999  -1.431  1.00  0.00     0.164 HD
ENDROOT
BRANCH   1   7
HETATM    7  C   UNL     1      42.537 -14.592   2.161  1.00  0.00     0.183 C 
BRANCH   7   8
HETATM    8  C   UNL     1      42.868 -15.946   2.681  1.00  0.00     0.044 A 
HETATM    9  N   UNL     1      43.153 -16.182   4.018  1.00  0.00    -0.343 N 
HETATM   10  C   UNL     1      43.446 -17.454   4.232  1.00  0.00     0.112 A 
HETATM   11  H   UNL     1      43.072 -15.452   4.736  1.00  0.00     0.167 HD
HETATM   12  N   UNL     1      43.362 -18.096   3.049  1.00  0.00    -0.311 N 
HETATM   13  C   UNL     1      43.814 -18.159   5.481  1.00  0.00     0.049 A 
HETATM   14  C   UNL     1      43.612 -19.462   2.921  1.00  0.00     0.014 A 
HETATM   15  C   UNL     1      42.997 -17.176   2.072  1.00  0.00     0.125 A 
HETATM   16  C   UNL     1      43.501 -20.149   1.594  1.00  0.00     0.068 C 
HETATM   17  C   UNL     1      43.954 -20.115   4.055  1.00  0.00     0.025 A 
HETATM   18  C   UNL     1      44.064 -19.473   5.361  1.00  0.00     0.006 A 
ENDBRANCH   7   8
ENDBRANCH   1   7
BRANCH   3  19
HETATM   19  C   UNL     1      39.239 -14.276  -1.479  1.00  0.00     0.085 C 
HETATM   20  C   UNL     1      38.926 -15.505  -2.326  1.00  0.00     0.032 C 
BRANCH  19  21
HETATM   21  C   UNL     1      39.018 -12.928  -2.200  1.00  0.00     0.063 C 
BRANCH  21  22
HETATM   22  C   UNL     1      40.180 -12.315  -2.990  1.00  0.00     0.177 C 
BRANCH  22  23
HETATM   23  O   UNL     1      41.186 -13.289  -3.253  1.00  0.00    -0.389 OA
HETATM   24  H   UNL     1      40.804 -13.934  -3.873  1.00  0.00     0.210 HD
ENDBRANCH  22  23
BRANCH  22  25
HETATM   25  C   UNL     1      40.837 -11.151  -2.332  1.00  0.00     0.081 A 
HETATM   26  O   UNL     1      41.203 -11.310  -1.023  1.00  0.00    -0.324 OA
HETATM   27  C   UNL     1      41.707 -10.122  -0.601  1.00  0.00     0.142 A 
HETATM   28  C   UNL     1      41.697  -9.204  -1.623  1.00  0.00     0.027 A 
HETATM   29  C   UNL     1      41.136  -9.865  -2.741  1.00  0.00     0.037 A 
ENDBRANCH  22  25
ENDBRANCH  21  22
ENDBRANCH  19  21
ENDBRANCH   3  19
TORSDOF 7
ENDMDL
MODEL 4
REMARK VINA RESULT:      -7.8      4.654      7.340
REMARK  7 active torsions:
REMARK  status: ('A' for Active; 'I' for Inactive)
REMARK    1  A    between atoms: C_7  and  C_8 
REMARK    2  A    between atoms: C_8  and  N_9 
REMARK       I    between atoms: N_9  and  C_10 
REMARK       I    between atoms: C_10  and  N_11 
REMARK    3  A    between atoms: N_11  and  C_12 
REMARK    4  A    between atoms: C_12  and  C_13 
REMARK    5  A    between atoms: C_13  and  C_14 
REMARK    6  A    between atoms: C_14  and  O_15 
REMARK    7  A    between atoms: C_14  and  C_16 
ROOT
HETATM    1  N   UNL     1      42.317 -14.674   7.142  1.00  0.00    -0.337 N 
HETATM    2  C   UNL     1      42.019 -13.619   6.316  1.00  0.00     0.316 C 
HETATM    3  N   UNL     1      40.709 -13.244   6.414  1.00  0.00    -0.339 N 
HETATM    4  O   UNL     1      42.863 -13.029   5.649  1.00  0.00    -0.247 OA
HETATM    5  H   UNL     1      41.521 -15.237   7.405  1.00  0.00     0.164 HD
HETATM    6  H   UNL     1      40.046 -13.956   6.684  1.00  0.00     0.164 HD
ENDROOT
BRANCH   1   7
HETATM    7  C   UNL     1      43.598 -15.351   7.087  1.00  0.00     0.183 C 
BRANCH   7   8
HETATM    8  C   UNL     1      43.633 -16.403   6.035  1.00  0.00     0.044 A 
HETATM    9  N   UNL     1      43.320 -16.141   4.709  1.00  0.00    -0.343 N 
HETATM   10  C   UNL     1      43.392 -17.236   3.971  1.00  0.00     0.112 A 
HETATM   11  H   UNL     1      43.127 -15.192   4.365  1.00  0.00     0.167 HD
HETATM   12  N   UNL     1      43.754 -18.251   4.782  1.00  0.00    -0.311 N 
HETATM   13  C   UNL     1      43.144 -17.439   2.525  1.00  0.00     0.049 A 
HETATM   14  C   UNL     1      43.922 -19.555   4.316  1.00  0.00     0.014 A 
HETATM   15  C   UNL     1      43.915 -17.751   6.070  1.00  0.00     0.125 A 
HETATM   16  C   UNL     1      44.335 -20.659   5.241  1.00  0.00     0.068 C 
HETATM   17  C   UNL     1      43.693 -19.753   2.998  1.00  0.00     0.025 A 
HETATM   18  C   UNL     1      43.296 -18.695   2.075  1.00  0.00     0.006 A 
ENDBRANCH   7   8
ENDBRANCH   1   7
BRANCH   3  19
HETATM   19  C   UNL     1      40.164 -12.139   5.632  1.00  0.00     0.085 C 
HETATM   20  C   UNL     1      39.305 -11.248   6.524  1.00  0.00     0.032 C 
BRANCH  19  21
HETATM   21  C   UNL     1      39.472 -12.598   4.329  1.00  0.00     0.063 C 
BRANCH  21  22
HETATM   22  C   UNL     1      40.279 -12.600   3.026  1.00  0.00     0.177 C 
BRANCH  22  23
HETATM   23  O   UNL     1      39.873 -11.532   2.175  1.00  0.00    -0.389 OA
HETATM   24  H   UNL     1      40.523 -10.816   2.285  1.00  0.00     0.210 HD
ENDBRANCH  22  23
BRANCH  22  25
HETATM   25  C   UNL     1      40.194 -13.863   2.240  1.00  0.00     0.081 A 
HETATM   26  O   UNL     1      40.232 -13.743   0.878  1.00  0.00    -0.324 OA
HETATM   27  C   UNL     1      40.066 -14.988   0.361  1.00  0.00     0.142 A 
HETATM   28  C   UNL     1      39.946 -15.915   1.369  1.00  0.00     0.027 A 
HETATM   29  C   UNL     1      40.028 -15.191   2.581  1.00  0.00     0.037 A 
ENDBRANCH  22  25
ENDBRANCH  21  22
ENDBRANCH  19  21
ENDBRANCH   3  19
TORSDOF 7
ENDMDL
MODEL 5
REMARK VINA RESULT:      -7.7      3.719      6.195
REMARK  7 active torsions:
REMARK  status: ('A' for Active; 'I' for Inactive)
REMARK    1  A    between atoms: C_7  and  C_8 
REMARK    2  A    between atoms: C_8  and  N_9 
REMARK       I    between atoms: N_9  and  C_10 
REMARK       I    between atoms: C_10  and  N_11 
REMARK    3  A    between atoms: N_11  and  C_12 
REMARK    4  A    between atoms: C_12  and  C_13 
REMARK    5  A    between atoms: C_13  and  C_14 
REMARK    6  A    between atoms: C_14  and  O_15 
REMARK    7  A    between atoms: C_14  and  C_16 
ROOT
HETATM    1  N   UNL     1      42.405 -14.487   7.169  1.00  0.00    -0.337 N 
HETATM    2  C   UNL     1      43.082 -13.377   6.731  1.00  0.00     0.316 C 
HETATM    3  N   UNL     1      42.242 -12.433   6.213  1.00  0.00    -0.339 N 
HETATM    4  O   UNL     1      44.290 -13.224   6.883  1.00  0.00    -0.247 OA
HETATM    5  H   UNL     1      41.499 -14.619   6.743  1.00  0.00     0.164 HD
HETATM    6  H   UNL     1      41.372 -12.760   5.816  1.00  0.00     0.164 HD
ENDROOT
BRANCH   1   7
HETATM    7  C   UNL     1      43.098 -15.686   7.601  1.00  0.00     0.183 C 
BRANCH   7   8
HETATM    8  C   UNL     1      43.257 -16.671   6.498  1.00  0.00     0.044 A 
HETATM    9  N   UNL     1      43.535 -18.011   6.729  1.00  0.00    -0.343 N 
HETATM   10  C   UNL     1      43.661 -18.679   5.594  1.00  0.00     0.112 A 
HETATM   11  H   UNL     1      43.565 -18.412   7.674  1.00  0.00     0.167 HD
HETATM   12  N   UNL     1      43.470 -17.808   4.584  1.00  0.00    -0.311 N 
HETATM   13  C   UNL     1      43.957 -20.109   5.350  1.00  0.00     0.049 A 
HETATM   14  C   UNL     1      43.536 -18.191   3.244  1.00  0.00     0.014 A 
HETATM   15  C   UNL     1      43.212 -16.553   5.125  1.00  0.00     0.125 A 
HETATM   16  C   UNL     1      43.310 -17.200   2.143  1.00  0.00     0.068 C 
HETATM   17  C   UNL     1      43.811 -19.495   3.009  1.00  0.00     0.025 A 
HETATM   18  C   UNL     1      44.029 -20.482   4.062  1.00  0.00     0.006 A 
ENDBRANCH   7   8
ENDBRANCH   1   7
BRANCH   3  19
HETATM   19  C   UNL     1      42.737 -11.164   5.690  1.00  0.00     0.085 C 
HETATM   20  C   UNL     1      42.684 -10.098   6.779  1.00  0.00     0.032 C 
BRANCH  19  21
HETATM   21  C   UNL     1      42.070 -10.753   4.358  1.00  0.00     0.063 C 
BRANCH  21  22
HETATM   22  C   UNL     1      42.518 -11.443   3.064  1.00  0.00     0.177 C 
BRANCH  22  23
HETATM   23  O   UNL     1      42.487 -10.535   1.967  1.00  0.00    -0.389 OA
HETATM   24  H   UNL     1      41.553 -10.325   1.796  1.00  0.00     0.210 HD
ENDBRANCH  22  23
BRANCH  22  25
HETATM   25  C   UNL     1      41.716 -12.640   2.685  1.00  0.00     0.081 A 
HETATM   26  O   UNL     1      40.704 -12.997   3.533  1.00  0.00    -0.324 OA
HETATM   27  C   UNL     1      40.158 -14.140   3.046  1.00  0.00     0.142 A 
HETATM   28  C   UNL     1      40.784 -14.516   1.882  1.00  0.00     0.027 A 
HETATM   29  C   UNL     1      41.790 -13.549   1.647  1.00  0.00     0.037 A 
ENDBRANCH  22  25
ENDBRANCH  21  22
ENDBRANCH  19  21
ENDBRANCH   3  19
TORSDOF 7
ENDMDL
MODEL 6
REMARK VINA RESULT:      -7.4      2.570      9.999
REMARK  7 active torsions:
REMARK  status: ('A' for Active; 'I' for Inactive)
REMARK    1  A    between atoms: C_7  and  C_8 
REMARK    2  A    between atoms: C_8  and  N_9 
REMARK       I    between atoms: N_9  and  C_10 
REMARK       I    between atoms: C_10  and  N_11 
REMARK    3  A    between atoms: N_11  and  C_12 
REMARK    4  A    between atoms: C_12  and  C_13 
REMARK    5  A    between atoms: C_13  and  C_14 
REMARK    6  A    between atoms: C_14  and  O_15 
REMARK    7  A    between atoms: C_14  and  C_16 
ROOT
HETATM    1  N   UNL     1      43.401 -10.927   8.434  1.00  0.00    -0.337 N 
HETATM    2  C   UNL     1      43.873 -11.835   7.519  1.00  0.00     0.316 C 
HETATM    3  N   UNL     1      42.864 -12.423   6.810  1.00  0.00    -0.339 N 
HETATM    4  O   UNL     1      45.068 -12.014   7.305  1.00  0.00    -0.247 OA
HETATM    5  H   UNL     1      42.442 -11.074   8.712  1.00  0.00     0.164 HD
HETATM    6  H   UNL     1      41.963 -12.490   7.263  1.00  0.00     0.164 HD
ENDROOT
BRANCH   1   7
HETATM    7  C   UNL     1      44.271 -10.304   9.413  1.00  0.00     0.183 C 
BRANCH   7   8
HETATM    8  C   UNL     1      43.530  -9.873  10.629  1.00  0.00     0.044 A 
HETATM    9  N   UNL     1      42.319 -10.438  11.003  1.00  0.00    -0.343 N 
HETATM   10  C   UNL     1      41.840  -9.871  12.098  1.00  0.00     0.112 A 
HETATM   11  H   UNL     1      41.908 -11.238  10.507  1.00  0.00     0.167 HD
HETATM   12  N   UNL     1      42.716  -8.920  12.481  1.00  0.00    -0.311 N 
HETATM   13  C   UNL     1      40.594 -10.137  12.852  1.00  0.00     0.049 A 
HETATM   14  C   UNL     1      42.511  -8.127  13.610  1.00  0.00     0.014 A 
HETATM   15  C   UNL     1      43.778  -8.910  11.582  1.00  0.00     0.125 A 
HETATM   16  C   UNL     1      43.508  -7.084  14.015  1.00  0.00     0.068 C 
HETATM   17  C   UNL     1      41.373  -8.359  14.303  1.00  0.00     0.025 A 
HETATM   18  C   UNL     1      40.389  -9.371  13.935  1.00  0.00     0.006 A 
ENDBRANCH   7   8
ENDBRANCH   1   7
BRANCH   3  19
HETATM   19  C   UNL     1      43.126 -13.419   5.777  1.00  0.00     0.085 C 
HETATM   20  C   UNL     1      43.109 -12.756   4.403  1.00  0.00     0.032 C 
BRANCH  19  21
HETATM   21  C   UNL     1      42.228 -14.670   5.896  1.00  0.00     0.063 C 
BRANCH  21  22
HETATM   22  C   UNL     1      41.562 -15.223   4.631  1.00  0.00     0.177 C 
BRANCH  22  23
HETATM   23  O   UNL     1      40.236 -15.665   4.906  1.00  0.00    -0.389 OA
HETATM   24  H   UNL     1      39.652 -14.893   4.813  1.00  0.00     0.210 HD
ENDBRANCH  22  23
BRANCH  22  25
HETATM   25  C   UNL     1      42.290 -16.350   3.983  1.00  0.00     0.081 A 
HETATM   26  O   UNL     1      43.202 -17.018   4.753  1.00  0.00    -0.324 OA
HETATM   27  C   UNL     1      43.796 -17.944   3.958  1.00  0.00     0.142 A 
HETATM   28  C   UNL     1      43.266 -17.903   2.691  1.00  0.00     0.027 A 
HETATM   29  C   UNL     1      42.294 -16.875   2.705  1.00  0.00     0.037 A 
ENDBRANCH  22  25
ENDBRANCH  21  22
ENDBRANCH  19  21
ENDBRANCH   3  19
TORSDOF 7
ENDMDL
MODEL 7
REMARK VINA RESULT:      -7.3      4.378      8.181
REMARK  7 active torsions:
REMARK  status: ('A' for Active; 'I' for Inactive)
REMARK    1  A    between atoms: C_7  and  C_8 
REMARK    2  A    between atoms: C_8  and  N_9 
REMARK       I    between atoms: N_9  and  C_10 
REMARK       I    between atoms: C_10  and  N_11 
REMARK    3  A    between atoms: N_11  and  C_12 
REMARK    4  A    between atoms: C_12  and  C_13 
REMARK    5  A    between atoms: C_13  and  C_14 
REMARK    6  A    between atoms: C_14  and  O_15 
REMARK    7  A    between atoms: C_14  and  C_16 
ROOT
HETATM    1  N   UNL     1      41.346 -13.524   3.487  1.00  0.00    -0.337 N 
HETATM    2  C   UNL     1      41.574 -13.670   4.833  1.00  0.00     0.316 C 
HETATM    3  N   UNL     1      42.877 -13.980   5.103  1.00  0.00    -0.339 N 
HETATM    4  O   UNL     1      40.722 -13.447   5.687  1.00  0.00    -0.247 OA
HETATM    5  H   UNL     1      42.014 -13.998   2.896  1.00  0.00     0.164 HD
HETATM    6  H   UNL     1      43.391 -14.471   4.384  1.00  0.00     0.164 HD
ENDROOT
BRANCH   1   7
HETATM    7  C   UNL     1      40.009 -13.360   2.951  1.00  0.00     0.183 C 
BRANCH   7   8
HETATM    8  C   UNL     1      40.009 -13.247   1.467  1.00  0.00     0.044 A 
HETATM    9  N   UNL     1      39.448 -14.214   0.646  1.00  0.00    -0.343 N 
HETATM   10  C   UNL     1      39.598 -13.906  -0.632  1.00  0.00     0.112 A 
HETATM   11  H   UNL     1      38.931 -15.019   1.017  1.00  0.00     0.167 HD
HETATM   12  N   UNL     1      40.258 -12.732  -0.695  1.00  0.00    -0.311 N 
HETATM   13  C   UNL     1      39.171 -14.631  -1.851  1.00  0.00     0.049 A 
HETATM   14  C   UNL     1      40.580 -12.121  -1.906  1.00  0.00     0.014 A 
HETATM   15  C   UNL     1      40.518 -12.302   0.602  1.00  0.00     0.125 A 
HETATM   16  C   UNL     1      41.306 -10.811  -1.942  1.00  0.00     0.068 C 
HETATM   17  C   UNL     1      40.199 -12.776  -3.026  1.00  0.00     0.025 A 
HETATM   18  C   UNL     1      39.487 -14.050  -3.019  1.00  0.00     0.006 A 
ENDBRANCH   7   8
ENDBRANCH   1   7
BRANCH   3  19
HETATM   19  C   UNL     1      43.355 -14.179   6.467  1.00  0.00     0.085 C 
HETATM   20  C   UNL     1      44.216 -12.993   6.891  1.00  0.00     0.032 C 
BRANCH  19  21
HETATM   21  C   UNL     1      44.013 -15.559   6.687  1.00  0.00     0.063 C 
BRANCH  21  22
HETATM   22  C   UNL     1      43.193 -16.822   6.400  1.00  0.00     0.177 C 
BRANCH  22  23
HETATM   23  O   UNL     1      43.376 -17.791   7.427  1.00  0.00    -0.389 OA
HETATM   24  H   UNL     1      43.525 -18.647   6.990  1.00  0.00     0.210 HD
ENDBRANCH  22  23
BRANCH  22  25
HETATM   25  C   UNL     1      43.493 -17.479   5.097  1.00  0.00     0.081 A 
HETATM   26  O   UNL     1      43.109 -16.811   3.968  1.00  0.00    -0.324 OA
HETATM   27  C   UNL     1      43.404 -17.608   2.910  1.00  0.00     0.142 A 
HETATM   28  C   UNL     1      43.997 -18.773   3.335  1.00  0.00     0.027 A 
HETATM   29  C   UNL     1      44.055 -18.692   4.747  1.00  0.00     0.037 A 
ENDBRANCH  22  25
ENDBRANCH  21  22
ENDBRANCH  19  21
ENDBRANCH   3  19
TORSDOF 7
ENDMDL
MODEL 8
REMARK VINA RESULT:      -7.2      6.919      9.526
REMARK  7 active torsions:
REMARK  status: ('A' for Active; 'I' for Inactive)
REMARK    1  A    between atoms: C_7  and  C_8 
REMARK    2  A    between atoms: C_8  and  N_9 
REMARK       I    between atoms: N_9  and  C_10 
REMARK       I    between atoms: C_10  and  N_11 
REMARK    3  A    between atoms: N_11  and  C_12 
REMARK    4  A    between atoms: C_12  and  C_13 
REMARK    5  A    between atoms: C_13  and  C_14 
REMARK    6  A    between atoms: C_14  and  O_15 
REMARK    7  A    between atoms: C_14  and  C_16 
ROOT
HETATM    1  N   UNL     1      41.285 -13.668   1.269  1.00  0.00    -0.337 N 
HETATM    2  C   UNL     1      40.549 -13.189   0.214  1.00  0.00     0.316 C 
HETATM    3  N   UNL     1      41.247 -12.280  -0.529  1.00  0.00    -0.339 N 
HETATM    4  O   UNL     1      39.433 -13.612  -0.073  1.00  0.00    -0.247 OA
HETATM    5  H   UNL     1      42.037 -13.061   1.563  1.00  0.00     0.164 HD
HETATM    6  H   UNL     1      41.965 -11.752  -0.053  1.00  0.00     0.164 HD
ENDROOT
BRANCH   1   7
HETATM    7  C   UNL     1      40.699 -14.514   2.291  1.00  0.00     0.183 C 
BRANCH   7   8
HETATM    8  C   UNL     1      41.629 -15.588   2.733  1.00  0.00     0.044 A 
HETATM    9  N   UNL     1      41.800 -16.765   2.020  1.00  0.00    -0.343 N 
HETATM   10  C   UNL     1      42.653 -17.576   2.625  1.00  0.00     0.112 A 
HETATM   11  H   UNL     1      41.358 -16.926   1.107  1.00  0.00     0.167 HD
HETATM   12  N   UNL     1      43.070 -16.962   3.751  1.00  0.00    -0.311 N 
HETATM   13  C   UNL     1      43.134 -18.923   2.243  1.00  0.00     0.049 A 
HETATM   14  C   UNL     1      43.982 -17.549   4.628  1.00  0.00     0.014 A 
HETATM   15  C   UNL     1      42.448 -15.720   3.833  1.00  0.00     0.125 A 
HETATM   16  C   UNL     1      44.433 -16.837   5.866  1.00  0.00     0.068 C 
HETATM   17  C   UNL     1      44.424 -18.782   4.291  1.00  0.00     0.025 A 
HETATM   18  C   UNL     1      44.006 -19.496   3.089  1.00  0.00     0.006 A 
ENDBRANCH   7   8
ENDBRANCH   1   7
BRANCH   3  19
HETATM   19  C   UNL     1      40.667 -11.639  -1.705  1.00  0.00     0.085 C 
HETATM   20  C   UNL     1      41.162 -12.335  -2.970  1.00  0.00     0.032 C 
BRANCH  19  21
HETATM   21  C   UNL     1      40.840 -10.104  -1.709  1.00  0.00     0.063 C 
BRANCH  21  22
HETATM   22  C   UNL     1      42.166  -9.509  -1.221  1.00  0.00     0.177 C 
BRANCH  22  23
HETATM   23  O   UNL     1      42.160  -9.349   0.195  1.00  0.00    -0.389 OA
HETATM   24  H   UNL     1      41.682  -8.524   0.387  1.00  0.00     0.210 HD
ENDBRANCH  22  23
BRANCH  22  25
HETATM   25  C   UNL     1      42.520  -8.194  -1.824  1.00  0.00     0.081 A 
HETATM   26  O   UNL     1      42.214  -8.021  -3.146  1.00  0.00    -0.324 OA
HETATM   27  C   UNL     1      42.684  -6.800  -3.510  1.00  0.00     0.142 A 
HETATM   28  C   UNL     1      43.268  -6.169  -2.437  1.00  0.00     0.027 A 
HETATM   29  C   UNL     1      43.163  -7.067  -1.349  1.00  0.00     0.037 A 
ENDBRANCH  22  25
ENDBRANCH  21  22
ENDBRANCH  19  21
ENDBRANCH   3  19
TORSDOF 7
ENDMDL
MODEL 9
REMARK VINA RESULT:      -7.1      2.050      3.079
REMARK  7 active torsions:
REMARK  status: ('A' for Active; 'I' for Inactive)
REMARK    1  A    between atoms: C_7  and  C_8 
REMARK    2  A    between atoms: C_8  and  N_9 
REMARK       I    between atoms: N_9  and  C_10 
REMARK       I    between atoms: C_10  and  N_11 
REMARK    3  A    between atoms: N_11  and  C_12 
REMARK    4  A    between atoms: C_12  and  C_13 
REMARK    5  A    between atoms: C_13  and  C_14 
REMARK    6  A    between atoms: C_14  and  O_15 
REMARK    7  A    between atoms: C_14  and  C_16 
ROOT
HETATM    1  N   UNL     1      42.840 -10.645   7.635  1.00  0.00    -0.337 N 
HETATM    2  C   UNL     1      43.741 -10.617   8.670  1.00  0.00     0.316 C 
HETATM    3  N   UNL     1      43.188 -10.131   9.821  1.00  0.00    -0.339 N 
HETATM    4  O   UNL     1      44.877 -11.072   8.585  1.00  0.00    -0.247 OA
HETATM    5  H   UNL     1      42.067 -10.004   7.737  1.00  0.00     0.164 HD
HETATM    6  H   UNL     1      42.417  -9.484   9.722  1.00  0.00     0.164 HD
ENDROOT
BRANCH   1   7
HETATM    7  C   UNL     1      43.243 -10.963   6.279  1.00  0.00     0.183 C 
BRANCH   7   8
HETATM    8  C   UNL     1      42.733 -12.289   5.838  1.00  0.00     0.044 A 
HETATM    9  N   UNL     1      41.750 -12.979   6.533  1.00  0.00    -0.343 N 
HETATM   10  C   UNL     1      41.486 -14.145   5.966  1.00  0.00     0.112 A 
HETATM   11  H   UNL     1      41.262 -12.575   7.342  1.00  0.00     0.167 HD
HETATM   12  N   UNL     1      42.282 -14.261   4.884  1.00  0.00    -0.311 N 
HETATM   13  C   UNL     1      40.528 -15.206   6.352  1.00  0.00     0.049 A 
HETATM   14  C   UNL     1      42.257 -15.383   4.056  1.00  0.00     0.014 A 
HETATM   15  C   UNL     1      43.062 -13.114   4.784  1.00  0.00     0.125 A 
HETATM   16  C   UNL     1      43.147 -15.479   2.855  1.00  0.00     0.068 C 
HETATM   17  C   UNL     1      41.388 -16.361   4.401  1.00  0.00     0.025 A 
HETATM   18  C   UNL     1      40.506 -16.291   5.562  1.00  0.00     0.006 A 
ENDBRANCH   7   8
ENDBRANCH   1   7
BRANCH   3  19
HETATM   19  C   UNL     1      43.956 -10.014  11.056  1.00  0.00     0.085 C 
HETATM   20  C   UNL     1      43.748 -11.257  11.915  1.00  0.00     0.032 C 
BRANCH  19  21
HETATM   21  C   UNL     1      43.720  -8.678  11.795  1.00  0.00     0.063 C 
BRANCH  21  22
HETATM   22  C   UNL     1      42.306  -8.084  11.814  1.00  0.00     0.177 C 
BRANCH  22  23
HETATM   23  O   UNL     1      42.233  -6.973  12.702  1.00  0.00    -0.389 OA
HETATM   24  H   UNL     1      41.379  -6.536  12.544  1.00  0.00     0.210 HD
ENDBRANCH  22  23
BRANCH  22  25
HETATM   25  C   UNL     1      41.232  -9.042  12.197  1.00  0.00     0.081 A 
HETATM   26  O   UNL     1      40.466  -9.546  11.182  1.00  0.00    -0.324 OA
HETATM   27  C   UNL     1      39.512 -10.328  11.749  1.00  0.00     0.142 A 
HETATM   28  C   UNL     1      39.664 -10.359  13.115  1.00  0.00     0.027 A 
HETATM   29  C   UNL     1      40.773  -9.529  13.406  1.00  0.00     0.037 A 
ENDBRANCH  22  25
ENDBRANCH  21  22
ENDBRANCH  19  21
ENDBRANCH   3  19
TORSDOF 7
ENDMDL
MODEL 10
REMARK VINA RESULT:      -7.0      3.313      8.167
REMARK  7 active torsions:
REMARK  status: ('A' for Active; 'I' for Inactive)
REMARK    1  A    between atoms: C_7  and  C_8 
REMARK    2  A    between atoms: C_8  and  N_9 
REMARK       I    between atoms: N_9  and  C_10 
REMARK       I    between atoms: C_10  and  N_11 
REMARK    3  A    between atoms: N_11  and  C_12 
REMARK    4  A    between atoms: C_12  and  C_13 
REMARK    5  A    between atoms: C_13  and  C_14 
REMARK    6  A    between atoms: C_14  and  O_15 
REMARK    7  A    between atoms: C_14  and  C_16 
ROOT
HETATM    1  N   UNL     1      40.103 -10.552   7.806  1.00  0.00    -0.337 N 
HETATM    2  C   UNL     1      41.057 -10.405   6.831  1.00  0.00     0.316 C 
HETATM    3  N   UNL     1      41.607 -11.601   6.465  1.00  0.00    -0.339 N 
HETATM    4  O   UNL     1      41.305  -9.332   6.290  1.00  0.00    -0.247 OA
HETATM    5  H   UNL     1      40.192 -11.396   8.354  1.00  0.00     0.164 HD
HETATM    6  H   UNL     1      41.615 -12.335   7.160  1.00  0.00     0.164 HD
ENDROOT
BRANCH   1   7
HETATM    7  C   UNL     1      39.503  -9.410   8.469  1.00  0.00     0.183 C 
BRANCH   7   8
HETATM    8  C   UNL     1      40.295  -8.967   9.648  1.00  0.00     0.044 A 
HETATM    9  N   UNL     1      40.625  -9.823  10.689  1.00  0.00    -0.343 N 
HETATM   10  C   UNL     1      41.303  -9.193  11.634  1.00  0.00     0.112 A 
HETATM   11  H   UNL     1      40.413 -10.828  10.664  1.00  0.00     0.167 HD
HETATM   12  N   UNL     1      41.442  -7.908  11.250  1.00  0.00    -0.311 N 
HETATM   13  C   UNL     1      41.854  -9.692  12.915  1.00  0.00     0.049 A 
HETATM   14  C   UNL     1      42.114  -6.965  12.026  1.00  0.00     0.014 A 
HETATM   15  C   UNL     1      40.826  -7.749  10.013  1.00  0.00     0.125 A 
HETATM   16  C   UNL     1      42.259  -5.546  11.567  1.00  0.00     0.068 C 
HETATM   17  C   UNL     1      42.617  -7.408  13.201  1.00  0.00     0.025 A 
HETATM   18  C   UNL     1      42.495  -8.785  13.670  1.00  0.00     0.006 A 
ENDBRANCH   7   8
ENDBRANCH   1   7
BRANCH   3  19
HETATM   19  C   UNL     1      42.641 -11.692   5.439  1.00  0.00     0.085 C 
HETATM   20  C   UNL     1      42.619 -13.079   4.805  1.00  0.00     0.032 C 
BRANCH  19  21
HETATM   21  C   UNL     1      44.032 -11.237   5.935  1.00  0.00     0.063 C 
BRANCH  21  22
HETATM   22  C   UNL     1      44.527 -11.729   7.299  1.00  0.00     0.177 C 
BRANCH  22  23
HETATM   23  O   UNL     1      43.681 -12.757   7.806  1.00  0.00    -0.389 OA
HETATM   24  H   UNL     1      44.087 -13.607   7.565  1.00  0.00     0.210 HD
ENDBRANCH  22  23
BRANCH  22  25
HETATM   25  C   UNL     1      44.633 -10.673   8.344  1.00  0.00     0.081 A 
HETATM   26  O   UNL     1      45.517 -10.901   9.363  1.00  0.00    -0.324 OA
HETATM   27  C   UNL     1      45.403  -9.865  10.232  1.00  0.00     0.142 A 
HETATM   28  C   UNL     1      44.476  -8.956   9.780  1.00  0.00     0.027 A 
HETATM   29  C   UNL     1      43.978  -9.476   8.562  1.00  0.00     0.037 A 
ENDBRANCH  22  25
ENDBRANCH  21  22
ENDBRANCH  19  21
ENDBRANCH   3  19
TORSDOF 7
ENDMDL
