MODEL 1
REMARK VINA RESULT:      -8.6      0.000      0.000
REMARK  6 active torsions:
REMARK  status: ('A' for Active; 'I' for Inactive)
REMARK    1  A    between atoms: O_2  and  C_3 
REMARK    2  A    between atoms: C_6  and  C_7 
REMARK    3  A    between atoms: C_7  and  N_8 
REMARK       I    between atoms: N_8  and  C_9 
REMARK    4  A    between atoms: C_9  and  C_10 
REMARK    5  A    between atoms: C_13  and  C_14 
REMARK    6  A    between atoms: C_19  and  C_20 
ROOT
HETATM    1  C   UNL     1      42.434 -11.535   6.102  1.00  0.00     0.096 A 
HETATM    2  C   UNL     1      42.475 -11.989   4.798  1.00  0.00     0.138 A 
HETATM    3  N   UNL     1      41.210 -11.852   4.297  1.00  0.00    -0.240 N 
HETATM    4  C   UNL     1      40.799 -12.295   2.979  1.00  0.00     0.221 C 
HETATM    5  C   UNL     1      42.028 -12.517   2.074  1.00  0.00     0.066 C 
HETATM    6  C   UNL     1      43.223 -13.186   2.783  1.00  0.00     0.118 C 
HETATM    7  N   UNL     1      43.477 -12.496   4.040  1.00  0.00    -0.365 N 
HETATM    8  N   UNL     1      40.367 -11.225   5.133  1.00  0.00    -0.181 NA
HETATM    9  C   UNL     1      41.104 -11.063   6.238  1.00  0.00     0.160 A 
HETATM   10  H   UNL     1      44.375 -12.704   4.489  1.00  0.00     0.161 HD
ENDROOT
BRANCH   1  11
HETATM   11  C   UNL     1      43.543 -11.572   7.040  1.00  0.00     0.257 C 
HETATM   12  N   UNL     1      43.474 -10.675   8.082  1.00  0.00    -0.352 N 
HETATM   13  H   UNL     1      42.670 -10.078   8.199  1.00  0.00     0.163 HD
HETATM   14  O   UNL     1      44.476 -12.362   6.916  1.00  0.00    -0.267 OA
BRANCH  12  15
HETATM   15  C   UNL     1      44.482 -10.646   9.118  1.00  0.00     0.161 C 
BRANCH  15  16
HETATM   16  C   UNL     1      43.953 -10.074  10.409  1.00  0.00    -0.040 A 
HETATM   17  C   UNL     1      43.844  -8.688  10.572  1.00  0.00     0.011 A 
HETATM   18  C   UNL     1      43.290  -8.152  11.738  1.00  0.00     0.037 A 
HETATM   19  C   UNL     1      42.824  -8.987  12.755  1.00  0.00     0.068 A 
HETATM   20  C   UNL     1      42.927 -10.368  12.601  1.00  0.00     0.037 A 
HETATM   21  C   UNL     1      43.477 -10.907  11.433  1.00  0.00     0.011 A 
BRANCH  19  22
HETATM   22  O   UNL     1      42.292  -8.335  13.833  1.00  0.00    -0.356 OA
HETATM   23  C   UNL     1      42.969  -7.163  14.268  1.00  0.00     0.210 C 
ENDBRANCH  19  22
ENDBRANCH  15  16
ENDBRANCH  12  15
ENDBRANCH   1  11
BRANCH   4  24
HETATM   24  C   UNL     1      39.902 -13.508   3.095  1.00  0.00     0.409 C 
HETATM   25  F   UNL     1      40.037 -14.391   2.089  1.00  0.00    -0.169 F 
HETATM   26  F   UNL     1      40.108 -14.180   4.252  1.00  0.00    -0.169 F 
HETATM   27  F   UNL     1      38.598 -13.121   3.117  1.00  0.00    -0.169 F 
ENDBRANCH   4  24
BRANCH   6  28
HETATM   28  C   UNL     1      43.137 -14.697   2.937  1.00  0.00    -0.035 A 
HETATM   29  C   UNL     1      43.165 -15.513   1.792  1.00  0.00     0.009 A 
HETATM   30  C   UNL     1      43.112 -16.905   1.895  1.00  0.00     0.001 A 
HETATM   31  C   UNL     1      43.044 -17.510   3.147  1.00  0.00     0.000 A 
HETATM   32  C   UNL     1      43.032 -16.723   4.295  1.00  0.00     0.001 A 
HETATM   33  C   UNL     1      43.084 -15.332   4.191  1.00  0.00     0.009 A 
ENDBRANCH   6  28
TORSDOF 6
ENDMDL
MODEL 2
REMARK VINA RESULT:      -8.6      1.679      2.497
REMARK  6 active torsions:
REMARK  status: ('A' for Active; 'I' for Inactive)
REMARK    1  A    between atoms: O_2  and  C_3 
REMARK    2  A    between atoms: C_6  and  C_7 
REMARK    3  A    between atoms: C_7  and  N_8 
REMARK       I    between atoms: N_8  and  C_9 
REMARK    4  A    between atoms: C_9  and  C_10 
REMARK    5  A    between atoms: C_13  and  C_14 
REMARK    6  A    between atoms: C_19  and  C_20 
ROOT
HETATM    1  C   UNL     1      42.682 -12.182   3.961  1.00  0.00     0.096 A 
HETATM    2  C   UNL     1      42.637 -13.222   3.053  1.00  0.00     0.138 A 
HETATM    3  N   UNL     1      41.315 -13.437   2.773  1.00  0.00    -0.240 N 
HETATM    4  C   UNL     1      40.821 -14.504   1.925  1.00  0.00     0.221 C 
HETATM    5  C   UNL     1      41.956 -15.066   1.043  1.00  0.00     0.066 C 
HETATM    6  C   UNL     1      43.308 -15.210   1.770  1.00  0.00     0.118 C 
HETATM    7  N   UNL     1      43.606 -13.970   2.475  1.00  0.00    -0.365 N 
HETATM    8  N   UNL     1      40.494 -12.534   3.333  1.00  0.00    -0.181 NA
HETATM    9  C   UNL     1      41.323 -11.795   4.078  1.00  0.00     0.160 A 
HETATM   10  H   UNL     1      44.570 -13.867   2.806  1.00  0.00     0.161 HD
ENDROOT
BRANCH   1  11
HETATM   11  C   UNL     1      43.886 -11.672   4.596  1.00  0.00     0.257 C 
HETATM   12  N   UNL     1      43.855 -11.607   5.970  1.00  0.00    -0.352 N 
HETATM   13  H   UNL     1      43.059 -11.947   6.487  1.00  0.00     0.163 HD
HETATM   14  O   UNL     1      44.872 -11.333   3.945  1.00  0.00    -0.267 OA
BRANCH  12  15
HETATM   15  C   UNL     1      45.007 -11.174   6.729  1.00  0.00     0.161 C 
BRANCH  15  16
HETATM   16  C   UNL     1      44.618 -10.541   8.041  1.00  0.00    -0.040 A 
HETATM   17  C   UNL     1      45.583 -10.334   9.035  1.00  0.00     0.011 A 
HETATM   18  C   UNL     1      45.246  -9.684  10.225  1.00  0.00     0.037 A 
HETATM   19  C   UNL     1      43.947  -9.219  10.441  1.00  0.00     0.068 A 
HETATM   20  C   UNL     1      42.981  -9.419   9.457  1.00  0.00     0.037 A 
HETATM   21  C   UNL     1      43.317 -10.064   8.262  1.00  0.00     0.011 A 
BRANCH  19  22
HETATM   22  O   UNL     1      43.757  -8.589  11.640  1.00  0.00    -0.356 OA
HETATM   23  C   UNL     1      42.814  -9.176  12.528  1.00  0.00     0.210 C 
ENDBRANCH  19  22
ENDBRANCH  15  16
ENDBRANCH  12  15
ENDBRANCH   1  11
BRANCH   4  24
HETATM   24  C   UNL     1      40.126 -15.555   2.763  1.00  0.00     0.409 C 
HETATM   25  F   UNL     1      40.511 -15.574   4.052  1.00  0.00    -0.169 F 
HETATM   26  F   UNL     1      38.781 -15.406   2.746  1.00  0.00    -0.169 F 
HETATM   27  F   UNL     1      40.371 -16.792   2.254  1.00  0.00    -0.169 F 
ENDBRANCH   4  24
BRANCH   6  28
HETATM   28  C   UNL     1      43.457 -16.445   2.646  1.00  0.00    -0.035 A 
HETATM   29  C   UNL     1      43.467 -17.720   2.050  1.00  0.00     0.009 A 
HETATM   30  C   UNL     1      43.626 -18.875   2.820  1.00  0.00     0.001 A 
HETATM   31  C   UNL     1      43.792 -18.779   4.198  1.00  0.00     0.000 A 
HETATM   32  C   UNL     1      43.802 -17.527   4.807  1.00  0.00     0.001 A 
HETATM   33  C   UNL     1      43.642 -16.373   4.038  1.00  0.00     0.009 A 
ENDBRANCH   6  28
TORSDOF 6
ENDMDL
MODEL 3
REMARK VINA RESULT:      -8.5      4.642      8.706
REMARK  6 active torsions:
REMARK  status: ('A' for Active; 'I' for Inactive)
REMARK    1  A    between atoms: O_2  and  C_3 
REMARK    2  A    between atoms: C_6  and  C_7 
REMARK    3  A    between atoms: C_7  and  N_8 
REMARK       I    between atoms: N_8  and  C_9 
REMARK    4  A    between atoms: C_9  and  C_10 
REMARK    5  A    between atoms: C_13  and  C_14 
REMARK    6  A    between atoms: C_19  and  C_20 
ROOT
HETATM    1  C   UNL     1      40.354 -11.387   4.606  1.00  0.00     0.096 A 
HETATM    2  C   UNL     1      40.590 -12.697   4.975  1.00  0.00     0.138 A 
HETATM    3  N   UNL     1      41.539 -12.660   5.959  1.00  0.00    -0.240 N 
HETATM    4  C   UNL     1      42.137 -13.833   6.566  1.00  0.00     0.221 C 
HETATM    5  C   UNL     1      41.272 -15.082   6.298  1.00  0.00     0.066 C 
HETATM    6  C   UNL     1      40.688 -15.153   4.872  1.00  0.00     0.118 C 
HETATM    7  N   UNL     1      40.075 -13.873   4.544  1.00  0.00    -0.365 N 
HETATM    8  N   UNL     1      41.856 -11.416   6.354  1.00  0.00    -0.181 NA
HETATM    9  C   UNL     1      41.158 -10.647   5.509  1.00  0.00     0.160 A 
HETATM   10  H   UNL     1      39.466 -13.870   3.720  1.00  0.00     0.161 HD
ENDROOT
BRANCH   1  11
HETATM   11  C   UNL     1      39.472 -10.963   3.532  1.00  0.00     0.257 C 
HETATM   12  N   UNL     1      39.857 -11.330   2.263  1.00  0.00    -0.352 N 
HETATM   13  H   UNL     1      40.673 -11.904   2.115  1.00  0.00     0.163 HD
HETATM   14  O   UNL     1      38.443 -10.327   3.747  1.00  0.00    -0.267 OA
BRANCH  12  15
HETATM   15  C   UNL     1      39.041 -11.023   1.111  1.00  0.00     0.161 C 
BRANCH  15  16
HETATM   16  C   UNL     1      38.979 -12.171   0.135  1.00  0.00    -0.040 A 
HETATM   17  C   UNL     1      38.187 -12.074  -1.016  1.00  0.00     0.011 A 
HETATM   18  C   UNL     1      38.180 -13.104  -1.960  1.00  0.00     0.037 A 
HETATM   19  C   UNL     1      38.968 -14.242  -1.780  1.00  0.00     0.068 A 
HETATM   20  C   UNL     1      39.760 -14.347  -0.639  1.00  0.00     0.037 A 
HETATM   21  C   UNL     1      39.774 -13.315   0.306  1.00  0.00     0.011 A 
BRANCH  19  22
HETATM   22  O   UNL     1      38.878 -15.166  -2.785  1.00  0.00    -0.356 OA
HETATM   23  C   UNL     1      38.010 -14.852  -3.866  1.00  0.00     0.210 C 
ENDBRANCH  19  22
ENDBRANCH  15  16
ENDBRANCH  12  15
ENDBRANCH   1  11
BRANCH   4  24
HETATM   24  C   UNL     1      43.573 -13.980   6.111  1.00  0.00     0.409 C 
HETATM   25  F   UNL     1      44.454 -13.265   6.833  1.00  0.00    -0.169 F 
HETATM   26  F   UNL     1      43.982 -15.270   6.138  1.00  0.00    -0.169 F 
HETATM   27  F   UNL     1      43.694 -13.577   4.818  1.00  0.00    -0.169 F 
ENDBRANCH   4  24
BRANCH   6  28
HETATM   28  C   UNL     1      41.639 -15.653   3.796  1.00  0.00    -0.035 A 
HETATM   29  C   UNL     1      42.308 -16.878   3.976  1.00  0.00     0.009 A 
HETATM   30  C   UNL     1      43.170 -17.381   2.998  1.00  0.00     0.001 A 
HETATM   31  C   UNL     1      43.371 -16.677   1.815  1.00  0.00     0.000 A 
HETATM   32  C   UNL     1      42.706 -15.471   1.607  1.00  0.00     0.001 A 
HETATM   33  C   UNL     1      41.846 -14.968   2.585  1.00  0.00     0.009 A 
ENDBRANCH   6  28
TORSDOF 6
ENDMDL
MODEL 4
REMARK VINA RESULT:      -8.4      3.690      9.443
REMARK  6 active torsions:
REMARK  status: ('A' for Active; 'I' for Inactive)
REMARK    1  A    between atoms: O_2  and  C_3 
REMARK    2  A    between atoms: C_6  and  C_7 
REMARK    3  A    between atoms: C_7  and  N_8 
REMARK       I    between atoms: N_8  and  C_9 
REMARK    4  A    between atoms: C_9  and  C_10 
REMARK    5  A    between atoms: C_13  and  C_14 
REMARK    6  A    between atoms: C_19  and  C_20 
ROOT
HETATM    1  C   UNL     1      43.584 -11.334   6.618  1.00  0.00     0.096 A 
HETATM    2  C   UNL     1      43.533 -10.149   7.326  1.00  0.00     0.138 A 
HETATM    3  N   UNL     1      44.588 -10.171   8.197  1.00  0.00    -0.240 N 
HETATM    4  C   UNL     1      44.850  -9.148   9.191  1.00  0.00     0.221 C 
HETATM    5  C   UNL     1      44.083  -7.853   8.853  1.00  0.00     0.066 C 
HETATM    6  C   UNL     1      42.650  -8.085   8.332  1.00  0.00     0.118 C 
HETATM    7  N   UNL     1      42.682  -9.097   7.285  1.00  0.00    -0.365 N 
HETATM    8  N   UNL     1      45.402 -11.225   8.028  1.00  0.00    -0.181 NA
HETATM    9  C   UNL     1      44.773 -11.944   7.091  1.00  0.00     0.160 A 
HETATM   10  H   UNL     1      41.833  -9.174   6.715  1.00  0.00     0.161 HD
ENDROOT
BRANCH   1  11
HETATM   11  C   UNL     1      42.604 -11.768   5.636  1.00  0.00     0.257 C 
HETATM   12  N   UNL     1      43.104 -12.474   4.566  1.00  0.00    -0.352 N 
HETATM   13  H   UNL     1      44.082 -12.713   4.514  1.00  0.00     0.163 HD
HETATM   14  O   UNL     1      41.405 -11.529   5.762  1.00  0.00    -0.267 OA
BRANCH  12  15
HETATM   15  C   UNL     1      42.231 -13.015   3.548  1.00  0.00     0.161 C 
BRANCH  15  16
HETATM   16  C   UNL     1      42.597 -14.431   3.179  1.00  0.00    -0.040 A 
HETATM   17  C   UNL     1      42.398 -15.470   4.097  1.00  0.00     0.011 A 
HETATM   18  C   UNL     1      42.668 -16.793   3.739  1.00  0.00     0.037 A 
HETATM   19  C   UNL     1      43.127 -17.106   2.458  1.00  0.00     0.068 A 
HETATM   20  C   UNL     1      43.326 -16.079   1.537  1.00  0.00     0.037 A 
HETATM   21  C   UNL     1      43.052 -14.753   1.892  1.00  0.00     0.011 A 
BRANCH  19  22
HETATM   22  O   UNL     1      43.337 -18.439   2.234  1.00  0.00    -0.356 OA
HETATM   23  C   UNL     1      43.972 -19.169   3.276  1.00  0.00     0.210 C 
ENDBRANCH  19  22
ENDBRANCH  15  16
ENDBRANCH  12  15
ENDBRANCH   1  11
BRANCH   4  24
HETATM   24  C   UNL     1      44.558  -9.683  10.576  1.00  0.00     0.409 C 
HETATM   25  F   UNL     1      44.327  -8.730  11.497  1.00  0.00    -0.169 F 
HETATM   26  F   UNL     1      43.492 -10.517  10.582  1.00  0.00    -0.169 F 
HETATM   27  F   UNL     1      45.611 -10.421  11.021  1.00  0.00    -0.169 F 
ENDBRANCH   4  24
BRANCH   6  28
HETATM   28  C   UNL     1      41.599  -8.360   9.397  1.00  0.00    -0.035 A 
HETATM   29  C   UNL     1      41.536  -7.539  10.537  1.00  0.00     0.009 A 
HETATM   30  C   UNL     1      40.569  -7.745  11.524  1.00  0.00     0.001 A 
HETATM   31  C   UNL     1      39.636  -8.769  11.384  1.00  0.00     0.000 A 
HETATM   32  C   UNL     1      39.668  -9.583  10.255  1.00  0.00     0.001 A 
HETATM   33  C   UNL     1      40.635  -9.377   9.270  1.00  0.00     0.009 A 
ENDBRANCH   6  28
TORSDOF 6
ENDMDL
MODEL 5
REMARK VINA RESULT:      -8.3      2.389      3.609
REMARK  6 active torsions:
REMARK  status: ('A' for Active; 'I' for Inactive)
REMARK    1  A    between atoms: O_2  and  C_3 
REMARK    2  A    between atoms: C_6  and  C_7 
REMARK    3  A    between atoms: C_7  and  N_8 
REMARK       I    between atoms: N_8  and  C_9 
REMARK    4  A    between atoms: C_9  and  C_10 
REMARK    5  A    between atoms: C_13  and  C_14 
REMARK    6  A    between atoms: C_19  and  C_20 
ROOT
HETATM    1  C   UNL     1      43.308 -13.575   6.402  1.00  0.00     0.096 A 
HETATM    2  C   UNL     1      42.355 -14.323   5.739  1.00  0.00     0.138 A 
HETATM    3  N   UNL     1      42.887 -15.571   5.571  1.00  0.00    -0.240 N 
HETATM    4  C   UNL     1      42.243 -16.645   4.841  1.00  0.00     0.221 C 
HETATM    5  C   UNL     1      40.736 -16.360   4.674  1.00  0.00     0.066 C 
HETATM    6  C   UNL     1      40.403 -14.889   4.352  1.00  0.00     0.118 C 
HETATM    7  N   UNL     1      41.114 -14.025   5.285  1.00  0.00    -0.365 N 
HETATM    8  N   UNL     1      44.071 -15.737   6.183  1.00  0.00    -0.181 NA
HETATM    9  C   UNL     1      44.337 -14.515   6.659  1.00  0.00     0.160 A 
HETATM   10  H   UNL     1      40.802 -13.048   5.313  1.00  0.00     0.161 HD
ENDROOT
BRANCH   1  11
HETATM   11  C   UNL     1      43.195 -12.161   6.718  1.00  0.00     0.257 C 
HETATM   12  N   UNL     1      44.096 -11.682   7.641  1.00  0.00    -0.352 N 
HETATM   13  H   UNL     1      44.816 -12.277   8.020  1.00  0.00     0.163 HD
HETATM   14  O   UNL     1      42.355 -11.439   6.185  1.00  0.00    -0.267 OA
BRANCH  12  15
HETATM   15  C   UNL     1      44.131 -10.282   8.002  1.00  0.00     0.161 C 
BRANCH  15  16
HETATM   16  C   UNL     1      43.428 -10.014   9.309  1.00  0.00    -0.040 A 
HETATM   17  C   UNL     1      42.202  -9.336   9.320  1.00  0.00     0.011 A 
HETATM   18  C   UNL     1      41.510  -9.145  10.519  1.00  0.00     0.037 A 
HETATM   19  C   UNL     1      42.018  -9.637  11.723  1.00  0.00     0.068 A 
HETATM   20  C   UNL     1      43.236 -10.314  11.720  1.00  0.00     0.037 A 
HETATM   21  C   UNL     1      43.929 -10.511  10.521  1.00  0.00     0.011 A 
BRANCH  19  22
HETATM   22  O   UNL     1      41.234  -9.395  12.817  1.00  0.00    -0.356 OA
HETATM   23  C   UNL     1      40.138 -10.276  13.025  1.00  0.00     0.210 C 
ENDBRANCH  19  22
ENDBRANCH  15  16
ENDBRANCH  12  15
ENDBRANCH   1  11
BRANCH   4  24
HETATM   24  C   UNL     1      42.963 -16.890   3.533  1.00  0.00     0.409 C 
HETATM   25  F   UNL     1      42.190 -17.423   2.569  1.00  0.00    -0.169 F 
HETATM   26  F   UNL     1      43.504 -15.754   3.033  1.00  0.00    -0.169 F 
HETATM   27  F   UNL     1      44.004 -17.744   3.728  1.00  0.00    -0.169 F 
ENDBRANCH   4  24
BRANCH   6  28
HETATM   28  C   UNL     1      40.582 -14.475   2.899  1.00  0.00    -0.035 A 
HETATM   29  C   UNL     1      39.999 -15.251   1.881  1.00  0.00     0.009 A 
HETATM   30  C   UNL     1      40.121 -14.889   0.537  1.00  0.00     0.001 A 
HETATM   31  C   UNL     1      40.818 -13.737   0.185  1.00  0.00     0.000 A 
HETATM   32  C   UNL     1      41.389 -12.945   1.177  1.00  0.00     0.001 A 
HETATM   33  C   UNL     1      41.267 -13.307   2.520  1.00  0.00     0.009 A 
ENDBRANCH   6  28
TORSDOF 6
ENDMDL
MODEL 6
REMARK VINA RESULT:      -8.3      2.373      3.979
REMARK  6 active torsions:
REMARK  status: ('A' for Active; 'I' for Inactive)
REMARK    1  A    between atoms: O_2  and  C_3 
REMARK    2  A    between atoms: C_6  and  C_7 
REMARK    3  A    between atoms: C_7  and  N_8 
REMARK       I    between atoms: N_8  and  C_9 
REMARK    4  A    between atoms: C_9  and  C_10 
REMARK    5  A    between atoms: C_13  and  C_14 
REMARK    6  A    between atoms: C_19  and  C_20 
ROOT
HETATM    1  C   UNL     1      40.621 -11.690   2.574  1.00  0.00     0.096 A 
HETATM    2  C   UNL     1      41.474 -12.769   2.441  1.00  0.00     0.138 A 
HETATM    3  N   UNL     1      40.870 -13.638   1.575  1.00  0.00    -0.240 N 
HETATM    4  C   UNL     1      41.394 -14.945   1.227  1.00  0.00     0.221 C 
HETATM    5  C   UNL     1      42.891 -15.041   1.587  1.00  0.00     0.066 C 
HETATM    6  C   UNL     1      43.262 -14.386   2.932  1.00  0.00     0.118 C 
HETATM    7  N   UNL     1      42.680 -13.051   2.988  1.00  0.00    -0.365 N 
HETATM    8  N   UNL     1      39.740 -13.157   1.031  1.00  0.00    -0.181 NA
HETATM    9  C   UNL     1      39.576 -11.989   1.664  1.00  0.00     0.160 A 
HETATM   10  H   UNL     1      43.039 -12.440   3.729  1.00  0.00     0.161 HD
ENDROOT
BRANCH   1  11
HETATM   11  C   UNL     1      40.828 -10.561   3.465  1.00  0.00     0.257 C 
HETATM   12  N   UNL     1      40.643 -10.815   4.804  1.00  0.00    -0.352 N 
HETATM   13  H   UNL     1      40.432 -11.745   5.131  1.00  0.00     0.163 HD
HETATM   14  O   UNL     1      41.159  -9.453   3.047  1.00  0.00    -0.267 OA
BRANCH  12  15
HETATM   15  C   UNL     1      40.873  -9.795   5.803  1.00  0.00     0.161 C 
BRANCH  15  16
HETATM   16  C   UNL     1      42.094 -10.084   6.640  1.00  0.00    -0.040 A 
HETATM   17  C   UNL     1      42.486  -9.189   7.644  1.00  0.00     0.011 A 
HETATM   18  C   UNL     1      43.573  -9.484   8.470  1.00  0.00     0.037 A 
HETATM   19  C   UNL     1      44.281 -10.678   8.320  1.00  0.00     0.068 A 
HETATM   20  C   UNL     1      43.897 -11.575   7.325  1.00  0.00     0.037 A 
HETATM   21  C   UNL     1      42.805 -11.285   6.499  1.00  0.00     0.011 A 
BRANCH  19  22
HETATM   22  O   UNL     1      45.312 -10.849   9.202  1.00  0.00    -0.356 OA
HETATM   23  C   UNL     1      45.284 -10.051  10.379  1.00  0.00     0.210 C 
ENDBRANCH  19  22
ENDBRANCH  15  16
ENDBRANCH  12  15
ENDBRANCH   1  11
BRANCH   4  24
HETATM   24  C   UNL     1      40.547 -16.029   1.856  1.00  0.00     0.409 C 
HETATM   25  F   UNL     1      39.985 -15.679   3.028  1.00  0.00    -0.169 F 
HETATM   26  F   UNL     1      39.549 -16.431   1.035  1.00  0.00    -0.169 F 
HETATM   27  F   UNL     1      41.304 -17.134   2.090  1.00  0.00    -0.169 F 
ENDBRANCH   4  24
BRANCH   6  28
HETATM   28  C   UNL     1      42.971 -15.216   4.173  1.00  0.00    -0.035 A 
HETATM   29  C   UNL     1      42.177 -14.674   5.199  1.00  0.00     0.009 A 
HETATM   30  C   UNL     1      41.868 -15.416   6.342  1.00  0.00     0.001 A 
HETATM   31  C   UNL     1      42.336 -16.720   6.475  1.00  0.00     0.000 A 
HETATM   32  C   UNL     1      43.108 -17.284   5.464  1.00  0.00     0.001 A 
HETATM   33  C   UNL     1      43.418 -16.542   4.322  1.00  0.00     0.009 A 
ENDBRANCH   6  28
TORSDOF 6
ENDMDL
MODEL 7
REMARK VINA RESULT:      -8.0      4.412      7.971
REMARK  6 active torsions:
REMARK  status: ('A' for Active; 'I' for Inactive)
REMARK    1  A    between atoms: O_2  and  C_3 
REMARK    2  A    between atoms: C_6  and  C_7 
REMARK    3  A    between atoms: C_7  and  N_8 
REMARK       I    between atoms: N_8  and  C_9 
REMARK    4  A    between atoms: C_9  and  C_10 
REMARK    5  A    between atoms: C_13  and  C_14 
REMARK    6  A    between atoms: C_19  and  C_20 
ROOT
HETATM    1  C   UNL     1      40.063 -13.562   2.399  1.00  0.00     0.096 A 
HETATM    2  C   UNL     1      40.251 -13.166   3.709  1.00  0.00     0.138 A 
HETATM    3  N   UNL     1      39.596 -11.974   3.853  1.00  0.00    -0.240 N 
HETATM    4  C   UNL     1      39.614 -11.170   5.059  1.00  0.00     0.221 C 
HETATM    5  C   UNL     1      40.071 -12.014   6.267  1.00  0.00     0.066 C 
HETATM    6  C   UNL     1      41.230 -12.984   5.958  1.00  0.00     0.118 C 
HETATM    7  N   UNL     1      40.919 -13.727   4.745  1.00  0.00    -0.365 N 
HETATM    8  N   UNL     1      38.886 -11.617   2.770  1.00  0.00    -0.181 NA
HETATM    9  C   UNL     1      39.198 -12.567   1.880  1.00  0.00     0.160 A 
HETATM   10  H   UNL     1      41.503 -14.550   4.565  1.00  0.00     0.161 HD
ENDROOT
BRANCH   1  11
HETATM   11  C   UNL     1      40.655 -14.739   1.784  1.00  0.00     0.257 C 
HETATM   12  N   UNL     1      42.031 -14.779   1.774  1.00  0.00    -0.352 N 
HETATM   13  H   UNL     1      42.573 -14.055   2.219  1.00  0.00     0.163 HD
HETATM   14  O   UNL     1      39.969 -15.644   1.315  1.00  0.00    -0.267 OA
BRANCH  12  15
HETATM   15  C   UNL     1      42.746 -15.919   1.246  1.00  0.00     0.161 C 
BRANCH  15  16
HETATM   16  C   UNL     1      43.179 -16.871   2.332  1.00  0.00    -0.040 A 
HETATM   17  C   UNL     1      43.390 -16.402   3.635  1.00  0.00     0.011 A 
HETATM   18  C   UNL     1      43.722 -17.290   4.662  1.00  0.00     0.037 A 
HETATM   19  C   UNL     1      43.839 -18.658   4.413  1.00  0.00     0.068 A 
HETATM   20  C   UNL     1      43.630 -19.134   3.120  1.00  0.00     0.037 A 
HETATM   21  C   UNL     1      43.292 -18.249   2.090  1.00  0.00     0.011 A 
BRANCH  19  22
HETATM   22  O   UNL     1      44.154 -19.415   5.507  1.00  0.00    -0.356 OA
HETATM   23  C   UNL     1      44.250 -20.820   5.307  1.00  0.00     0.210 C 
ENDBRANCH  19  22
ENDBRANCH  15  16
ENDBRANCH  12  15
ENDBRANCH   1  11
BRANCH   4  24
HETATM   24  C   UNL     1      40.444  -9.924   4.840  1.00  0.00     0.409 C 
HETATM   25  F   UNL     1      41.154  -9.538   5.917  1.00  0.00    -0.169 F 
HETATM   26  F   UNL     1      41.316 -10.071   3.815  1.00  0.00    -0.169 F 
HETATM   27  F   UNL     1      39.638  -8.883   4.498  1.00  0.00    -0.169 F 
ENDBRANCH   4  24
BRANCH   6  28
HETATM   28  C   UNL     1      42.619 -12.365   5.941  1.00  0.00    -0.035 A 
HETATM   29  C   UNL     1      43.226 -11.988   7.153  1.00  0.00     0.009 A 
HETATM   30  C   UNL     1      44.510 -11.439   7.177  1.00  0.00     0.001 A 
HETATM   31  C   UNL     1      45.220 -11.269   5.992  1.00  0.00     0.000 A 
HETATM   32  C   UNL     1      44.647 -11.652   4.783  1.00  0.00     0.001 A 
HETATM   33  C   UNL     1      43.363 -12.199   4.758  1.00  0.00     0.009 A 
ENDBRANCH   6  28
TORSDOF 6
ENDMDL
MODEL 8
REMARK VINA RESULT:      -8.0      6.255      8.732
REMARK  6 active torsions:
REMARK  status: ('A' for Active; 'I' for Inactive)
REMARK    1  A    between atoms: O_2  and  C_3 
REMARK    2  A    between atoms: C_6  and  C_7 
REMARK    3  A    between atoms: C_7  and  N_8 
REMARK       I    between atoms: N_8  and  C_9 
REMARK    4  A    between atoms: C_9  and  C_10 
REMARK    5  A    between atoms: C_13  and  C_14 
REMARK    6  A    between atoms: C_19  and  C_20 
ROOT
HETATM    1  C   UNL     1      40.715 -13.552   0.907  1.00  0.00     0.096 A 
HETATM    2  C   UNL     1      39.982 -12.499   0.395  1.00  0.00     0.138 A 
HETATM    3  N   UNL     1      39.314 -12.983  -0.695  1.00  0.00    -0.240 N 
HETATM    4  C   UNL     1      38.493 -12.177  -1.578  1.00  0.00     0.221 C 
HETATM    5  C   UNL     1      38.111 -10.846  -0.897  1.00  0.00     0.066 C 
HETATM    6  C   UNL     1      39.253 -10.199  -0.087  1.00  0.00     0.118 C 
HETATM    7  N   UNL     1      39.852 -11.206   0.778  1.00  0.00    -0.365 N 
HETATM    8  N   UNL     1      39.455 -14.308  -0.867  1.00  0.00    -0.181 NA
HETATM    9  C   UNL     1      40.330 -14.643   0.088  1.00  0.00     0.160 A 
HETATM   10  H   UNL     1      40.466 -10.849   1.517  1.00  0.00     0.161 HD
ENDROOT
BRANCH   1  11
HETATM   11  C   UNL     1      41.639 -13.467   2.026  1.00  0.00     0.257 C 
HETATM   12  N   UNL     1      41.869 -14.644   2.700  1.00  0.00    -0.352 N 
HETATM   13  H   UNL     1      41.457 -15.509   2.388  1.00  0.00     0.163 HD
HETATM   14  O   UNL     1      42.186 -12.412   2.340  1.00  0.00    -0.267 OA
BRANCH  12  15
HETATM   15  C   UNL     1      42.811 -14.711   3.796  1.00  0.00     0.161 C 
BRANCH  15  16
HETATM   16  C   UNL     1      43.244 -16.126   4.086  1.00  0.00    -0.040 A 
HETATM   17  C   UNL     1      43.345 -17.058   3.046  1.00  0.00     0.011 A 
HETATM   18  C   UNL     1      43.814 -18.351   3.295  1.00  0.00     0.037 A 
HETATM   19  C   UNL     1      44.200 -18.734   4.581  1.00  0.00     0.068 A 
HETATM   20  C   UNL     1      44.105 -17.813   5.622  1.00  0.00     0.037 A 
HETATM   21  C   UNL     1      43.641 -16.516   5.374  1.00  0.00     0.011 A 
BRANCH  19  22
HETATM   22  O   UNL     1      44.653 -20.020   4.684  1.00  0.00    -0.356 OA
HETATM   23  C   UNL     1      43.829 -20.932   5.398  1.00  0.00     0.210 C 
ENDBRANCH  19  22
ENDBRANCH  15  16
ENDBRANCH  12  15
ENDBRANCH   1  11
BRANCH   4  24
HETATM   24  C   UNL     1      39.183 -12.000  -2.913  1.00  0.00     0.409 C 
HETATM   25  F   UNL     1      38.785 -10.914  -3.599  1.00  0.00    -0.169 F 
HETATM   26  F   UNL     1      40.528 -11.923  -2.780  1.00  0.00    -0.169 F 
HETATM   27  F   UNL     1      38.948 -13.082  -3.704  1.00  0.00    -0.169 F 
ENDBRANCH   4  24
BRANCH   6  28
HETATM   28  C   UNL     1      40.278  -9.422  -0.899  1.00  0.00    -0.035 A 
HETATM   29  C   UNL     1      39.840  -8.483  -1.851  1.00  0.00     0.009 A 
HETATM   30  C   UNL     1      40.752  -7.733  -2.597  1.00  0.00     0.001 A 
HETATM   31  C   UNL     1      42.120  -7.897  -2.398  1.00  0.00     0.000 A 
HETATM   32  C   UNL     1      42.575  -8.808  -1.449  1.00  0.00     0.001 A 
HETATM   33  C   UNL     1      41.664  -9.558  -0.704  1.00  0.00     0.009 A 
ENDBRANCH   6  28
TORSDOF 6
ENDMDL
MODEL 9
REMARK VINA RESULT:      -8.0      5.098      8.853
REMARK  6 active torsions:
REMARK  status: ('A' for Active; 'I' for Inactive)
REMARK    1  A    between atoms: O_2  and  C_3 
REMARK    2  A    between atoms: C_6  and  C_7 
REMARK    3  A    between atoms: C_7  and  N_8 
REMARK       I    between atoms: N_8  and  C_9 
REMARK    4  A    between atoms: C_9  and  C_10 
REMARK    5  A    between atoms: C_13  and  C_14 
REMARK    6  A    between atoms: C_19  and  C_20 
ROOT
HETATM    1  C   UNL     1      40.278 -12.687   3.561  1.00  0.00     0.096 A 
HETATM    2  C   UNL     1      40.571 -13.758   4.382  1.00  0.00     0.138 A 
HETATM    3  N   UNL     1      41.373 -13.276   5.380  1.00  0.00    -0.240 N 
HETATM    4  C   UNL     1      41.979 -14.095   6.411  1.00  0.00     0.221 C 
HETATM    5  C   UNL     1      41.266 -15.459   6.510  1.00  0.00     0.066 C 
HETATM    6  C   UNL     1      40.888 -16.075   5.147  1.00  0.00     0.118 C 
HETATM    7  N   UNL     1      40.219 -15.065   4.338  1.00  0.00    -0.365 N 
HETATM    8  N   UNL     1      41.528 -11.942   5.347  1.00  0.00    -0.181 NA
HETATM    9  C   UNL     1      40.888 -11.593   4.224  1.00  0.00     0.160 A 
HETATM   10  H   UNL     1      39.728 -15.414   3.508  1.00  0.00     0.161 HD
ENDROOT
BRANCH   1  11
HETATM   11  C   UNL     1      39.515 -12.760   2.326  1.00  0.00     0.257 C 
HETATM   12  N   UNL     1      40.171 -13.315   1.251  1.00  0.00    -0.352 N 
HETATM   13  H   UNL     1      41.101 -13.692   1.350  1.00  0.00     0.163 HD
HETATM   14  O   UNL     1      38.355 -12.361   2.251  1.00  0.00    -0.267 OA
BRANCH  12  15
HETATM   15  C   UNL     1      39.509 -13.501  -0.021  1.00  0.00     0.161 C 
BRANCH  15  16
HETATM   16  C   UNL     1      39.930 -12.469  -1.037  1.00  0.00    -0.040 A 
HETATM   17  C   UNL     1      40.690 -12.848  -2.150  1.00  0.00     0.011 A 
HETATM   18  C   UNL     1      41.023 -11.912  -3.132  1.00  0.00     0.037 A 
HETATM   19  C   UNL     1      40.596 -10.587  -3.029  1.00  0.00     0.068 A 
HETATM   20  C   UNL     1      39.838 -10.201  -1.926  1.00  0.00     0.037 A 
HETATM   21  C   UNL     1      39.498 -11.137  -0.943  1.00  0.00     0.011 A 
BRANCH  19  22
HETATM   22  O   UNL     1      40.979  -9.779  -4.065  1.00  0.00    -0.356 OA
HETATM   23  C   UNL     1      41.359  -8.450  -3.732  1.00  0.00     0.210 C 
ENDBRANCH  19  22
ENDBRANCH  15  16
ENDBRANCH  12  15
ENDBRANCH   1  11
BRANCH   4  24
HETATM   24  C   UNL     1      43.471 -14.204   6.178  1.00  0.00     0.409 C 
HETATM   25  F   UNL     1      44.177 -13.152   6.629  1.00  0.00    -0.169 F 
HETATM   26  F   UNL     1      43.992 -15.314   6.750  1.00  0.00    -0.169 F 
HETATM   27  F   UNL     1      43.726 -14.317   4.846  1.00  0.00    -0.169 F 
ENDBRANCH   4  24
BRANCH   6  28
HETATM   28  C   UNL     1      42.013 -16.783   4.409  1.00  0.00    -0.035 A 
HETATM   29  C   UNL     1      42.920 -17.581   5.130  1.00  0.00     0.009 A 
HETATM   30  C   UNL     1      43.952 -18.266   4.483  1.00  0.00     0.001 A 
HETATM   31  C   UNL     1      44.089 -18.178   3.101  1.00  0.00     0.000 A 
HETATM   32  C   UNL     1      43.193 -17.408   2.365  1.00  0.00     0.001 A 
HETATM   33  C   UNL     1      42.163 -16.723   3.012  1.00  0.00     0.009 A 
ENDBRANCH   6  28
TORSDOF 6
ENDMDL
MODEL 10
REMARK VINA RESULT:      -7.8      2.875      4.254
REMARK  6 active torsions:
REMARK  status: ('A' for Active; 'I' for Inactive)
REMARK    1  A    between atoms: O_2  and  C_3 
REMARK    2  A    between atoms: C_6  and  C_7 
REMARK    3  A    between atoms: C_7  and  N_8 
REMARK       I    between atoms: N_8  and  C_9 
REMARK    4  A    between atoms: C_9  and  C_10 
REMARK    5  A    between atoms: C_13  and  C_14 
REMARK    6  A    between atoms: C_19  and  C_20 
ROOT
HETATM    1  C   UNL     1      41.027 -13.389   5.407  1.00  0.00     0.096 A 
HETATM    2  C   UNL     1      40.690 -14.153   4.306  1.00  0.00     0.138 A 
HETATM    3  N   UNL     1      41.693 -15.069   4.146  1.00  0.00    -0.240 N 
HETATM    4  C   UNL     1      41.773 -16.012   3.048  1.00  0.00     0.221 C 
HETATM    5  C   UNL     1      40.401 -16.159   2.358  1.00  0.00     0.066 C 
HETATM    6  C   UNL     1      39.632 -14.832   2.192  1.00  0.00     0.118 C 
HETATM    7  N   UNL     1      39.631 -14.119   3.462  1.00  0.00    -0.365 N 
HETATM    8  N   UNL     1      42.603 -15.047   5.133  1.00  0.00    -0.181 NA
HETATM    9  C   UNL     1      42.213 -14.007   5.879  1.00  0.00     0.160 A 
HETATM   10  H   UNL     1      38.969 -13.340   3.535  1.00  0.00     0.161 HD
ENDROOT
BRANCH   1  11
HETATM   11  C   UNL     1      40.280 -12.242   5.894  1.00  0.00     0.257 C 
HETATM   12  N   UNL     1      41.017 -11.101   6.116  1.00  0.00    -0.352 N 
HETATM   13  H   UNL     1      42.000 -11.068   5.897  1.00  0.00     0.163 HD
HETATM   14  O   UNL     1      39.066 -12.286   6.083  1.00  0.00    -0.267 OA
BRANCH  12  15
HETATM   15  C   UNL     1      40.389  -9.871   6.545  1.00  0.00     0.161 C 
BRANCH  15  16
HETATM   16  C   UNL     1      40.440  -9.698   8.042  1.00  0.00    -0.040 A 
HETATM   17  C   UNL     1      41.616  -9.252   8.658  1.00  0.00     0.011 A 
HETATM   18  C   UNL     1      41.650  -9.021  10.036  1.00  0.00     0.037 A 
HETATM   19  C   UNL     1      40.513  -9.219  10.821  1.00  0.00     0.068 A 
HETATM   20  C   UNL     1      39.338  -9.662  10.217  1.00  0.00     0.037 A 
HETATM   21  C   UNL     1      39.299  -9.889   8.836  1.00  0.00     0.011 A 
BRANCH  19  22
HETATM   22  O   UNL     1      40.680  -8.943  12.150  1.00  0.00    -0.356 OA
HETATM   23  C   UNL     1      40.103  -9.861  13.071  1.00  0.00     0.210 C 
ENDBRANCH  19  22
ENDBRANCH  15  16
ENDBRANCH  12  15
ENDBRANCH   1  11
BRANCH   4  24
HETATM   24  C   UNL     1      42.889 -15.619   2.104  1.00  0.00     0.409 C 
HETATM   25  F   UNL     1      42.649 -15.916   0.814  1.00  0.00    -0.169 F 
HETATM   26  F   UNL     1      43.162 -14.295   2.169  1.00  0.00    -0.169 F 
HETATM   27  F   UNL     1      44.039 -16.255   2.454  1.00  0.00    -0.169 F 
ENDBRANCH   4  24
BRANCH   6  28
HETATM   28  C   UNL     1      40.063 -13.963   1.020  1.00  0.00    -0.035 A 
HETATM   29  C   UNL     1      39.911 -14.446  -0.293  1.00  0.00     0.009 A 
HETATM   30  C   UNL     1      40.272 -13.667  -1.395  1.00  0.00     0.001 A 
HETATM   31  C   UNL     1      40.781 -12.385  -1.208  1.00  0.00     0.000 A 
HETATM   32  C   UNL     1      40.924 -11.880   0.082  1.00  0.00     0.001 A 
HETATM   33  C   UNL     1      40.563 -12.659   1.183  1.00  0.00     0.009 A 
ENDBRANCH   6  28
TORSDOF 6
ENDMDL
