MODEL 1
REMARK VINA RESULT:      -7.6      0.000      0.000
REMARK  7 active torsions:
REMARK  status: ('A' for Active; 'I' for Inactive)
REMARK    1  A    between atoms: O_2  and  C_3 
REMARK    2  A    between atoms: C_4  and  O_5 
REMARK    3  A    between atoms: C_9  and  C_10 
REMARK    4  A    between atoms: C_10  and  N_11 
REMARK    5  A    between atoms: C_14  and  C_15 
REMARK    6  A    between atoms: C_15  and  N_16 
REMARK    7  A    between atoms: N_16  and  C_17 
ROOT
HETATM    1  N   UNL     1      42.186 -14.042   2.833  1.00  0.00    -0.067 N 
HETATM    2  H   UNL     1      42.098 -14.403   3.795  1.00  0.00     0.280 HD
HETATM    3  C   UNL     1      40.769 -13.835   2.332  1.00  0.00     0.241 C 
HETATM    4  C   UNL     1      40.724 -12.401   1.809  1.00  0.00     0.031 C 
HETATM    5  C   UNL     1      41.718 -11.690   2.725  1.00  0.00     0.035 C 
HETATM    6  C   UNL     1      42.850 -12.683   2.927  1.00  0.00     0.235 C 
ENDROOT
BRANCH   1   7
HETATM    7  C   UNL     1      43.033 -15.063   2.104  1.00  0.00     0.273 C 
BRANCH   7   8
HETATM    8  C   UNL     1      43.290 -16.322   2.888  1.00  0.00    -0.028 A 
HETATM    9  C   UNL     1      43.315 -17.569   2.246  1.00  0.00     0.031 A 
HETATM   10  C   UNL     1      43.611 -18.728   2.970  1.00  0.00     0.047 A 
HETATM   11  C   UNL     1      43.876 -18.645   4.336  1.00  0.00     0.116 A 
HETATM   12 BR   UNL     1      43.653 -20.379   2.043  1.00  0.00    -0.048 Br
HETATM   13  C   UNL     1      43.829 -17.415   5.001  1.00  0.00     0.103 A 
HETATM   14  C   UNL     1      43.536 -16.257   4.274  1.00  0.00     0.048 A 
BRANCH  11  15
HETATM   15  O   UNL     1      44.186 -19.774   5.046  1.00  0.00    -0.357 OA
HETATM   16  H   UNL     1      44.426 -19.488   5.949  1.00  0.00     0.218 HD
ENDBRANCH  11  15
BRANCH  13  17
HETATM   17  O   UNL     1      44.115 -17.468   6.339  1.00  0.00    -0.353 OA
HETATM   18  C   UNL     1      43.364 -16.631   7.210  1.00  0.00     0.210 C 
ENDBRANCH  13  17
ENDBRANCH   7   8
ENDBRANCH   1   7
BRANCH   4  19
HETATM   19  C   UNL     1      41.074 -12.342   0.311  1.00  0.00     0.127 C 
BRANCH  19  20
HETATM   20  N   UNL     1      40.760 -13.605  -0.361  1.00  0.00    -0.376 N 
HETATM   21  H   UNL     1      41.569 -14.173  -0.604  1.00  0.00     0.161 HD
BRANCH  20  22
HETATM   22  C   UNL     1      39.685 -13.662  -1.240  1.00  0.00     0.100 A 
HETATM   23  N   UNL     1      38.621 -12.871  -1.008  1.00  0.00    -0.353 N 
HETATM   24  H   UNL     1      38.643 -12.257  -0.199  1.00  0.00     0.166 HD
HETATM   25  C   UNL     1      37.531 -12.836  -1.792  1.00  0.00     0.089 A 
HETATM   26  C   UNL     1      37.460 -13.632  -2.923  1.00  0.00     0.017 A 
HETATM   27  C   UNL     1      38.539 -14.447  -3.232  1.00  0.00     0.005 A 
HETATM   28  C   UNL     1      39.655 -14.456  -2.396  1.00  0.00     0.048 A 
ENDBRANCH  20  22
ENDBRANCH  19  20
ENDBRANCH   4  19
TORSDOF 7
ENDMDL
MODEL 2
REMARK VINA RESULT:      -7.4      2.649      5.245
REMARK  7 active torsions:
REMARK  status: ('A' for Active; 'I' for Inactive)
REMARK    1  A    between atoms: O_2  and  C_3 
REMARK    2  A    between atoms: C_4  and  O_5 
REMARK    3  A    between atoms: C_9  and  C_10 
REMARK    4  A    between atoms: C_10  and  N_11 
REMARK    5  A    between atoms: C_14  and  C_15 
REMARK    6  A    between atoms: C_15  and  N_16 
REMARK    7  A    between atoms: N_16  and  C_17 
ROOT
HETATM    1  N   UNL     1      41.767 -14.777   1.438  1.00  0.00    -0.067 N 
HETATM    2  H   UNL     1      41.782 -14.742   0.408  1.00  0.00     0.280 HD
HETATM    3  C   UNL     1      41.150 -13.468   1.893  1.00  0.00     0.241 C 
HETATM    4  C   UNL     1      40.024 -13.854   2.849  1.00  0.00     0.031 C 
HETATM    5  C   UNL     1      39.555 -15.188   2.276  1.00  0.00     0.035 C 
HETATM    6  C   UNL     1      40.824 -15.897   1.831  1.00  0.00     0.235 C 
ENDROOT
BRANCH   1   7
HETATM    7  C   UNL     1      43.200 -15.043   1.846  1.00  0.00     0.273 C 
BRANCH   7   8
HETATM    8  C   UNL     1      43.371 -16.235   2.748  1.00  0.00    -0.028 A 
HETATM    9  C   UNL     1      43.424 -17.532   2.216  1.00  0.00     0.031 A 
HETATM   10  C   UNL     1      43.641 -18.630   3.054  1.00  0.00     0.047 A 
HETATM   11  C   UNL     1      43.800 -18.436   4.425  1.00  0.00     0.116 A 
HETATM   12 BR   UNL     1      43.723 -20.352   2.273  1.00  0.00    -0.048 Br
HETATM   13  C   UNL     1      43.725 -17.154   4.980  1.00  0.00     0.103 A 
HETATM   14  C   UNL     1      43.510 -16.057   4.140  1.00  0.00     0.048 A 
BRANCH  11  15
HETATM   15  O   UNL     1      44.034 -19.505   5.248  1.00  0.00    -0.357 OA
HETATM   16  H   UNL     1      43.286 -20.123   5.135  1.00  0.00     0.218 HD
ENDBRANCH  11  15
BRANCH  13  17
HETATM   17  O   UNL     1      43.905 -17.098   6.337  1.00  0.00    -0.353 OA
HETATM   18  C   UNL     1      42.801 -16.688   7.135  1.00  0.00     0.210 C 
ENDBRANCH  13  17
ENDBRANCH   7   8
ENDBRANCH   1   7
BRANCH   4  19
HETATM   19  C   UNL     1      40.526 -13.919   4.303  1.00  0.00     0.127 C 
BRANCH  19  20
HETATM   20  N   UNL     1      40.925 -12.597   4.791  1.00  0.00    -0.376 N 
HETATM   21  H   UNL     1      40.565 -11.814   4.250  1.00  0.00     0.161 HD
BRANCH  20  22
HETATM   22  C   UNL     1      42.188 -12.428   5.348  1.00  0.00     0.100 A 
HETATM   23  N   UNL     1      42.492 -13.101   6.473  1.00  0.00    -0.353 N 
HETATM   24  H   UNL     1      41.787 -13.714   6.874  1.00  0.00     0.166 HD
HETATM   25  C   UNL     1      43.680 -13.021   7.093  1.00  0.00     0.089 A 
HETATM   26  C   UNL     1      44.686 -12.223   6.574  1.00  0.00     0.017 A 
HETATM   27  C   UNL     1      44.443 -11.527   5.399  1.00  0.00     0.005 A 
HETATM   28  C   UNL     1      43.198 -11.636   4.780  1.00  0.00     0.048 A 
ENDBRANCH  20  22
ENDBRANCH  19  20
ENDBRANCH   4  19
TORSDOF 7
ENDMDL
MODEL 3
REMARK VINA RESULT:      -6.9      5.588      8.048
REMARK  7 active torsions:
REMARK  status: ('A' for Active; 'I' for Inactive)
REMARK    1  A    between atoms: O_2  and  C_3 
REMARK    2  A    between atoms: C_4  and  O_5 
REMARK    3  A    between atoms: C_9  and  C_10 
REMARK    4  A    between atoms: C_10  and  N_11 
REMARK    5  A    between atoms: C_14  and  C_15 
REMARK    6  A    between atoms: C_15  and  N_16 
REMARK    7  A    between atoms: N_16  and  C_17 
ROOT
HETATM    1  N   UNL     1      41.422 -13.951   5.206  1.00  0.00    -0.067 N 
HETATM    2  H   UNL     1      40.566 -13.490   5.549  1.00  0.00     0.280 HD
HETATM    3  C   UNL     1      41.943 -14.782   6.364  1.00  0.00     0.241 C 
HETATM    4  C   UNL     1      42.148 -16.188   5.803  1.00  0.00     0.031 C 
HETATM    5  C   UNL     1      41.050 -16.278   4.747  1.00  0.00     0.035 C 
HETATM    6  C   UNL     1      41.004 -14.903   4.103  1.00  0.00     0.235 C 
ENDROOT
BRANCH   1   7
HETATM    7  C   UNL     1      42.306 -12.827   4.711  1.00  0.00     0.273 C 
BRANCH   7   8
HETATM    8  C   UNL     1      42.630 -11.794   5.755  1.00  0.00    -0.028 A 
HETATM    9  C   UNL     1      43.945 -11.635   6.218  1.00  0.00     0.031 A 
HETATM   10  C   UNL     1      44.249 -10.635   7.147  1.00  0.00     0.047 A 
HETATM   11  C   UNL     1      43.242  -9.796   7.619  1.00  0.00     0.116 A 
HETATM   12 BR   UNL     1      46.046 -10.455   7.715  1.00  0.00    -0.048 Br
HETATM   13  C   UNL     1      41.919  -9.955   7.191  1.00  0.00     0.103 A 
HETATM   14  C   UNL     1      41.617 -10.954   6.261  1.00  0.00     0.048 A 
BRANCH  11  15
HETATM   15  O   UNL     1      43.537  -8.801   8.512  1.00  0.00    -0.357 OA
HETATM   16  H   UNL     1      43.770  -9.234   9.357  1.00  0.00     0.218 HD
ENDBRANCH  11  15
BRANCH  13  17
HETATM   17  O   UNL     1      41.026  -9.064   7.725  1.00  0.00    -0.353 OA
HETATM   18  C   UNL     1      39.692  -9.511   7.939  1.00  0.00     0.210 C 
ENDBRANCH  13  17
ENDBRANCH   7   8
ENDBRANCH   1   7
BRANCH   4  19
HETATM   19  C   UNL     1      43.578 -16.368   5.261  1.00  0.00     0.127 C 
BRANCH  19  20
HETATM   20  N   UNL     1      44.044 -17.746   5.430  1.00  0.00    -0.376 N 
HETATM   21  H   UNL     1      44.876 -17.849   6.006  1.00  0.00     0.161 HD
BRANCH  20  22
HETATM   22  C   UNL     1      43.912 -18.645   4.378  1.00  0.00     0.100 A 
HETATM   23  N   UNL     1      44.062 -19.959   4.629  1.00  0.00    -0.353 N 
HETATM   24  H   UNL     1      44.263 -20.247   5.583  1.00  0.00     0.166 HD
HETATM   25  C   UNL     1      43.949 -20.916   3.694  1.00  0.00     0.089 A 
HETATM   26  C   UNL     1      43.648 -20.580   2.385  1.00  0.00     0.017 A 
HETATM   27  C   UNL     1      43.452 -19.244   2.069  1.00  0.00     0.005 A 
HETATM   28  C   UNL     1      43.574 -18.276   3.066  1.00  0.00     0.048 A 
ENDBRANCH  20  22
ENDBRANCH  19  20
ENDBRANCH   4  19
TORSDOF 7
ENDMDL
MODEL 4
REMARK VINA RESULT:      -6.8      5.539      8.830
REMARK  7 active torsions:
REMARK  status: ('A' for Active; 'I' for Inactive)
REMARK    1  A    between atoms: O_2  and  C_3 
REMARK    2  A    between atoms: C_4  and  O_5 
REMARK    3  A    between atoms: C_9  and  C_10 
REMARK    4  A    between atoms: C_10  and  N_11 
REMARK    5  A    between atoms: C_14  and  C_15 
REMARK    6  A    between atoms: C_15  and  N_16 
REMARK    7  A    between atoms: N_16  and  C_17 
ROOT
HETATM    1  N   UNL     1      43.400 -12.449   5.850  1.00  0.00    -0.067 N 
HETATM    2  H   UNL     1      43.571 -12.571   4.840  1.00  0.00     0.280 HD
HETATM    3  C   UNL     1      44.613 -11.718   6.395  1.00  0.00     0.241 C 
HETATM    4  C   UNL     1      44.060 -10.520   7.163  1.00  0.00     0.031 C 
HETATM    5  C   UNL     1      42.794 -10.187   6.378  1.00  0.00     0.035 C 
HETATM    6  C   UNL     1      42.202 -11.532   5.992  1.00  0.00     0.235 C 
ENDROOT
BRANCH   1   7
HETATM    7  C   UNL     1      43.141 -13.844   6.378  1.00  0.00     0.273 C 
BRANCH   7   8
HETATM    8  C   UNL     1      43.212 -14.921   5.331  1.00  0.00    -0.028 A 
HETATM    9  C   UNL     1      43.493 -16.248   5.690  1.00  0.00     0.031 A 
HETATM   10  C   UNL     1      43.501 -17.254   4.719  1.00  0.00     0.047 A 
HETATM   11  C   UNL     1      43.234 -16.938   3.388  1.00  0.00     0.116 A 
HETATM   12 BR   UNL     1      43.864 -19.029   5.269  1.00  0.00    -0.048 Br
HETATM   13  C   UNL     1      42.979 -15.617   3.004  1.00  0.00     0.103 A 
HETATM   14  C   UNL     1      42.969 -14.612   3.977  1.00  0.00     0.048 A 
BRANCH  11  15
HETATM   15  O   UNL     1      43.220 -17.921   2.436  1.00  0.00    -0.357 OA
HETATM   16  H   UNL     1      43.960 -17.739   1.824  1.00  0.00     0.218 HD
ENDBRANCH  11  15
BRANCH  13  17
HETATM   17  O   UNL     1      42.726 -15.439   1.670  1.00  0.00    -0.353 OA
HETATM   18  C   UNL     1      41.410 -15.054   1.291  1.00  0.00     0.210 C 
ENDBRANCH  13  17
ENDBRANCH   7   8
ENDBRANCH   1   7
BRANCH   4  19
HETATM   19  C   UNL     1      43.825 -10.868   8.644  1.00  0.00     0.127 C 
BRANCH  19  20
HETATM   20  N   UNL     1      42.667 -10.152   9.185  1.00  0.00    -0.376 N 
HETATM   21  H   UNL     1      42.182  -9.558   8.517  1.00  0.00     0.161 HD
BRANCH  20  22
HETATM   22  C   UNL     1      42.696  -9.702  10.500  1.00  0.00     0.100 A 
HETATM   23  N   UNL     1      41.937 -10.332  11.414  1.00  0.00    -0.353 N 
HETATM   24  H   UNL     1      41.371 -11.120  11.111  1.00  0.00     0.166 HD
HETATM   25  C   UNL     1      41.891  -9.989  12.712  1.00  0.00     0.089 A 
HETATM   26  C   UNL     1      42.663  -8.941  13.184  1.00  0.00     0.017 A 
HETATM   27  C   UNL     1      43.490  -8.271  12.295  1.00  0.00     0.005 A 
HETATM   28  C   UNL     1      43.514  -8.656  10.954  1.00  0.00     0.048 A 
ENDBRANCH  20  22
ENDBRANCH  19  20
ENDBRANCH   4  19
TORSDOF 7
ENDMDL
MODEL 5
REMARK VINA RESULT:      -6.8      4.704      8.269
REMARK  7 active torsions:
REMARK  status: ('A' for Active; 'I' for Inactive)
REMARK    1  A    between atoms: O_2  and  C_3 
REMARK    2  A    between atoms: C_4  and  O_5 
REMARK    3  A    between atoms: C_9  and  C_10 
REMARK    4  A    between atoms: C_10  and  N_11 
REMARK    5  A    between atoms: C_14  and  C_15 
REMARK    6  A    between atoms: C_15  and  N_16 
REMARK    7  A    between atoms: N_16  and  C_17 
ROOT
HETATM    1  N   UNL     1      40.729 -13.174   2.223  1.00  0.00    -0.067 N 
HETATM    2  H   UNL     1      39.941 -12.527   2.069  1.00  0.00     0.280 HD
HETATM    3  C   UNL     1      41.620 -12.509   3.255  1.00  0.00     0.241 C 
HETATM    4  C   UNL     1      41.837 -13.555   4.347  1.00  0.00     0.031 C 
HETATM    5  C   UNL     1      40.524 -14.332   4.316  1.00  0.00     0.035 C 
HETATM    6  C   UNL     1      40.156 -14.432   2.845  1.00  0.00     0.235 C 
ENDROOT
BRANCH   1   7
HETATM    7  C   UNL     1      41.321 -13.412   0.851  1.00  0.00     0.273 C 
BRANCH   7   8
HETATM    8  C   UNL     1      40.505 -12.842  -0.278  1.00  0.00    -0.028 A 
HETATM    9  C   UNL     1      40.080 -11.505  -0.247  1.00  0.00     0.031 A 
HETATM   10  C   UNL     1      39.372 -10.965  -1.325  1.00  0.00     0.047 A 
HETATM   11  C   UNL     1      39.082 -11.760  -2.433  1.00  0.00     0.116 A 
HETATM   12 BR   UNL     1      38.846  -9.149  -1.234  1.00  0.00    -0.048 Br
HETATM   13  C   UNL     1      39.472 -13.103  -2.472  1.00  0.00     0.103 A 
HETATM   14  C   UNL     1      40.183 -13.640  -1.394  1.00  0.00     0.048 A 
BRANCH  11  15
HETATM   15  O   UNL     1      38.407 -11.232  -3.500  1.00  0.00    -0.357 OA
HETATM   16  H   UNL     1      39.049 -10.705  -4.015  1.00  0.00     0.218 HD
ENDBRANCH  11  15
BRANCH  13  17
HETATM   17  O   UNL     1      39.132 -13.772  -3.618  1.00  0.00    -0.353 OA
HETATM   18  C   UNL     1      38.199 -14.840  -3.509  1.00  0.00     0.210 C 
ENDBRANCH  13  17
ENDBRANCH   7   8
ENDBRANCH   1   7
BRANCH   4  19
HETATM   19  C   UNL     1      43.092 -14.401   4.066  1.00  0.00     0.127 C 
BRANCH  19  20
HETATM   20  N   UNL     1      43.059 -15.667   4.802  1.00  0.00    -0.376 N 
HETATM   21  H   UNL     1      43.406 -15.616   5.757  1.00  0.00     0.161 HD
BRANCH  20  22
HETATM   22  C   UNL     1      43.301 -16.857   4.125  1.00  0.00     0.100 A 
HETATM   23  N   UNL     1      44.066 -17.792   4.718  1.00  0.00    -0.353 N 
HETATM   24  H   UNL     1      44.438 -17.596   5.643  1.00  0.00     0.166 HD
HETATM   25  C   UNL     1      44.360 -18.979   4.162  1.00  0.00     0.089 A 
HETATM   26  C   UNL     1      43.856 -19.309   2.915  1.00  0.00     0.017 A 
HETATM   27  C   UNL     1      43.035 -18.398   2.267  1.00  0.00     0.005 A 
HETATM   28  C   UNL     1      42.750 -17.176   2.874  1.00  0.00     0.048 A 
ENDBRANCH  20  22
ENDBRANCH  19  20
ENDBRANCH   4  19
TORSDOF 7
ENDMDL
MODEL 6
REMARK VINA RESULT:      -6.7      2.430      4.872
REMARK  7 active torsions:
REMARK  status: ('A' for Active; 'I' for Inactive)
REMARK    1  A    between atoms: O_2  and  C_3 
REMARK    2  A    between atoms: C_4  and  O_5 
REMARK    3  A    between atoms: C_9  and  C_10 
REMARK    4  A    between atoms: C_10  and  N_11 
REMARK    5  A    between atoms: C_14  and  C_15 
REMARK    6  A    between atoms: C_15  and  N_16 
REMARK    7  A    between atoms: N_16  and  C_17 
ROOT
HETATM    1  N   UNL     1      40.873 -14.865   0.695  1.00  0.00    -0.067 N 
HETATM    2  H   UNL     1      41.670 -15.379   0.291  1.00  0.00     0.280 HD
HETATM    3  C   UNL     1      41.367 -13.452   0.943  1.00  0.00     0.241 C 
HETATM    4  C   UNL     1      40.344 -12.536   0.274  1.00  0.00     0.031 C 
HETATM    5  C   UNL     1      39.874 -13.382  -0.907  1.00  0.00     0.035 C 
HETATM    6  C   UNL     1      39.798 -14.802  -0.371  1.00  0.00     0.235 C 
ENDROOT
BRANCH   1   7
HETATM    7  C   UNL     1      40.455 -15.672   1.906  1.00  0.00     0.273 C 
BRANCH   7   8
HETATM    8  C   UNL     1      41.605 -16.236   2.695  1.00  0.00    -0.028 A 
HETATM    9  C   UNL     1      42.014 -15.631   3.893  1.00  0.00     0.031 A 
HETATM   10  C   UNL     1      43.045 -16.193   4.651  1.00  0.00     0.047 A 
HETATM   11  C   UNL     1      43.674 -17.357   4.213  1.00  0.00     0.116 A 
HETATM   12 BR   UNL     1      43.536 -15.342   6.269  1.00  0.00    -0.048 Br
HETATM   13  C   UNL     1      43.300 -17.962   3.008  1.00  0.00     0.103 A 
HETATM   14  C   UNL     1      42.267 -17.399   2.252  1.00  0.00     0.048 A 
BRANCH  11  15
HETATM   15  O   UNL     1      44.670 -17.925   4.960  1.00  0.00    -0.357 OA
HETATM   16  H   UNL     1      44.824 -17.339   5.727  1.00  0.00     0.218 HD
ENDBRANCH  11  15
BRANCH  13  17
HETATM   17  O   UNL     1      43.990 -19.103   2.693  1.00  0.00    -0.353 OA
HETATM   18  C   UNL     1      43.265 -20.171   2.095  1.00  0.00     0.210 C 
ENDBRANCH  13  17
ENDBRANCH   7   8
ENDBRANCH   1   7
BRANCH   4  19
HETATM   19  C   UNL     1      39.232 -12.131   1.258  1.00  0.00     0.127 C 
BRANCH  19  20
HETATM   20  N   UNL     1      39.722 -11.177   2.256  1.00  0.00    -0.376 N 
HETATM   21  H   UNL     1      40.251 -10.395   1.877  1.00  0.00     0.161 HD
BRANCH  20  22
HETATM   22  C   UNL     1      40.122 -11.641   3.504  1.00  0.00     0.100 A 
HETATM   23  N   UNL     1      41.189 -11.070   4.092  1.00  0.00    -0.353 N 
HETATM   24  H   UNL     1      41.663 -10.316   3.603  1.00  0.00     0.166 HD
HETATM   25  C   UNL     1      41.661 -11.431   5.297  1.00  0.00     0.089 A 
HETATM   26  C   UNL     1      41.036 -12.434   6.018  1.00  0.00     0.017 A 
HETATM   27  C   UNL     1      39.911 -13.041   5.478  1.00  0.00     0.005 A 
HETATM   28  C   UNL     1      39.449 -12.639   4.225  1.00  0.00     0.048 A 
ENDBRANCH  20  22
ENDBRANCH  19  20
ENDBRANCH   4  19
TORSDOF 7
ENDMDL
MODEL 7
REMARK VINA RESULT:      -6.7      4.432      7.981
REMARK  7 active torsions:
REMARK  status: ('A' for Active; 'I' for Inactive)
REMARK    1  A    between atoms: O_2  and  C_3 
REMARK    2  A    between atoms: C_4  and  O_5 
REMARK    3  A    between atoms: C_9  and  C_10 
REMARK    4  A    between atoms: C_10  and  N_11 
REMARK    5  A    between atoms: C_14  and  C_15 
REMARK    6  A    between atoms: C_15  and  N_16 
REMARK    7  A    between atoms: N_16  and  C_17 
ROOT
HETATM    1  N   UNL     1      40.879 -13.199   2.380  1.00  0.00    -0.067 N 
HETATM    2  H   UNL     1      40.134 -12.519   2.166  1.00  0.00     0.280 HD
HETATM    3  C   UNL     1      41.756 -12.544   3.431  1.00  0.00     0.241 C 
HETATM    4  C   UNL     1      41.866 -13.560   4.566  1.00  0.00     0.031 C 
HETATM    5  C   UNL     1      40.516 -14.269   4.498  1.00  0.00     0.035 C 
HETATM    6  C   UNL     1      40.212 -14.403   3.015  1.00  0.00     0.235 C 
ENDROOT
BRANCH   1   7
HETATM    7  C   UNL     1      41.521 -13.516   1.046  1.00  0.00     0.273 C 
BRANCH   7   8
HETATM    8  C   UNL     1      40.730 -13.045  -0.144  1.00  0.00    -0.028 A 
HETATM    9  C   UNL     1      40.081 -13.966  -0.979  1.00  0.00     0.031 A 
HETATM   10  C   UNL     1      39.301 -13.520  -2.050  1.00  0.00     0.047 A 
HETATM   11  C   UNL     1      39.171 -12.153  -2.292  1.00  0.00     0.116 A 
HETATM   12 BR   UNL     1      38.431 -14.811  -3.127  1.00  0.00    -0.048 Br
HETATM   13  C   UNL     1      39.832 -11.218  -1.488  1.00  0.00     0.103 A 
HETATM   14  C   UNL     1      40.610 -11.667  -0.416  1.00  0.00     0.048 A 
BRANCH  11  15
HETATM   15  O   UNL     1      38.392 -11.708  -3.326  1.00  0.00    -0.357 OA
HETATM   16  H   UNL     1      37.618 -12.302  -3.379  1.00  0.00     0.218 HD
ENDBRANCH  11  15
BRANCH  13  17
HETATM   17  O   UNL     1      39.618  -9.908  -1.826  1.00  0.00    -0.353 OA
HETATM   18  C   UNL     1      40.685  -9.202  -2.448  1.00  0.00     0.210 C 
ENDBRANCH  13  17
ENDBRANCH   7   8
ENDBRANCH   1   7
BRANCH   4  19
HETATM   19  C   UNL     1      43.086 -14.479   4.375  1.00  0.00     0.127 C 
BRANCH  19  20
HETATM   20  N   UNL     1      42.861 -15.797   4.972  1.00  0.00    -0.376 N 
HETATM   21  H   UNL     1      43.018 -15.844   5.976  1.00  0.00     0.161 HD
BRANCH  20  22
HETATM   22  C   UNL     1      43.183 -16.939   4.247  1.00  0.00     0.100 A 
HETATM   23  N   UNL     1      43.976 -17.864   4.818  1.00  0.00    -0.353 N 
HETATM   24  H   UNL     1      44.310 -17.695   5.763  1.00  0.00     0.166 HD
HETATM   25  C   UNL     1      44.346 -19.006   4.217  1.00  0.00     0.089 A 
HETATM   26  C   UNL     1      43.898 -19.298   2.940  1.00  0.00     0.017 A 
HETATM   27  C   UNL     1      43.051 -18.397   2.309  1.00  0.00     0.005 A 
HETATM   28  C   UNL     1      42.686 -17.222   2.965  1.00  0.00     0.048 A 
ENDBRANCH  20  22
ENDBRANCH  19  20
ENDBRANCH   4  19
TORSDOF 7
ENDMDL
MODEL 8
REMARK VINA RESULT:      -6.7      4.318      7.378
REMARK  7 active torsions:
REMARK  status: ('A' for Active; 'I' for Inactive)
REMARK    1  A    between atoms: O_2  and  C_3 
REMARK    2  A    between atoms: C_4  and  O_5 
REMARK    3  A    between atoms: C_9  and  C_10 
REMARK    4  A    between atoms: C_10  and  N_11 
REMARK    5  A    between atoms: C_14  and  C_15 
REMARK    6  A    between atoms: C_15  and  N_16 
REMARK    7  A    between atoms: N_16  and  C_17 
ROOT
HETATM    1  N   UNL     1      41.962 -15.330   1.165  1.00  0.00    -0.067 N 
HETATM    2  H   UNL     1      41.834 -15.548   0.165  1.00  0.00     0.280 HD
HETATM    3  C   UNL     1      41.034 -16.263   1.920  1.00  0.00     0.241 C 
HETATM    4  C   UNL     1      41.904 -16.945   2.974  1.00  0.00     0.031 C 
HETATM    5  C   UNL     1      43.261 -17.015   2.278  1.00  0.00     0.035 C 
HETATM    6  C   UNL     1      43.387 -15.703   1.522  1.00  0.00     0.235 C 
ENDROOT
BRANCH   1   7
HETATM    7  C   UNL     1      41.694 -13.845   1.284  1.00  0.00     0.273 C 
BRANCH   7   8
HETATM    8  C   UNL     1      40.560 -13.355   0.425  1.00  0.00    -0.028 A 
HETATM    9  C   UNL     1      40.173 -14.066  -0.720  1.00  0.00     0.031 A 
HETATM   10  C   UNL     1      39.081 -13.637  -1.481  1.00  0.00     0.047 A 
HETATM   11  C   UNL     1      38.378 -12.494  -1.104  1.00  0.00     0.116 A 
HETATM   12 BR   UNL     1      38.594 -14.652  -3.003  1.00  0.00    -0.048 Br
HETATM   13  C   UNL     1      38.764 -11.755   0.019  1.00  0.00     0.103 A 
HETATM   14  C   UNL     1      39.854 -12.187   0.780  1.00  0.00     0.048 A 
BRANCH  11  15
HETATM   15  O   UNL     1      37.296 -12.079  -1.833  1.00  0.00    -0.357 OA
HETATM   16  H   UNL     1      37.630 -11.474  -2.524  1.00  0.00     0.218 HD
ENDBRANCH  11  15
BRANCH  13  17
HETATM   17  O   UNL     1      37.988 -10.658   0.286  1.00  0.00    -0.353 OA
HETATM   18  C   UNL     1      38.651  -9.433   0.577  1.00  0.00     0.210 C 
ENDBRANCH  13  17
ENDBRANCH   7   8
ENDBRANCH   1   7
BRANCH   4  19
HETATM   19  C   UNL     1      41.900 -16.156   4.296  1.00  0.00     0.127 C 
BRANCH  19  20
HETATM   20  N   UNL     1      40.616 -15.486   4.514  1.00  0.00    -0.376 N 
HETATM   21  H   UNL     1      39.840 -15.862   3.974  1.00  0.00     0.161 HD
BRANCH  20  22
HETATM   22  C   UNL     1      40.592 -14.116   4.751  1.00  0.00     0.100 A 
HETATM   23  N   UNL     1      39.566 -13.396   4.263  1.00  0.00    -0.353 N 
HETATM   24  H   UNL     1      38.841 -13.881   3.741  1.00  0.00     0.166 HD
HETATM   25  C   UNL     1      39.435 -12.070   4.435  1.00  0.00     0.089 A 
HETATM   26  C   UNL     1      40.379 -11.365   5.162  1.00  0.00     0.017 A 
HETATM   27  C   UNL     1      41.446 -12.058   5.716  1.00  0.00     0.005 A 
HETATM   28  C   UNL     1      41.548 -13.435   5.519  1.00  0.00     0.048 A 
ENDBRANCH  20  22
ENDBRANCH  19  20
ENDBRANCH   4  19
TORSDOF 7
ENDMDL
MODEL 9
REMARK VINA RESULT:      -6.6     11.289     14.053
REMARK  7 active torsions:
REMARK  status: ('A' for Active; 'I' for Inactive)
REMARK    1  A    between atoms: O_2  and  C_3 
REMARK    2  A    between atoms: C_4  and  O_5 
REMARK    3  A    between atoms: C_9  and  C_10 
REMARK    4  A    between atoms: C_10  and  N_11 
REMARK    5  A    between atoms: C_14  and  C_15 
REMARK    6  A    between atoms: C_15  and  N_16 
REMARK    7  A    between atoms: N_16  and  C_17 
ROOT
HETATM    1  N   UNL     1      41.140  -8.237  12.635  1.00  0.00    -0.067 N 
HETATM    2  H   UNL     1      40.904  -7.948  13.597  1.00  0.00     0.280 HD
HETATM    3  C   UNL     1      42.568  -7.781  12.399  1.00  0.00     0.241 C 
HETATM    4  C   UNL     1      43.315  -9.014  11.895  1.00  0.00     0.031 C 
HETATM    5  C   UNL     1      42.592 -10.148  12.617  1.00  0.00     0.035 C 
HETATM    6  C   UNL     1      41.125  -9.752  12.609  1.00  0.00     0.235 C 
ENDROOT
BRANCH   1   7
HETATM    7  C   UNL     1      40.066  -7.622  11.763  1.00  0.00     0.273 C 
BRANCH   7   8
HETATM    8  C   UNL     1      39.146  -6.681  12.492  1.00  0.00    -0.028 A 
HETATM    9  C   UNL     1      38.300  -5.816  11.781  1.00  0.00     0.031 A 
HETATM   10  C   UNL     1      37.407  -4.986  12.464  1.00  0.00     0.047 A 
HETATM   11  C   UNL     1      37.360  -5.012  13.857  1.00  0.00     0.116 A 
HETATM   12 BR   UNL     1      36.275  -3.858  11.448  1.00  0.00    -0.048 Br
HETATM   13  C   UNL     1      38.213  -5.846  14.586  1.00  0.00     0.103 A 
HETATM   14  C   UNL     1      39.105  -6.678  13.901  1.00  0.00     0.048 A 
BRANCH  11  15
HETATM   15  O   UNL     1      36.473  -4.216  14.531  1.00  0.00    -0.357 OA
HETATM   16  H   UNL     1      36.264  -4.667  15.372  1.00  0.00     0.218 HD
ENDBRANCH  11  15
BRANCH  13  17
HETATM   17  O   UNL     1      38.064  -5.783  15.946  1.00  0.00    -0.353 OA
HETATM   18  C   UNL     1      39.175  -5.338  16.714  1.00  0.00     0.210 C 
ENDBRANCH  13  17
ENDBRANCH   7   8
ENDBRANCH   1   7
BRANCH   4  19
HETATM   19  C   UNL     1      43.275  -9.101  10.359  1.00  0.00     0.127 C 
BRANCH  19  20
HETATM   20  N   UNL     1      43.372 -10.488   9.899  1.00  0.00    -0.376 N 
HETATM   21  H   UNL     1      43.318 -11.188  10.635  1.00  0.00     0.161 HD
BRANCH  20  22
HETATM   22  C   UNL     1      44.195 -10.794   8.821  1.00  0.00     0.100 A 
HETATM   23  N   UNL     1      43.728 -11.620   7.867  1.00  0.00    -0.353 N 
HETATM   24  H   UNL     1      42.787 -11.989   7.967  1.00  0.00     0.166 HD
HETATM   25  C   UNL     1      44.430 -11.979   6.780  1.00  0.00     0.089 A 
HETATM   26  C   UNL     1      45.708 -11.483   6.580  1.00  0.00     0.017 A 
HETATM   27  C   UNL     1      46.233 -10.602   7.513  1.00  0.00     0.005 A 
HETATM   28  C   UNL     1      45.475 -10.249   8.630  1.00  0.00     0.048 A 
ENDBRANCH  20  22
ENDBRANCH  19  20
ENDBRANCH   4  19
TORSDOF 7
ENDMDL
MODEL 10
REMARK VINA RESULT:      -6.5      3.612      6.498
REMARK  7 active torsions:
REMARK  status: ('A' for Active; 'I' for Inactive)
REMARK    1  A    between atoms: O_2  and  C_3 
REMARK    2  A    between atoms: C_4  and  O_5 
REMARK    3  A    between atoms: C_9  and  C_10 
REMARK    4  A    between atoms: C_10  and  N_11 
REMARK    5  A    between atoms: C_14  and  C_15 
REMARK    6  A    between atoms: C_15  and  N_16 
REMARK    7  A    between atoms: N_16  and  C_17 
ROOT
HETATM    1  N   UNL     1      40.219 -13.289   2.824  1.00  0.00    -0.067 N 
HETATM    2  H   UNL     1      39.676 -12.504   2.433  1.00  0.00     0.280 HD
HETATM    3  C   UNL     1      39.786 -14.522   2.052  1.00  0.00     0.241 C 
HETATM    4  C   UNL     1      41.077 -15.170   1.556  1.00  0.00     0.031 C 
HETATM    5  C   UNL     1      41.986 -13.962   1.345  1.00  0.00     0.035 C 
HETATM    6  C   UNL     1      41.676 -13.026   2.501  1.00  0.00     0.235 C 
ENDROOT
BRANCH   1   7
HETATM    7  C   UNL     1      39.931 -13.269   4.309  1.00  0.00     0.273 C 
BRANCH   7   8
HETATM    8  C   UNL     1      41.149 -13.063   5.169  1.00  0.00    -0.028 A 
HETATM    9  C   UNL     1      41.954 -14.151   5.537  1.00  0.00     0.031 A 
HETATM   10  C   UNL     1      43.116 -13.946   6.288  1.00  0.00     0.047 A 
HETATM   11  C   UNL     1      43.473 -12.656   6.676  1.00  0.00     0.116 A 
HETATM   12 BR   UNL     1      44.173 -15.452   6.735  1.00  0.00    -0.048 Br
HETATM   13  C   UNL     1      42.670 -11.560   6.342  1.00  0.00     0.103 A 
HETATM   14  C   UNL     1      41.510 -11.767   5.590  1.00  0.00     0.048 A 
BRANCH  11  15
HETATM   15  O   UNL     1      44.620 -12.446   7.393  1.00  0.00    -0.357 OA
HETATM   16  H   UNL     1      44.501 -11.612   7.888  1.00  0.00     0.218 HD
ENDBRANCH  11  15
BRANCH  13  17
HETATM   17  O   UNL     1      43.135 -10.347   6.777  1.00  0.00    -0.353 OA
HETATM   18  C   UNL     1      42.357  -9.648   7.742  1.00  0.00     0.210 C 
ENDBRANCH  13  17
ENDBRANCH   7   8
ENDBRANCH   1   7
BRANCH   4  19
HETATM   19  C   UNL     1      41.606 -16.204   2.567  1.00  0.00     0.127 C 
BRANCH  19  20
HETATM   20  N   UNL     1      42.778 -16.910   2.047  1.00  0.00    -0.376 N 
HETATM   21  H   UNL     1      42.873 -16.894   1.034  1.00  0.00     0.161 HD
BRANCH  20  22
HETATM   22  C   UNL     1      43.220 -18.064   2.685  1.00  0.00     0.100 A 
HETATM   23  N   UNL     1      43.727 -17.959   3.927  1.00  0.00    -0.353 N 
HETATM   24  H   UNL     1      43.765 -17.039   4.356  1.00  0.00     0.166 HD
HETATM   25  C   UNL     1      44.175 -19.004   4.642  1.00  0.00     0.089 A 
HETATM   26  C   UNL     1      44.120 -20.284   4.115  1.00  0.00     0.017 A 
HETATM   27  C   UNL     1      43.580 -20.460   2.850  1.00  0.00     0.005 A 
HETATM   28  C   UNL     1      43.121 -19.352   2.137  1.00  0.00     0.048 A 
ENDBRANCH  20  22
ENDBRANCH  19  20
ENDBRANCH   4  19
TORSDOF 7
ENDMDL
