MODEL 1
REMARK VINA RESULT:      -6.8      0.000      0.000
REMARK  10 active torsions:
REMARK  status: ('A' for Active; 'I' for Inactive)
REMARK    1  A    between atoms: C_2  and  C_3 
REMARK    2  A    between atoms: C_3  and  C_4 
REMARK       I    between atoms: C_4  and  N_5 
REMARK    3  A    between atoms: N_5  and  C_6 
REMARK    4  A    between atoms: C_6  and  N_7 
REMARK    5  A    between atoms: C_6  and  C_21 
REMARK    6  A    between atoms: N_7  and  C_8 
REMARK    7  A    between atoms: C_8  and  N_9 
REMARK    8  A    between atoms: N_9  and  N_10 
REMARK       I    between atoms: N_10  and  C_11 
REMARK    9  A    between atoms: C_11  and  C_12 
REMARK   10  A    between atoms: C_13  and  O_14 
ROOT
HETATM    1  C   UNL     1      39.213 -12.666   2.613  1.00  0.00     0.188 C 
HETATM    2  S   UNL     1      39.079 -11.007   2.552  1.00  0.00    -0.039 SA
ENDROOT
BRANCH   1   3
HETATM    3  N   UNL     1      39.357 -13.505   1.547  1.00  0.00    -0.341 N 
HETATM    4  H   UNL     1      38.622 -14.190   1.419  1.00  0.00     0.164 HD
BRANCH   3   5
HETATM    5  C   UNL     1      40.329 -13.444   0.461  1.00  0.00     0.241 C 
BRANCH   5   6
HETATM    6  N   UNL     1      41.327 -14.488   0.666  1.00  0.00    -0.336 N 
HETATM    7  C   UNL     1      42.329 -14.433   1.602  1.00  0.00     0.219 C 
HETATM    8  O   UNL     1      42.561 -13.434   2.270  1.00  0.00    -0.274 OA
HETATM    9  H   UNL     1      41.209 -15.342   0.135  1.00  0.00     0.164 HD
BRANCH   7  10
HETATM   10  C   UNL     1      43.122 -15.728   1.683  1.00  0.00     0.102 C 
BRANCH  10  11
HETATM   11  C   UNL     1      42.533 -16.761   2.639  1.00  0.00     0.005 C 
HETATM   12  C   UNL     1      43.541 -17.818   3.065  1.00  0.00     0.005 C 
ENDBRANCH  10  11
ENDBRANCH   7  10
ENDBRANCH   5   6
BRANCH   5  13
HETATM   13  C   UNL     1      39.670 -13.349  -0.986  1.00  0.00     0.226 C 
HETATM   14 CL   UNL     1      38.163 -12.361  -0.942  1.00  0.00    -0.080 Cl
HETATM   15 CL   UNL     1      40.772 -12.662  -2.230  1.00  0.00    -0.080 Cl
HETATM   16 CL   UNL     1      39.208 -14.999  -1.557  1.00  0.00    -0.080 Cl
ENDBRANCH   5  13
ENDBRANCH   3   5
ENDBRANCH   1   3
BRANCH   1  17
HETATM   17  N   UNL     1      39.206 -13.293   3.837  1.00  0.00    -0.274 N 
HETATM   18  H   UNL     1      38.280 -13.545   4.191  1.00  0.00     0.189 HD
BRANCH  17  19
HETATM   19  N   UNL     1      40.243 -14.182   4.187  1.00  0.00    -0.264 N 
HETATM   20  C   UNL     1      40.493 -14.331   5.544  1.00  0.00     0.272 C 
HETATM   21  O   UNL     1      39.786 -13.822   6.412  1.00  0.00    -0.266 OA
HETATM   22  H   UNL     1      41.000 -14.270   3.513  1.00  0.00     0.190 HD
BRANCH  20  23
HETATM   23  C   UNL     1      41.718 -15.079   5.938  1.00  0.00     0.066 A 
HETATM   24  C   UNL     1      42.980 -14.524   5.668  1.00  0.00     0.081 A 
HETATM   25  C   UNL     1      44.145 -15.213   5.998  1.00  0.00     0.037 A 
HETATM   26  C   UNL     1      44.065 -16.458   6.619  1.00  0.00     0.003 A 
HETATM   27  C   UNL     1      42.819 -17.007   6.920  1.00  0.00     0.001 A 
HETATM   28  C   UNL     1      41.646 -16.322   6.586  1.00  0.00     0.020 A 
BRANCH  24  29
HETATM   29  O   UNL     1      43.154 -13.301   5.074  1.00  0.00    -0.360 OA
HETATM   30  H   UNL     1      43.873 -12.830   5.551  1.00  0.00     0.217 HD
ENDBRANCH  24  29
ENDBRANCH  20  23
ENDBRANCH  17  19
ENDBRANCH   1  17
TORSDOF 10
ENDMDL
MODEL 2
REMARK VINA RESULT:      -6.6      3.599      6.421
REMARK  10 active torsions:
REMARK  status: ('A' for Active; 'I' for Inactive)
REMARK    1  A    between atoms: C_2  and  C_3 
REMARK    2  A    between atoms: C_3  and  C_4 
REMARK       I    between atoms: C_4  and  N_5 
REMARK    3  A    between atoms: N_5  and  C_6 
REMARK    4  A    between atoms: C_6  and  N_7 
REMARK    5  A    between atoms: C_6  and  C_21 
REMARK    6  A    between atoms: N_7  and  C_8 
REMARK    7  A    between atoms: C_8  and  N_9 
REMARK    8  A    between atoms: N_9  and  N_10 
REMARK       I    between atoms: N_10  and  C_11 
REMARK    9  A    between atoms: C_11  and  C_12 
REMARK   10  A    between atoms: C_13  and  O_14 
ROOT
HETATM    1  C   UNL     1      39.910 -13.367   3.824  1.00  0.00     0.188 C 
HETATM    2  S   UNL     1      39.747 -12.031   4.805  1.00  0.00    -0.039 SA
ENDROOT
BRANCH   1   3
HETATM    3  N   UNL     1      40.924 -14.279   3.862  1.00  0.00    -0.341 N 
HETATM    4  H   UNL     1      41.846 -13.926   3.636  1.00  0.00     0.164 HD
BRANCH   3   5
HETATM    5  C   UNL     1      40.900 -15.652   4.354  1.00  0.00     0.241 C 
BRANCH   5   6
HETATM    6  N   UNL     1      41.572 -16.509   3.382  1.00  0.00    -0.336 N 
HETATM    7  C   UNL     1      42.831 -16.283   2.885  1.00  0.00     0.219 C 
HETATM    8  O   UNL     1      43.462 -15.260   3.115  1.00  0.00    -0.274 OA
HETATM    9  H   UNL     1      41.102 -17.369   3.132  1.00  0.00     0.164 HD
BRANCH   7  10
HETATM   10  C   UNL     1      43.324 -17.421   2.006  1.00  0.00     0.102 C 
BRANCH  10  11
HETATM   11  C   UNL     1      43.755 -18.664   2.780  1.00  0.00     0.005 C 
HETATM   12  C   UNL     1      43.302 -19.958   2.121  1.00  0.00     0.005 C 
ENDBRANCH  10  11
ENDBRANCH   7  10
ENDBRANCH   5   6
BRANCH   5  13
HETATM   13  C   UNL     1      41.346 -15.798   5.875  1.00  0.00     0.226 C 
HETATM   14 CL   UNL     1      39.909 -15.887   6.961  1.00  0.00    -0.080 Cl
HETATM   15 CL   UNL     1      42.388 -17.231   6.181  1.00  0.00    -0.080 Cl
HETATM   16 CL   UNL     1      42.301 -14.348   6.375  1.00  0.00    -0.080 Cl
ENDBRANCH   5  13
ENDBRANCH   3   5
ENDBRANCH   1   3
BRANCH   1  17
HETATM   17  N   UNL     1      38.940 -13.629   2.885  1.00  0.00    -0.274 N 
HETATM   18  H   UNL     1      37.982 -13.642   3.241  1.00  0.00     0.189 HD
BRANCH  17  19
HETATM   19  N   UNL     1      39.082 -13.154   1.564  1.00  0.00    -0.264 N 
HETATM   20  C   UNL     1      39.762 -13.982   0.682  1.00  0.00     0.272 C 
HETATM   21  O   UNL     1      40.123 -15.120   0.980  1.00  0.00    -0.266 OA
HETATM   22  H   UNL     1      39.127 -12.144   1.458  1.00  0.00     0.190 HD
BRANCH  20  23
HETATM   23  C   UNL     1      40.126 -13.419  -0.646  1.00  0.00     0.066 A 
HETATM   24  C   UNL     1      39.663 -14.052  -1.812  1.00  0.00     0.081 A 
HETATM   25  C   UNL     1      40.012 -13.568  -3.071  1.00  0.00     0.037 A 
HETATM   26  C   UNL     1      40.812 -12.432  -3.181  1.00  0.00     0.003 A 
HETATM   27  C   UNL     1      41.254 -11.777  -2.032  1.00  0.00     0.001 A 
HETATM   28  C   UNL     1      40.911 -12.263  -0.767  1.00  0.00     0.020 A 
BRANCH  24  29
HETATM   29  O   UNL     1      38.861 -15.163  -1.798  1.00  0.00    -0.360 OA
HETATM   30  H   UNL     1      39.289 -15.842  -1.230  1.00  0.00     0.217 HD
ENDBRANCH  24  29
ENDBRANCH  20  23
ENDBRANCH  17  19
ENDBRANCH   1  17
TORSDOF 10
ENDMDL
MODEL 3
REMARK VINA RESULT:      -6.5      3.785      6.821
REMARK  10 active torsions:
REMARK  status: ('A' for Active; 'I' for Inactive)
REMARK    1  A    between atoms: C_2  and  C_3 
REMARK    2  A    between atoms: C_3  and  C_4 
REMARK       I    between atoms: C_4  and  N_5 
REMARK    3  A    between atoms: N_5  and  C_6 
REMARK    4  A    between atoms: C_6  and  N_7 
REMARK    5  A    between atoms: C_6  and  C_21 
REMARK    6  A    between atoms: N_7  and  C_8 
REMARK    7  A    between atoms: C_8  and  N_9 
REMARK    8  A    between atoms: N_9  and  N_10 
REMARK       I    between atoms: N_10  and  C_11 
REMARK    9  A    between atoms: C_11  and  C_12 
REMARK   10  A    between atoms: C_13  and  O_14 
ROOT
HETATM    1  C   UNL     1      42.578 -13.735   2.454  1.00  0.00     0.188 C 
HETATM    2  S   UNL     1      42.095 -12.144   2.560  1.00  0.00    -0.039 SA
ENDROOT
BRANCH   1   3
HETATM    3  N   UNL     1      43.173 -14.466   3.439  1.00  0.00    -0.341 N 
HETATM    4  H   UNL     1      44.140 -14.236   3.639  1.00  0.00     0.164 HD
BRANCH   3   5
HETATM    5  C   UNL     1      42.567 -15.412   4.368  1.00  0.00     0.241 C 
BRANCH   5   6
HETATM    6  N   UNL     1      43.274 -16.685   4.269  1.00  0.00    -0.336 N 
HETATM    7  C   UNL     1      43.237 -17.512   3.174  1.00  0.00     0.219 C 
HETATM    8  O   UNL     1      42.495 -17.319   2.221  1.00  0.00    -0.274 OA
HETATM    9  H   UNL     1      43.898 -16.920   5.030  1.00  0.00     0.164 HD
BRANCH   7  10
HETATM   10  C   UNL     1      44.189 -18.691   3.303  1.00  0.00     0.102 C 
BRANCH  10  11
HETATM   11  C   UNL     1      43.538 -20.048   3.050  1.00  0.00     0.005 C 
HETATM   12  C   UNL     1      43.721 -20.536   1.621  1.00  0.00     0.005 C 
ENDBRANCH  10  11
ENDBRANCH   7  10
ENDBRANCH   5   6
BRANCH   5  13
HETATM   13  C   UNL     1      42.343 -14.823   5.830  1.00  0.00     0.226 C 
HETATM   14 CL   UNL     1      42.064 -16.147   7.022  1.00  0.00    -0.080 Cl
HETATM   15 CL   UNL     1      43.709 -13.807   6.409  1.00  0.00    -0.080 Cl
HETATM   16 CL   UNL     1      40.872 -13.773   5.849  1.00  0.00    -0.080 Cl
ENDBRANCH   5  13
ENDBRANCH   3   5
ENDBRANCH   1   3
BRANCH   1  17
HETATM   17  N   UNL     1      42.354 -14.424   1.285  1.00  0.00    -0.274 N 
HETATM   18  H   UNL     1      42.381 -15.443   1.369  1.00  0.00     0.189 HD
BRANCH  17  19
HETATM   19  N   UNL     1      41.446 -13.926   0.328  1.00  0.00    -0.264 N 
HETATM   20  C   UNL     1      40.268 -14.640   0.167  1.00  0.00     0.272 C 
HETATM   21  O   UNL     1      39.958 -15.587   0.889  1.00  0.00    -0.266 OA
HETATM   22  H   UNL     1      41.858 -13.430  -0.459  1.00  0.00     0.190 HD
BRANCH  20  23
HETATM   23  C   UNL     1      39.396 -14.278  -0.983  1.00  0.00     0.066 A 
HETATM   24  C   UNL     1      38.809 -13.002  -1.027  1.00  0.00     0.081 A 
HETATM   25  C   UNL     1      37.964 -12.643  -2.075  1.00  0.00     0.037 A 
HETATM   26  C   UNL     1      37.709 -13.548  -3.104  1.00  0.00     0.003 A 
HETATM   27  C   UNL     1      38.309 -14.807  -3.088  1.00  0.00     0.001 A 
HETATM   28  C   UNL     1      39.153 -15.174  -2.035  1.00  0.00     0.020 A 
BRANCH  24  29
HETATM   29  O   UNL     1      39.015 -12.045  -0.068  1.00  0.00    -0.360 OA
HETATM   30  H   UNL     1      39.438 -12.477   0.708  1.00  0.00     0.217 HD
ENDBRANCH  24  29
ENDBRANCH  20  23
ENDBRANCH  17  19
ENDBRANCH   1  17
TORSDOF 10
ENDMDL
MODEL 4
REMARK VINA RESULT:      -6.4      3.692      4.614
REMARK  10 active torsions:
REMARK  status: ('A' for Active; 'I' for Inactive)
REMARK    1  A    between atoms: C_2  and  C_3 
REMARK    2  A    between atoms: C_3  and  C_4 
REMARK       I    between atoms: C_4  and  N_5 
REMARK    3  A    between atoms: N_5  and  C_6 
REMARK    4  A    between atoms: C_6  and  N_7 
REMARK    5  A    between atoms: C_6  and  C_21 
REMARK    6  A    between atoms: N_7  and  C_8 
REMARK    7  A    between atoms: C_8  and  N_9 
REMARK    8  A    between atoms: N_9  and  N_10 
REMARK       I    between atoms: N_10  and  C_11 
REMARK    9  A    between atoms: C_11  and  C_12 
REMARK   10  A    between atoms: C_13  and  O_14 
ROOT
HETATM    1  C   UNL     1      40.770 -13.252   5.374  1.00  0.00     0.188 C 
HETATM    2  S   UNL     1      39.630 -12.038   5.347  1.00  0.00    -0.039 SA
ENDROOT
BRANCH   1   3
HETATM    3  N   UNL     1      40.973 -14.192   4.406  1.00  0.00    -0.341 N 
HETATM    4  H   UNL     1      40.168 -14.758   4.163  1.00  0.00     0.164 HD
BRANCH   3   5
HETATM    5  C   UNL     1      42.135 -14.383   3.546  1.00  0.00     0.241 C 
BRANCH   5   6
HETATM    6  N   UNL     1      43.116 -15.195   4.258  1.00  0.00    -0.336 N 
HETATM    7  C   UNL     1      42.835 -16.384   4.883  1.00  0.00     0.219 C 
HETATM    8  O   UNL     1      41.697 -16.814   5.014  1.00  0.00    -0.274 OA
HETATM    9  H   UNL     1      44.081 -14.893   4.207  1.00  0.00     0.164 HD
BRANCH   7  10
HETATM   10  C   UNL     1      44.083 -17.074   5.411  1.00  0.00     0.102 C 
BRANCH  10  11
HETATM   11  C   UNL     1      44.268 -18.502   4.904  1.00  0.00     0.005 C 
HETATM   12  C   UNL     1      44.094 -18.623   3.397  1.00  0.00     0.005 C 
ENDBRANCH  10  11
ENDBRANCH   7  10
ENDBRANCH   5   6
BRANCH   5  13
HETATM   13  C   UNL     1      41.770 -14.828   2.062  1.00  0.00     0.226 C 
HETATM   14 CL   UNL     1      41.497 -13.391   1.008  1.00  0.00    -0.080 Cl
HETATM   15 CL   UNL     1      43.021 -15.872   1.300  1.00  0.00    -0.080 Cl
HETATM   16 CL   UNL     1      40.235 -15.781   2.069  1.00  0.00    -0.080 Cl
ENDBRANCH   5  13
ENDBRANCH   3   5
ENDBRANCH   1   3
BRANCH   1  17
HETATM   17  N   UNL     1      41.627 -13.340   6.445  1.00  0.00    -0.274 N 
HETATM   18  H   UNL     1      42.128 -14.227   6.530  1.00  0.00     0.189 HD
BRANCH  17  19
HETATM   19  N   UNL     1      42.343 -12.205   6.879  1.00  0.00    -0.264 N 
HETATM   20  C   UNL     1      43.716 -12.353   7.002  1.00  0.00     0.272 C 
HETATM   21  O   UNL     1      44.312 -13.368   6.644  1.00  0.00    -0.266 OA
HETATM   22  H   UNL     1      41.838 -11.569   7.493  1.00  0.00     0.190 HD
BRANCH  20  23
HETATM   23  C   UNL     1      44.469 -11.256   7.668  1.00  0.00     0.066 A 
HETATM   24  C   UNL     1      45.651 -10.777   7.081  1.00  0.00     0.081 A 
HETATM   25  C   UNL     1      46.395  -9.772   7.696  1.00  0.00     0.037 A 
HETATM   26  C   UNL     1      45.956  -9.218   8.897  1.00  0.00     0.003 A 
HETATM   27  C   UNL     1      44.769  -9.665   9.477  1.00  0.00     0.001 A 
HETATM   28  C   UNL     1      44.022 -10.677   8.866  1.00  0.00     0.020 A 
BRANCH  24  29
HETATM   29  O   UNL     1      46.149 -11.251   5.895  1.00  0.00    -0.360 OA
HETATM   30  H   UNL     1      45.459 -11.812   5.477  1.00  0.00     0.217 HD
ENDBRANCH  24  29
ENDBRANCH  20  23
ENDBRANCH  17  19
ENDBRANCH   1  17
TORSDOF 10
ENDMDL
MODEL 5
REMARK VINA RESULT:      -6.4      5.157      6.160
REMARK  10 active torsions:
REMARK  status: ('A' for Active; 'I' for Inactive)
REMARK    1  A    between atoms: C_2  and  C_3 
REMARK    2  A    between atoms: C_3  and  C_4 
REMARK       I    between atoms: C_4  and  N_5 
REMARK    3  A    between atoms: N_5  and  C_6 
REMARK    4  A    between atoms: C_6  and  N_7 
REMARK    5  A    between atoms: C_6  and  C_21 
REMARK    6  A    between atoms: N_7  and  C_8 
REMARK    7  A    between atoms: C_8  and  N_9 
REMARK    8  A    between atoms: N_9  and  N_10 
REMARK       I    between atoms: N_10  and  C_11 
REMARK    9  A    between atoms: C_11  and  C_12 
REMARK   10  A    between atoms: C_13  and  O_14 
ROOT
HETATM    1  C   UNL     1      43.552 -12.921   5.818  1.00  0.00     0.188 C 
HETATM    2  S   UNL     1      43.576 -11.596   4.809  1.00  0.00    -0.039 SA
ENDROOT
BRANCH   1   3
HETATM    3  N   UNL     1      43.165 -14.185   5.483  1.00  0.00    -0.341 N 
HETATM    4  H   UNL     1      43.198 -14.871   6.229  1.00  0.00     0.164 HD
BRANCH   3   5
HETATM    5  C   UNL     1      42.542 -14.653   4.250  1.00  0.00     0.241 C 
BRANCH   5   6
HETATM    6  N   UNL     1      43.201 -15.887   3.832  1.00  0.00    -0.336 N 
HETATM    7  C   UNL     1      43.396 -16.978   4.643  1.00  0.00     0.219 C 
HETATM    8  O   UNL     1      43.149 -16.968   5.841  1.00  0.00    -0.274 OA
HETATM    9  H   UNL     1      43.449 -15.961   2.854  1.00  0.00     0.164 HD
BRANCH   7  10
HETATM   10  C   UNL     1      43.974 -18.165   3.890  1.00  0.00     0.102 C 
BRANCH  10  11
HETATM   11  C   UNL     1      43.352 -18.396   2.516  1.00  0.00     0.005 C 
HETATM   12  C   UNL     1      43.309 -19.866   2.125  1.00  0.00     0.005 C 
ENDBRANCH  10  11
ENDBRANCH   7  10
ENDBRANCH   5   6
BRANCH   5  13
HETATM   13  C   UNL     1      40.951 -14.666   4.299  1.00  0.00     0.226 C 
HETATM   14 CL   UNL     1      40.280 -13.064   3.815  1.00  0.00    -0.080 Cl
HETATM   15 CL   UNL     1      40.214 -15.935   3.261  1.00  0.00    -0.080 Cl
HETATM   16 CL   UNL     1      40.392 -14.988   5.987  1.00  0.00    -0.080 Cl
ENDBRANCH   5  13
ENDBRANCH   3   5
ENDBRANCH   1   3
BRANCH   1  17
HETATM   17  N   UNL     1      43.976 -12.778   7.119  1.00  0.00    -0.274 N 
HETATM   18  H   UNL     1      44.950 -13.036   7.290  1.00  0.00     0.189 HD
BRANCH  17  19
HETATM   19  N   UNL     1      43.488 -11.719   7.913  1.00  0.00    -0.264 N 
HETATM   20  C   UNL     1      44.443 -10.913   8.517  1.00  0.00     0.272 C 
HETATM   21  O   UNL     1      45.647 -11.022   8.291  1.00  0.00    -0.266 OA
HETATM   22  H   UNL     1      42.591 -11.879   8.365  1.00  0.00     0.190 HD
BRANCH  20  23
HETATM   23  C   UNL     1      43.972  -9.936   9.535  1.00  0.00     0.066 A 
HETATM   24  C   UNL     1      43.601 -10.395  10.810  1.00  0.00     0.081 A 
HETATM   25  C   UNL     1      43.127  -9.509  11.775  1.00  0.00     0.037 A 
HETATM   26  C   UNL     1      43.036  -8.149  11.486  1.00  0.00     0.003 A 
HETATM   27  C   UNL     1      43.429  -7.676  10.234  1.00  0.00     0.001 A 
HETATM   28  C   UNL     1      43.900  -8.562   9.260  1.00  0.00     0.020 A 
BRANCH  24  29
HETATM   29  O   UNL     1      43.671 -11.711  11.187  1.00  0.00    -0.360 OA
HETATM   30  H   UNL     1      42.804 -11.964  11.575  1.00  0.00     0.217 HD
ENDBRANCH  24  29
ENDBRANCH  20  23
ENDBRANCH  17  19
ENDBRANCH   1  17
TORSDOF 10
ENDMDL
MODEL 6
REMARK VINA RESULT:      -6.4      2.776      4.508
REMARK  10 active torsions:
REMARK  status: ('A' for Active; 'I' for Inactive)
REMARK    1  A    between atoms: C_2  and  C_3 
REMARK    2  A    between atoms: C_3  and  C_4 
REMARK       I    between atoms: C_4  and  N_5 
REMARK    3  A    between atoms: N_5  and  C_6 
REMARK    4  A    between atoms: C_6  and  N_7 
REMARK    5  A    between atoms: C_6  and  C_21 
REMARK    6  A    between atoms: N_7  and  C_8 
REMARK    7  A    between atoms: C_8  and  N_9 
REMARK    8  A    between atoms: N_9  and  N_10 
REMARK       I    between atoms: N_10  and  C_11 
REMARK    9  A    between atoms: C_11  and  C_12 
REMARK   10  A    between atoms: C_13  and  O_14 
ROOT
HETATM    1  C   UNL     1      40.497 -14.089   3.920  1.00  0.00     0.188 C 
HETATM    2  S   UNL     1      40.400 -13.983   5.580  1.00  0.00    -0.039 SA
ENDROOT
BRANCH   1   3
HETATM    3  N   UNL     1      39.556 -13.667   3.027  1.00  0.00    -0.341 N 
HETATM    4  H   UNL     1      38.598 -13.921   3.239  1.00  0.00     0.164 HD
BRANCH   3   5
HETATM    5  C   UNL     1      39.710 -12.752   1.902  1.00  0.00     0.241 C 
BRANCH   5   6
HETATM    6  N   UNL     1      39.344 -13.452   0.675  1.00  0.00    -0.336 N 
HETATM    7  C   UNL     1      40.078 -14.465   0.110  1.00  0.00     0.219 C 
HETATM    8  O   UNL     1      41.186 -14.790   0.516  1.00  0.00    -0.274 OA
HETATM    9  H   UNL     1      38.445 -13.225   0.272  1.00  0.00     0.164 HD
BRANCH   7  10
HETATM   10  C   UNL     1      39.375 -15.101  -1.079  1.00  0.00     0.102 C 
BRANCH  10  11
HETATM   11  C   UNL     1      39.222 -14.173  -2.282  1.00  0.00     0.005 C 
HETATM   12  C   UNL     1      38.343 -14.762  -3.375  1.00  0.00     0.005 C 
ENDBRANCH  10  11
ENDBRANCH   7  10
ENDBRANCH   5   6
BRANCH   5  13
HETATM   13  C   UNL     1      39.049 -11.323   2.142  1.00  0.00     0.226 C 
HETATM   14 CL   UNL     1      38.942 -10.951   3.903  1.00  0.00    -0.080 Cl
HETATM   15 CL   UNL     1      39.925  -9.983   1.323  1.00  0.00    -0.080 Cl
HETATM   16 CL   UNL     1      37.362 -11.312   1.493  1.00  0.00    -0.080 Cl
ENDBRANCH   5  13
ENDBRANCH   3   5
ENDBRANCH   1   3
BRANCH   1  17
HETATM   17  N   UNL     1      41.626 -14.628   3.350  1.00  0.00    -0.274 N 
HETATM   18  H   UNL     1      42.488 -14.103   3.512  1.00  0.00     0.189 HD
BRANCH  17  19
HETATM   19  N   UNL     1      41.784 -16.027   3.268  1.00  0.00    -0.264 N 
HETATM   20  C   UNL     1      42.946 -16.548   3.817  1.00  0.00     0.272 C 
HETATM   21  O   UNL     1      43.750 -15.865   4.450  1.00  0.00    -0.266 OA
HETATM   22  H   UNL     1      41.347 -16.477   2.467  1.00  0.00     0.190 HD
BRANCH  20  23
HETATM   23  C   UNL     1      43.250 -17.980   3.549  1.00  0.00     0.066 A 
HETATM   24  C   UNL     1      43.751 -18.783   4.587  1.00  0.00     0.081 A 
HETATM   25  C   UNL     1      44.074 -20.119   4.361  1.00  0.00     0.037 A 
HETATM   26  C   UNL     1      43.883 -20.676   3.098  1.00  0.00     0.003 A 
HETATM   27  C   UNL     1      43.359 -19.898   2.066  1.00  0.00     0.001 A 
HETATM   28  C   UNL     1      43.039 -18.555   2.287  1.00  0.00     0.020 A 
BRANCH  24  29
HETATM   29  O   UNL     1      43.957 -18.324   5.862  1.00  0.00    -0.360 OA
HETATM   30  H   UNL     1      43.082 -18.259   6.308  1.00  0.00     0.217 HD
ENDBRANCH  24  29
ENDBRANCH  20  23
ENDBRANCH  17  19
ENDBRANCH   1  17
TORSDOF 10
ENDMDL
MODEL 7
REMARK VINA RESULT:      -6.3      3.812      4.703
REMARK  10 active torsions:
REMARK  status: ('A' for Active; 'I' for Inactive)
REMARK    1  A    between atoms: C_2  and  C_3 
REMARK    2  A    between atoms: C_3  and  C_4 
REMARK       I    between atoms: C_4  and  N_5 
REMARK    3  A    between atoms: N_5  and  C_6 
REMARK    4  A    between atoms: C_6  and  N_7 
REMARK    5  A    between atoms: C_6  and  C_21 
REMARK    6  A    between atoms: N_7  and  C_8 
REMARK    7  A    between atoms: C_8  and  N_9 
REMARK    8  A    between atoms: N_9  and  N_10 
REMARK       I    between atoms: N_10  and  C_11 
REMARK    9  A    between atoms: C_11  and  C_12 
REMARK   10  A    between atoms: C_13  and  O_14 
ROOT
HETATM    1  C   UNL     1      41.821 -14.465   5.734  1.00  0.00     0.188 C 
HETATM    2  S   UNL     1      40.479 -15.163   6.432  1.00  0.00    -0.039 SA
ENDROOT
BRANCH   1   3
HETATM    3  N   UNL     1      41.876 -13.866   4.509  1.00  0.00    -0.341 N 
HETATM    4  H   UNL     1      42.054 -12.869   4.511  1.00  0.00     0.164 HD
BRANCH   3   5
HETATM    5  C   UNL     1      41.891 -14.487   3.189  1.00  0.00     0.241 C 
BRANCH   5   6
HETATM    6  N   UNL     1      42.329 -15.872   3.328  1.00  0.00    -0.336 N 
HETATM    7  C   UNL     1      43.180 -16.510   2.460  1.00  0.00     0.219 C 
HETATM    8  O   UNL     1      43.551 -16.010   1.406  1.00  0.00    -0.274 OA
HETATM    9  H   UNL     1      42.047 -16.356   4.171  1.00  0.00     0.164 HD
BRANCH   7  10
HETATM   10  C   UNL     1      43.571 -17.897   2.942  1.00  0.00     0.102 C 
BRANCH  10  11
HETATM   11  C   UNL     1      42.862 -19.034   2.212  1.00  0.00     0.005 C 
HETATM   12  C   UNL     1      43.741 -20.264   2.036  1.00  0.00     0.005 C 
ENDBRANCH  10  11
ENDBRANCH   7  10
ENDBRANCH   5   6
BRANCH   5  13
HETATM   13  C   UNL     1      40.567 -14.229   2.343  1.00  0.00     0.226 C 
HETATM   14 CL   UNL     1      39.693 -15.775   2.031  1.00  0.00    -0.080 Cl
HETATM   15 CL   UNL     1      39.432 -13.074   3.125  1.00  0.00    -0.080 Cl
HETATM   16 CL   UNL     1      40.995 -13.526   0.735  1.00  0.00    -0.080 Cl
ENDBRANCH   5  13
ENDBRANCH   3   5
ENDBRANCH   1   3
BRANCH   1  17
HETATM   17  N   UNL     1      43.005 -14.447   6.433  1.00  0.00    -0.274 N 
HETATM   18  H   UNL     1      43.798 -14.878   5.955  1.00  0.00     0.189 HD
BRANCH  17  19
HETATM   19  N   UNL     1      43.326 -13.350   7.259  1.00  0.00    -0.264 N 
HETATM   20  C   UNL     1      43.996 -12.298   6.651  1.00  0.00     0.272 C 
HETATM   21  O   UNL     1      44.201 -12.249   5.439  1.00  0.00    -0.266 OA
HETATM   22  H   UNL     1      43.491 -13.565   8.239  1.00  0.00     0.190 HD
BRANCH  20  23
HETATM   23  C   UNL     1      44.547 -11.234   7.533  1.00  0.00     0.066 A 
HETATM   24  C   UNL     1      45.797 -10.667   7.229  1.00  0.00     0.081 A 
HETATM   25  C   UNL     1      46.354  -9.691   8.052  1.00  0.00     0.037 A 
HETATM   26  C   UNL     1      45.661  -9.253   9.179  1.00  0.00     0.003 A 
HETATM   27  C   UNL     1      44.407  -9.785   9.475  1.00  0.00     0.001 A 
HETATM   28  C   UNL     1      43.846 -10.770   8.656  1.00  0.00     0.020 A 
BRANCH  24  29
HETATM   29  O   UNL     1      46.541 -11.026   6.136  1.00  0.00    -0.360 OA
HETATM   30  H   UNL     1      46.409 -10.344   5.440  1.00  0.00     0.217 HD
ENDBRANCH  24  29
ENDBRANCH  20  23
ENDBRANCH  17  19
ENDBRANCH   1  17
TORSDOF 10
ENDMDL
MODEL 8
REMARK VINA RESULT:      -6.3      2.549      3.745
REMARK  10 active torsions:
REMARK  status: ('A' for Active; 'I' for Inactive)
REMARK    1  A    between atoms: C_2  and  C_3 
REMARK    2  A    between atoms: C_3  and  C_4 
REMARK       I    between atoms: C_4  and  N_5 
REMARK    3  A    between atoms: N_5  and  C_6 
REMARK    4  A    between atoms: C_6  and  N_7 
REMARK    5  A    between atoms: C_6  and  C_21 
REMARK    6  A    between atoms: N_7  and  C_8 
REMARK    7  A    between atoms: C_8  and  N_9 
REMARK    8  A    between atoms: N_9  and  N_10 
REMARK       I    between atoms: N_10  and  C_11 
REMARK    9  A    between atoms: C_11  and  C_12 
REMARK   10  A    between atoms: C_13  and  O_14 
ROOT
HETATM    1  C   UNL     1      39.793 -13.185   5.225  1.00  0.00     0.188 C 
HETATM    2  S   UNL     1      39.842 -11.694   5.966  1.00  0.00    -0.039 SA
ENDROOT
BRANCH   1   3
HETATM    3  N   UNL     1      39.668 -13.419   3.887  1.00  0.00    -0.341 N 
HETATM    4  H   UNL     1      38.749 -13.706   3.571  1.00  0.00     0.164 HD
BRANCH   3   5
HETATM    5  C   UNL     1      40.622 -13.145   2.818  1.00  0.00     0.241 C 
BRANCH   5   6
HETATM    6  N   UNL     1      41.915 -12.828   3.415  1.00  0.00    -0.336 N 
HETATM    7  C   UNL     1      42.698 -11.760   3.054  1.00  0.00     0.219 C 
HETATM    8  O   UNL     1      42.442 -11.042   2.096  1.00  0.00    -0.274 OA
HETATM    9  H   UNL     1      42.201 -13.390   4.206  1.00  0.00     0.164 HD
BRANCH   7  10
HETATM   10  C   UNL     1      43.915 -11.601   3.950  1.00  0.00     0.102 C 
BRANCH  10  11
HETATM   11  C   UNL     1      43.717 -12.125   5.370  1.00  0.00     0.005 C 
HETATM   12  C   UNL     1      43.676 -11.016   6.410  1.00  0.00     0.005 C 
ENDBRANCH  10  11
ENDBRANCH   7  10
ENDBRANCH   5   6
BRANCH   5  13
HETATM   13  C   UNL     1      40.611 -14.229   1.653  1.00  0.00     0.226 C 
HETATM   14 CL   UNL     1      42.289 -14.734   1.229  1.00  0.00    -0.080 Cl
HETATM   15 CL   UNL     1      39.652 -15.697   2.051  1.00  0.00    -0.080 Cl
HETATM   16 CL   UNL     1      39.877 -13.520   0.162  1.00  0.00    -0.080 Cl
ENDBRANCH   5  13
ENDBRANCH   3   5
ENDBRANCH   1   3
BRANCH   1  17
HETATM   17  N   UNL     1      39.907 -14.319   5.995  1.00  0.00    -0.274 N 
HETATM   18  H   UNL     1      39.127 -14.493   6.631  1.00  0.00     0.189 HD
BRANCH  17  19
HETATM   19  N   UNL     1      40.523 -15.475   5.472  1.00  0.00    -0.264 N 
HETATM   20  C   UNL     1      41.812 -15.738   5.911  1.00  0.00     0.272 C 
HETATM   21  O   UNL     1      42.362 -15.083   6.796  1.00  0.00    -0.266 OA
HETATM   22  H   UNL     1      40.235 -15.746   4.535  1.00  0.00     0.190 HD
BRANCH  20  23
HETATM   23  C   UNL     1      42.570 -16.812   5.215  1.00  0.00     0.066 A 
HETATM   24  C   UNL     1      43.240 -17.785   5.974  1.00  0.00     0.081 A 
HETATM   25  C   UNL     1      43.983 -18.786   5.352  1.00  0.00     0.037 A 
HETATM   26  C   UNL     1      44.051 -18.839   3.961  1.00  0.00     0.003 A 
HETATM   27  C   UNL     1      43.367 -17.896   3.195  1.00  0.00     0.001 A 
HETATM   28  C   UNL     1      42.625 -16.887   3.815  1.00  0.00     0.020 A 
BRANCH  24  29
HETATM   29  O   UNL     1      43.216 -17.820   7.344  1.00  0.00    -0.360 OA
HETATM   30  H   UNL     1      43.581 -16.969   7.677  1.00  0.00     0.217 HD
ENDBRANCH  24  29
ENDBRANCH  20  23
ENDBRANCH  17  19
ENDBRANCH   1  17
TORSDOF 10
ENDMDL
MODEL 9
REMARK VINA RESULT:      -6.2      3.911      5.594
REMARK  10 active torsions:
REMARK  status: ('A' for Active; 'I' for Inactive)
REMARK    1  A    between atoms: C_2  and  C_3 
REMARK    2  A    between atoms: C_3  and  C_4 
REMARK       I    between atoms: C_4  and  N_5 
REMARK    3  A    between atoms: N_5  and  C_6 
REMARK    4  A    between atoms: C_6  and  N_7 
REMARK    5  A    between atoms: C_6  and  C_21 
REMARK    6  A    between atoms: N_7  and  C_8 
REMARK    7  A    between atoms: C_8  and  N_9 
REMARK    8  A    between atoms: N_9  and  N_10 
REMARK       I    between atoms: N_10  and  C_11 
REMARK    9  A    between atoms: C_11  and  C_12 
REMARK   10  A    between atoms: C_13  and  O_14 
ROOT
HETATM    1  C   UNL     1      40.263 -13.029   4.291  1.00  0.00     0.188 C 
HETATM    2  S   UNL     1      39.265 -12.749   2.987  1.00  0.00    -0.039 SA
ENDROOT
BRANCH   1   3
HETATM    3  N   UNL     1      41.247 -12.203   4.747  1.00  0.00    -0.341 N 
HETATM    4  H   UNL     1      41.905 -11.870   4.052  1.00  0.00     0.164 HD
BRANCH   3   5
HETATM    5  C   UNL     1      41.387 -11.586   6.062  1.00  0.00     0.241 C 
BRANCH   5   6
HETATM    6  N   UNL     1      42.733 -11.849   6.562  1.00  0.00    -0.336 N 
HETATM    7  C   UNL     1      43.887 -11.519   5.897  1.00  0.00     0.219 C 
HETATM    8  O   UNL     1      43.895 -11.087   4.752  1.00  0.00    -0.274 OA
HETATM    9  H   UNL     1      42.805 -12.221   7.500  1.00  0.00     0.164 HD
BRANCH   7  10
HETATM   10  C   UNL     1      45.133 -11.781   6.729  1.00  0.00     0.102 C 
BRANCH  10  11
HETATM   11  C   UNL     1      45.225 -10.935   7.996  1.00  0.00     0.005 C 
HETATM   12  C   UNL     1      46.135  -9.726   7.836  1.00  0.00     0.005 C 
ENDBRANCH  10  11
ENDBRANCH   7  10
ENDBRANCH   5   6
BRANCH   5  13
HETATM   13  C   UNL     1      40.875 -10.080   6.123  1.00  0.00     0.226 C 
HETATM   14 CL   UNL     1      39.135 -10.010   6.590  1.00  0.00    -0.080 Cl
HETATM   15 CL   UNL     1      41.817  -9.050   7.256  1.00  0.00    -0.080 Cl
HETATM   16 CL   UNL     1      41.018  -9.318   4.491  1.00  0.00    -0.080 Cl
ENDBRANCH   5  13
ENDBRANCH   3   5
ENDBRANCH   1   3
BRANCH   1  17
HETATM   17  N   UNL     1      40.100 -14.182   5.022  1.00  0.00    -0.274 N 
HETATM   18  H   UNL     1      39.202 -14.269   5.503  1.00  0.00     0.189 HD
BRANCH  17  19
HETATM   19  N   UNL     1      40.656 -15.397   4.568  1.00  0.00    -0.264 N 
HETATM   20  C   UNL     1      42.007 -15.587   4.821  1.00  0.00     0.272 C 
HETATM   21  O   UNL     1      42.673 -14.811   5.505  1.00  0.00    -0.266 OA
HETATM   22  H   UNL     1      40.228 -15.799   3.738  1.00  0.00     0.190 HD
BRANCH  20  23
HETATM   23  C   UNL     1      42.673 -16.743   4.163  1.00  0.00     0.066 A 
HETATM   24  C   UNL     1      43.627 -17.486   4.879  1.00  0.00     0.081 A 
HETATM   25  C   UNL     1      44.290 -18.556   4.281  1.00  0.00     0.037 A 
HETATM   26  C   UNL     1      43.994 -18.909   2.965  1.00  0.00     0.003 A 
HETATM   27  C   UNL     1      43.029 -18.199   2.254  1.00  0.00     0.001 A 
HETATM   28  C   UNL     1      42.365 -17.121   2.848  1.00  0.00     0.020 A 
BRANCH  24  29
HETATM   29  O   UNL     1      43.969 -17.220   6.179  1.00  0.00    -0.360 OA
HETATM   30  H   UNL     1      44.140 -18.076   6.631  1.00  0.00     0.217 HD
ENDBRANCH  24  29
ENDBRANCH  20  23
ENDBRANCH  17  19
ENDBRANCH   1  17
TORSDOF 10
ENDMDL
MODEL 10
REMARK VINA RESULT:      -6.1      3.679      4.835
REMARK  10 active torsions:
REMARK  status: ('A' for Active; 'I' for Inactive)
REMARK    1  A    between atoms: C_2  and  C_3 
REMARK    2  A    between atoms: C_3  and  C_4 
REMARK       I    between atoms: C_4  and  N_5 
REMARK    3  A    between atoms: N_5  and  C_6 
REMARK    4  A    between atoms: C_6  and  N_7 
REMARK    5  A    between atoms: C_6  and  C_21 
REMARK    6  A    between atoms: N_7  and  C_8 
REMARK    7  A    between atoms: C_8  and  N_9 
REMARK    8  A    between atoms: N_9  and  N_10 
REMARK       I    between atoms: N_10  and  C_11 
REMARK    9  A    between atoms: C_11  and  C_12 
REMARK   10  A    between atoms: C_13  and  O_14 
ROOT
HETATM    1  C   UNL     1      43.246 -12.738   6.895  1.00  0.00     0.188 C 
HETATM    2  S   UNL     1      44.748 -12.023   6.796  1.00  0.00    -0.039 SA
ENDROOT
BRANCH   1   3
HETATM    3  N   UNL     1      42.062 -12.190   6.494  1.00  0.00    -0.341 N 
HETATM    4  H   UNL     1      41.372 -12.047   7.221  1.00  0.00     0.164 HD
BRANCH   3   5
HETATM    5  C   UNL     1      41.713 -11.616   5.200  1.00  0.00     0.241 C 
BRANCH   5   6
HETATM    6  N   UNL     1      41.927 -12.625   4.167  1.00  0.00    -0.336 N 
HETATM    7  C   UNL     1      42.775 -12.475   3.098  1.00  0.00     0.219 C 
HETATM    8  O   UNL     1      43.337 -11.420   2.838  1.00  0.00    -0.274 OA
HETATM    9  H   UNL     1      41.481 -13.522   4.308  1.00  0.00     0.164 HD
BRANCH   7  10
HETATM   10  C   UNL     1      42.903 -13.747   2.275  1.00  0.00     0.102 C 
BRANCH  10  11
HETATM   11  C   UNL     1      41.693 -14.044   1.394  1.00  0.00     0.005 C 
HETATM   12  C   UNL     1      40.934 -15.289   1.829  1.00  0.00     0.005 C 
ENDBRANCH  10  11
ENDBRANCH   7  10
ENDBRANCH   5   6
BRANCH   5  13
HETATM   13  C   UNL     1      40.312 -10.859   5.190  1.00  0.00     0.226 C 
HETATM   14 CL   UNL     1      39.415 -11.147   6.726  1.00  0.00    -0.080 Cl
HETATM   15 CL   UNL     1      40.460  -9.085   4.932  1.00  0.00    -0.080 Cl
HETATM   16 CL   UNL     1      39.283 -11.493   3.846  1.00  0.00    -0.080 Cl
ENDBRANCH   5  13
ENDBRANCH   3   5
ENDBRANCH   1   3
BRANCH   1  17
HETATM   17  N   UNL     1      43.144 -14.012   7.401  1.00  0.00    -0.274 N 
HETATM   18  H   UNL     1      42.288 -14.204   7.926  1.00  0.00     0.189 HD
BRANCH  17  19
HETATM   19  N   UNL     1      43.663 -15.107   6.681  1.00  0.00    -0.264 N 
HETATM   20  C   UNL     1      42.815 -15.690   5.750  1.00  0.00     0.272 C 
HETATM   21  O   UNL     1      41.714 -15.221   5.466  1.00  0.00    -0.266 OA
HETATM   22  H   UNL     1      44.356 -15.671   7.168  1.00  0.00     0.190 HD
BRANCH  20  23
HETATM   23  C   UNL     1      43.245 -16.977   5.140  1.00  0.00     0.066 A 
HETATM   24  C   UNL     1      43.496 -18.082   5.970  1.00  0.00     0.081 A 
HETATM   25  C   UNL     1      43.929 -19.292   5.432  1.00  0.00     0.037 A 
HETATM   26  C   UNL     1      44.099 -19.420   4.054  1.00  0.00     0.003 A 
HETATM   27  C   UNL     1      43.825 -18.339   3.216  1.00  0.00     0.001 A 
HETATM   28  C   UNL     1      43.396 -17.121   3.752  1.00  0.00     0.020 A 
BRANCH  24  29
HETATM   29  O   UNL     1      43.342 -18.053   7.331  1.00  0.00    -0.360 OA
HETATM   30  H   UNL     1      42.906 -17.204   7.570  1.00  0.00     0.217 HD
ENDBRANCH  24  29
ENDBRANCH  20  23
ENDBRANCH  17  19
ENDBRANCH   1  17
TORSDOF 10
ENDMDL
