MODEL 1
REMARK VINA RESULT:      -8.5      0.000      0.000
REMARK  4 active torsions:
REMARK  status: ('A' for Active; 'I' for Inactive)
REMARK    1  A    between atoms: C_5  and  C_6 
REMARK    2  A    between atoms: C_6  and  N_7 
REMARK    3  A    between atoms: C_6  and  C_18 
REMARK    4  A    between atoms: N_7  and  C_8 
ROOT
HETATM    1  C   UNL     1      42.888 -16.895   4.633  1.00  0.00     0.290 C 
ENDROOT
BRANCH   1   2
HETATM    2  C   UNL     1      43.342 -18.302   4.299  1.00  0.00     0.021 A 
HETATM    3  C   UNL     1      43.458 -18.767   2.979  1.00  0.00     0.055 A 
HETATM    4  C   UNL     1      43.861 -20.077   2.732  1.00  0.00     0.117 A 
HETATM    5  C   UNL     1      44.145 -20.952   3.774  1.00  0.00     0.045 A 
HETATM    6  F   UNL     1      43.982 -20.498   1.466  1.00  0.00    -0.206 F 
HETATM    7  C   UNL     1      44.025 -20.510   5.090  1.00  0.00     0.046 A 
HETATM    8  C   UNL     1      43.626 -19.198   5.340  1.00  0.00     0.125 A 
HETATM    9  F   UNL     1      43.527 -18.787   6.613  1.00  0.00    -0.205 F 
ENDBRANCH   1   2
BRANCH   1  10
HETATM   10  N   UNL     1      43.912 -16.066   5.314  1.00  0.00     0.101 N 
HETATM   11  H   UNL     1      44.203 -15.348   4.655  1.00  0.00     0.317 HD
BRANCH  10  12
HETATM   12  C   UNL     1      43.536 -15.531   6.629  1.00  0.00     0.225 C 
HETATM   13  C   UNL     1      42.017 -15.440   6.893  1.00  0.00     0.069 C 
HETATM   14  C   UNL     1      41.373 -14.354   6.053  1.00  0.00     0.190 C 
HETATM   15  N   UNL     1      42.046 -13.043   6.364  1.00  0.00    -0.067 N 
HETATM   16  C   UNL     1      39.926 -14.018   6.352  1.00  0.00     0.035 C 
HETATM   17  H   UNL     1      41.993 -12.887   7.382  1.00  0.00     0.280 HD
HETATM   18  C   UNL     1      43.496 -13.035   5.991  1.00  0.00     0.237 C 
HETATM   19  C   UNL     1      41.166 -11.992   5.740  1.00  0.00     0.235 C 
HETATM   20  C   UNL     1      44.191 -14.138   6.786  1.00  0.00     0.063 C 
HETATM   21  C   UNL     1      39.769 -12.617   5.759  1.00  0.00     0.030 C 
ENDBRANCH  10  12
ENDBRANCH   1  10
BRANCH   1  22
HETATM   22  C   UNL     1      42.371 -16.163   3.399  1.00  0.00    -0.018 A 
HETATM   23  C   UNL     1      43.185 -15.231   2.742  1.00  0.00     0.029 A 
HETATM   24  C   UNL     1      42.693 -14.586   1.617  1.00  0.00     0.116 A 
HETATM   25  N   UNL     1      41.462 -14.801   1.111  1.00  0.00    -0.273 NA
HETATM   26  C   UNL     1      40.678 -15.680   1.768  1.00  0.00     0.116 A 
HETATM   27  C   UNL     1      41.081 -16.377   2.895  1.00  0.00     0.029 A 
ENDBRANCH   1  22
TORSDOF 4
ENDMDL
MODEL 2
REMARK VINA RESULT:      -8.4      1.817      4.131
REMARK  4 active torsions:
REMARK  status: ('A' for Active; 'I' for Inactive)
REMARK    1  A    between atoms: C_5  and  C_6 
REMARK    2  A    between atoms: C_6  and  N_7 
REMARK    3  A    between atoms: C_6  and  C_18 
REMARK    4  A    between atoms: N_7  and  C_8 
ROOT
HETATM    1  C   UNL     1      43.242 -16.867   3.763  1.00  0.00     0.290 C 
ENDROOT
BRANCH   1   2
HETATM    2  C   UNL     1      43.520 -18.355   3.707  1.00  0.00     0.021 A 
HETATM    3  C   UNL     1      43.905 -19.097   4.836  1.00  0.00     0.055 A 
HETATM    4  C   UNL     1      44.168 -20.460   4.721  1.00  0.00     0.117 A 
HETATM    5  C   UNL     1      44.068 -21.112   3.497  1.00  0.00     0.045 A 
HETATM    6  F   UNL     1      44.516 -21.154   5.812  1.00  0.00    -0.206 F 
HETATM    7  C   UNL     1      43.698 -20.389   2.366  1.00  0.00     0.046 A 
HETATM    8  C   UNL     1      43.431 -19.026   2.478  1.00  0.00     0.125 A 
HETATM    9  F   UNL     1      43.066 -18.348   1.380  1.00  0.00    -0.205 F 
ENDBRANCH   1   2
BRANCH   1  10
HETATM   10  N   UNL     1      42.080 -16.429   2.952  1.00  0.00     0.101 N 
HETATM   11  H   UNL     1      41.390 -16.051   3.597  1.00  0.00     0.317 HD
BRANCH  10  12
HETATM   12  C   UNL     1      42.380 -15.531   1.829  1.00  0.00     0.225 C 
HETATM   13  C   UNL     1      43.388 -14.404   2.139  1.00  0.00     0.069 C 
HETATM   14  C   UNL     1      42.786 -13.362   3.061  1.00  0.00     0.190 C 
HETATM   15  N   UNL     1      41.547 -12.803   2.413  1.00  0.00    -0.067 N 
HETATM   16  C   UNL     1      43.590 -12.098   3.291  1.00  0.00     0.035 C 
HETATM   17  H   UNL     1      41.803 -12.452   1.477  1.00  0.00     0.280 HD
HETATM   18  C   UNL     1      40.481 -13.835   2.220  1.00  0.00     0.237 C 
HETATM   19  C   UNL     1      41.192 -11.586   3.226  1.00  0.00     0.235 C 
HETATM   20  C   UNL     1      41.046 -14.933   1.322  1.00  0.00     0.063 C 
HETATM   21  C   UNL     1      42.535 -11.103   3.778  1.00  0.00     0.030 C 
ENDBRANCH  10  12
ENDBRANCH   1  10
BRANCH   1  22
HETATM   22  C   UNL     1      43.080 -16.378   5.199  1.00  0.00    -0.018 A 
HETATM   23  C   UNL     1      41.801 -16.224   5.749  1.00  0.00     0.029 A 
HETATM   24  C   UNL     1      41.683 -15.787   7.060  1.00  0.00     0.116 A 
HETATM   25  N   UNL     1      42.737 -15.493   7.847  1.00  0.00    -0.273 NA
HETATM   26  C   UNL     1      43.962 -15.619   7.298  1.00  0.00     0.116 A 
HETATM   27  C   UNL     1      44.183 -16.053   6.001  1.00  0.00     0.029 A 
ENDBRANCH   1  22
TORSDOF 4
ENDMDL
MODEL 3
REMARK VINA RESULT:      -8.3      2.060      4.496
REMARK  4 active torsions:
REMARK  status: ('A' for Active; 'I' for Inactive)
REMARK    1  A    between atoms: C_5  and  C_6 
REMARK    2  A    between atoms: C_6  and  N_7 
REMARK    3  A    between atoms: C_6  and  C_18 
REMARK    4  A    between atoms: N_7  and  C_8 
ROOT
HETATM    1  C   UNL     1      43.029 -15.946   3.349  1.00  0.00     0.290 C 
ENDROOT
BRANCH   1   2
HETATM    2  C   UNL     1      43.355 -17.425   3.317  1.00  0.00     0.021 A 
HETATM    3  C   UNL     1      42.866 -18.288   2.322  1.00  0.00     0.055 A 
HETATM    4  C   UNL     1      43.182 -19.644   2.355  1.00  0.00     0.117 A 
HETATM    5  C   UNL     1      43.971 -20.175   3.368  1.00  0.00     0.045 A 
HETATM    6  F   UNL     1      42.721 -20.447   1.388  1.00  0.00    -0.206 F 
HETATM    7  C   UNL     1      44.456 -19.336   4.369  1.00  0.00     0.046 A 
HETATM    8  C   UNL     1      44.145 -17.977   4.337  1.00  0.00     0.125 A 
HETATM    9  F   UNL     1      44.629 -17.183   5.303  1.00  0.00    -0.205 F 
ENDBRANCH   1   2
BRANCH   1  10
HETATM   10  N   UNL     1      42.414 -15.427   2.102  1.00  0.00     0.101 N 
HETATM   11  H   UNL     1      42.458 -16.174   1.413  1.00  0.00     0.317 HD
BRANCH  10  12
HETATM   12  C   UNL     1      41.075 -14.841   2.241  1.00  0.00     0.225 C 
HETATM   13  C   UNL     1      40.051 -15.276   1.171  1.00  0.00     0.069 C 
HETATM   14  C   UNL     1      40.380 -14.680  -0.184  1.00  0.00     0.190 C 
HETATM   15  N   UNL     1      40.410 -13.180  -0.057  1.00  0.00    -0.067 N 
HETATM   16  C   UNL     1      39.353 -14.859  -1.284  1.00  0.00     0.035 C 
HETATM   17  H   UNL     1      39.509 -12.873   0.340  1.00  0.00     0.280 HD
HETATM   18  C   UNL     1      41.486 -12.701   0.867  1.00  0.00     0.237 C 
HETATM   19  C   UNL     1      40.434 -12.665  -1.472  1.00  0.00     0.235 C 
HETATM   20  C   UNL     1      41.222 -13.300   2.246  1.00  0.00     0.063 C 
HETATM   21  C   UNL     1      39.714 -13.751  -2.275  1.00  0.00     0.030 C 
ENDBRANCH  10  12
ENDBRANCH   1  10
BRANCH   1  22
HETATM   22  C   UNL     1      42.150 -15.589   4.543  1.00  0.00    -0.018 A 
HETATM   23  C   UNL     1      42.452 -14.469   5.329  1.00  0.00     0.029 A 
HETATM   24  C   UNL     1      41.630 -14.163   6.403  1.00  0.00     0.116 A 
HETATM   25  N   UNL     1      40.545 -14.887   6.744  1.00  0.00    -0.273 NA
HETATM   26  C   UNL     1      40.280 -15.978   5.997  1.00  0.00     0.116 A 
HETATM   27  C   UNL     1      41.038 -16.363   4.903  1.00  0.00     0.029 A 
ENDBRANCH   1  22
TORSDOF 4
ENDMDL
MODEL 4
REMARK VINA RESULT:      -7.9      3.369      6.104
REMARK  4 active torsions:
REMARK  status: ('A' for Active; 'I' for Inactive)
REMARK    1  A    between atoms: C_5  and  C_6 
REMARK    2  A    between atoms: C_6  and  N_7 
REMARK    3  A    between atoms: C_6  and  C_18 
REMARK    4  A    between atoms: N_7  and  C_8 
ROOT
HETATM    1  C   UNL     1      41.105 -14.123   1.903  1.00  0.00     0.290 C 
ENDROOT
BRANCH   1   2
HETATM    2  C   UNL     1      40.718 -13.770   0.481  1.00  0.00     0.021 A 
HETATM    3  C   UNL     1      41.111 -12.571  -0.135  1.00  0.00     0.055 A 
HETATM    4  C   UNL     1      40.708 -12.290  -1.438  1.00  0.00     0.117 A 
HETATM    5  C   UNL     1      39.907 -13.174  -2.151  1.00  0.00     0.045 A 
HETATM    6  F   UNL     1      41.107 -11.149  -2.015  1.00  0.00    -0.206 F 
HETATM    7  C   UNL     1      39.499 -14.364  -1.551  1.00  0.00     0.046 A 
HETATM    8  C   UNL     1      39.904 -14.650  -0.248  1.00  0.00     0.125 A 
HETATM    9  F   UNL     1      39.511 -15.804   0.309  1.00  0.00    -0.205 F 
ENDBRANCH   1   2
BRANCH   1  10
HETATM   10  N   UNL     1      42.059 -15.255   2.016  1.00  0.00     0.101 N 
HETATM   11  H   UNL     1      42.894 -14.897   2.473  1.00  0.00     0.317 HD
BRANCH  10  12
HETATM   12  C   UNL     1      41.535 -16.479   2.636  1.00  0.00     0.225 C 
HETATM   13  C   UNL     1      40.783 -16.272   3.969  1.00  0.00     0.069 C 
HETATM   14  C   UNL     1      41.733 -15.884   5.085  1.00  0.00     0.190 C 
HETATM   15  N   UNL     1      42.776 -16.960   5.225  1.00  0.00    -0.067 N 
HETATM   16  C   UNL     1      41.166 -15.843   6.490  1.00  0.00     0.035 C 
HETATM   17  H   UNL     1      42.294 -17.861   5.365  1.00  0.00     0.280 HD
HETATM   18  C   UNL     1      43.628 -17.102   4.002  1.00  0.00     0.237 C 
HETATM   19  C   UNL     1      43.477 -16.662   6.525  1.00  0.00     0.235 C 
HETATM   20  C   UNL     1      42.714 -17.461   2.833  1.00  0.00     0.063 C 
HETATM   21  C   UNL     1      42.413 -15.956   7.368  1.00  0.00     0.030 C 
ENDBRANCH  10  12
ENDBRANCH   1  10
BRANCH   1  22
HETATM   22  C   UNL     1      41.651 -12.914   2.655  1.00  0.00    -0.018 A 
HETATM   23  C   UNL     1      43.033 -12.757   2.825  1.00  0.00     0.029 A 
HETATM   24  C   UNL     1      43.502 -11.643   3.504  1.00  0.00     0.116 A 
HETATM   25  N   UNL     1      42.701 -10.691   4.022  1.00  0.00    -0.273 NA
HETATM   26  C   UNL     1      41.372 -10.867   3.876  1.00  0.00     0.116 A 
HETATM   27  C   UNL     1      40.807 -11.942   3.209  1.00  0.00     0.029 A 
ENDBRANCH   1  22
TORSDOF 4
ENDMDL
MODEL 5
REMARK VINA RESULT:      -7.9      2.933      6.169
REMARK  4 active torsions:
REMARK  status: ('A' for Active; 'I' for Inactive)
REMARK    1  A    between atoms: C_5  and  C_6 
REMARK    2  A    between atoms: C_6  and  N_7 
REMARK    3  A    between atoms: C_6  and  C_18 
REMARK    4  A    between atoms: N_7  and  C_8 
ROOT
HETATM    1  C   UNL     1      41.759 -15.609   3.535  1.00  0.00     0.290 C 
ENDROOT
BRANCH   1   2
HETATM    2  C   UNL     1      42.246 -14.311   4.146  1.00  0.00     0.021 A 
HETATM    3  C   UNL     1      43.139 -13.452   3.486  1.00  0.00     0.055 A 
HETATM    4  C   UNL     1      43.569 -12.280   4.105  1.00  0.00     0.117 A 
HETATM    5  C   UNL     1      43.139 -11.941   5.383  1.00  0.00     0.045 A 
HETATM    6  F   UNL     1      44.408 -11.465   3.453  1.00  0.00    -0.206 F 
HETATM    7  C   UNL     1      42.260 -12.788   6.055  1.00  0.00     0.046 A 
HETATM    8  C   UNL     1      41.825 -13.958   5.437  1.00  0.00     0.125 A 
HETATM    9  F   UNL     1      40.972 -14.755   6.096  1.00  0.00    -0.205 F 
ENDBRANCH   1   2
BRANCH   1  10
HETATM   10  N   UNL     1      41.413 -15.517   2.094  1.00  0.00     0.101 N 
HETATM   11  H   UNL     1      41.911 -16.266   1.619  1.00  0.00     0.317 HD
BRANCH  10  12
HETATM   12  C   UNL     1      39.980 -15.478   1.778  1.00  0.00     0.225 C 
HETATM   13  C   UNL     1      39.632 -15.614   0.280  1.00  0.00     0.069 C 
HETATM   14  C   UNL     1      40.033 -14.375  -0.496  1.00  0.00     0.190 C 
HETATM   15  N   UNL     1      39.335 -13.184   0.106  1.00  0.00    -0.067 N 
HETATM   16  C   UNL     1      39.574 -14.284  -1.937  1.00  0.00     0.035 C 
HETATM   17  H   UNL     1      38.322 -13.375   0.115  1.00  0.00     0.280 HD
HETATM   18  C   UNL     1      39.749 -12.925   1.520  1.00  0.00     0.237 C 
HETATM   19  C   UNL     1      39.534 -12.068  -0.887  1.00  0.00     0.235 C 
HETATM   20  C   UNL     1      39.399 -14.161   2.345  1.00  0.00     0.063 C 
HETATM   21  C   UNL     1      39.660 -12.787  -2.233  1.00  0.00     0.030 C 
ENDBRANCH  10  12
ENDBRANCH   1  10
BRANCH   1  22
HETATM   22  C   UNL     1      42.756 -16.743   3.753  1.00  0.00    -0.018 A 
HETATM   23  C   UNL     1      43.063 -17.621   2.705  1.00  0.00     0.029 A 
HETATM   24  C   UNL     1      43.980 -18.636   2.929  1.00  0.00     0.116 A 
HETATM   25  N   UNL     1      44.600 -18.837   4.109  1.00  0.00    -0.273 NA
HETATM   26  C   UNL     1      44.275 -18.003   5.118  1.00  0.00     0.116 A 
HETATM   27  C   UNL     1      43.377 -16.956   4.991  1.00  0.00     0.029 A 
ENDBRANCH   1  22
TORSDOF 4
ENDMDL
MODEL 6
REMARK VINA RESULT:      -7.9      2.297      4.602
REMARK  4 active torsions:
REMARK  status: ('A' for Active; 'I' for Inactive)
REMARK    1  A    between atoms: C_5  and  C_6 
REMARK    2  A    between atoms: C_6  and  N_7 
REMARK    3  A    between atoms: C_6  and  C_18 
REMARK    4  A    between atoms: N_7  and  C_8 
ROOT
HETATM    1  C   UNL     1      43.608 -16.522   3.649  1.00  0.00     0.290 C 
ENDROOT
BRANCH   1   2
HETATM    2  C   UNL     1      42.469 -16.067   2.759  1.00  0.00     0.021 A 
HETATM    3  C   UNL     1      41.127 -16.382   3.025  1.00  0.00     0.055 A 
HETATM    4  C   UNL     1      40.123 -15.955   2.161  1.00  0.00     0.117 A 
HETATM    5  C   UNL     1      40.421 -15.222   1.017  1.00  0.00     0.045 A 
HETATM    6  F   UNL     1      38.847 -16.251   2.441  1.00  0.00    -0.206 F 
HETATM    7  C   UNL     1      41.748 -14.909   0.733  1.00  0.00     0.046 A 
HETATM    8  C   UNL     1      42.755 -15.332   1.599  1.00  0.00     0.125 A 
HETATM    9  F   UNL     1      44.025 -15.012   1.313  1.00  0.00    -0.205 F 
ENDBRANCH   1   2
BRANCH   1  10
HETATM   10  N   UNL     1      43.567 -15.970   5.026  1.00  0.00     0.101 N 
HETATM   11  H   UNL     1      44.475 -15.547   5.206  1.00  0.00     0.317 HD
BRANCH  10  12
HETATM   12  C   UNL     1      42.439 -15.081   5.330  1.00  0.00     0.225 C 
HETATM   13  C   UNL     1      42.598 -13.625   4.840  1.00  0.00     0.069 C 
HETATM   14  C   UNL     1      43.648 -12.883   5.643  1.00  0.00     0.190 C 
HETATM   15  N   UNL     1      43.255 -12.915   7.096  1.00  0.00    -0.067 N 
HETATM   16  C   UNL     1      43.771 -11.391   5.407  1.00  0.00     0.035 C 
HETATM   17  H   UNL     1      42.300 -12.532   7.180  1.00  0.00     0.280 HD
HETATM   18  C   UNL     1      43.225 -14.302   7.657  1.00  0.00     0.237 C 
HETATM   19  C   UNL     1      44.159 -11.916   7.771  1.00  0.00     0.235 C 
HETATM   20  C   UNL     1      42.203 -15.108   6.859  1.00  0.00     0.063 C 
HETATM   21  C   UNL     1      44.474 -10.898   6.672  1.00  0.00     0.030 C 
ENDBRANCH  10  12
ENDBRANCH   1  10
BRANCH   1  22
HETATM   22  C   UNL     1      43.704 -18.043   3.707  1.00  0.00    -0.018 A 
HETATM   23  C   UNL     1      43.961 -18.685   4.925  1.00  0.00     0.029 A 
HETATM   24  C   UNL     1      44.034 -20.070   4.950  1.00  0.00     0.116 A 
HETATM   25  N   UNL     1      43.874 -20.846   3.859  1.00  0.00    -0.273 NA
HETATM   26  C   UNL     1      43.655 -20.215   2.688  1.00  0.00     0.116 A 
HETATM   27  C   UNL     1      43.560 -18.839   2.562  1.00  0.00     0.029 A 
ENDBRANCH   1  22
TORSDOF 4
ENDMDL
MODEL 7
REMARK VINA RESULT:      -7.8      3.559      6.888
REMARK  4 active torsions:
REMARK  status: ('A' for Active; 'I' for Inactive)
REMARK    1  A    between atoms: C_5  and  C_6 
REMARK    2  A    between atoms: C_6  and  N_7 
REMARK    3  A    between atoms: C_6  and  C_18 
REMARK    4  A    between atoms: N_7  and  C_8 
ROOT
HETATM    1  C   UNL     1      43.605 -12.469   6.143  1.00  0.00     0.290 C 
ENDROOT
BRANCH   1   2
HETATM    2  C   UNL     1      44.346 -11.587   7.128  1.00  0.00     0.021 A 
HETATM    3  C   UNL     1      43.794 -11.197   8.359  1.00  0.00     0.055 A 
HETATM    4  C   UNL     1      44.513 -10.368   9.216  1.00  0.00     0.117 A 
HETATM    5  C   UNL     1      45.777  -9.900   8.874  1.00  0.00     0.045 A 
HETATM    6  F   UNL     1      43.977 -10.021  10.393  1.00  0.00    -0.206 F 
HETATM    7  C   UNL     1      46.334 -10.269   7.652  1.00  0.00     0.046 A 
HETATM    8  C   UNL     1      45.619 -11.103   6.794  1.00  0.00     0.125 A 
HETATM    9  F   UNL     1      46.177 -11.455   5.627  1.00  0.00    -0.205 F 
ENDBRANCH   1   2
BRANCH   1  10
HETATM   10  N   UNL     1      42.586 -13.355   6.759  1.00  0.00     0.101 N 
HETATM   11  H   UNL     1      41.699 -13.150   6.306  1.00  0.00     0.317 HD
BRANCH  10  12
HETATM   12  C   UNL     1      42.910 -14.787   6.787  1.00  0.00     0.225 C 
HETATM   13  C   UNL     1      43.658 -15.317   5.545  1.00  0.00     0.069 C 
HETATM   14  C   UNL     1      42.756 -15.348   4.327  1.00  0.00     0.190 C 
HETATM   15  N   UNL     1      41.561 -16.211   4.635  1.00  0.00    -0.067 N 
HETATM   16  C   UNL     1      43.296 -16.030   3.086  1.00  0.00     0.035 C 
HETATM   17  H   UNL     1      41.901 -17.135   4.942  1.00  0.00     0.280 HD
HETATM   18  C   UNL     1      40.721 -15.659   5.745  1.00  0.00     0.237 C 
HETATM   19  C   UNL     1      40.888 -16.439   3.307  1.00  0.00     0.235 C 
HETATM   20  C   UNL     1      41.593 -15.573   6.995  1.00  0.00     0.063 C 
HETATM   21  C   UNL     1      42.029 -16.352   2.292  1.00  0.00     0.030 C 
ENDBRANCH  10  12
ENDBRANCH   1  10
BRANCH   1  22
HETATM   22  C   UNL     1      42.968 -11.652   5.025  1.00  0.00    -0.018 A 
HETATM   23  C   UNL     1      43.199 -11.992   3.685  1.00  0.00     0.029 A 
HETATM   24  C   UNL     1      42.599 -11.237   2.689  1.00  0.00     0.116 A 
HETATM   25  N   UNL     1      41.798 -10.180   2.932  1.00  0.00    -0.273 NA
HETATM   26  C   UNL     1      41.605  -9.846   4.224  1.00  0.00     0.116 A 
HETATM   27  C   UNL     1      42.155 -10.541   5.289  1.00  0.00     0.029 A 
ENDBRANCH   1  22
TORSDOF 4
ENDMDL
MODEL 8
REMARK VINA RESULT:      -7.8      3.077      5.319
REMARK  4 active torsions:
REMARK  status: ('A' for Active; 'I' for Inactive)
REMARK    1  A    between atoms: C_5  and  C_6 
REMARK    2  A    between atoms: C_6  and  N_7 
REMARK    3  A    between atoms: C_6  and  C_18 
REMARK    4  A    between atoms: N_7  and  C_8 
ROOT
HETATM    1  C   UNL     1      42.965 -13.953   4.632  1.00  0.00     0.290 C 
ENDROOT
BRANCH   1   2
HETATM    2  C   UNL     1      42.156 -14.509   3.477  1.00  0.00     0.021 A 
HETATM    3  C   UNL     1      40.850 -15.000   3.635  1.00  0.00     0.055 A 
HETATM    4  C   UNL     1      40.160 -15.519   2.542  1.00  0.00     0.117 A 
HETATM    5  C   UNL     1      40.745 -15.573   1.282  1.00  0.00     0.045 A 
HETATM    6  F   UNL     1      38.910 -15.967   2.709  1.00  0.00    -0.206 F 
HETATM    7  C   UNL     1      42.044 -15.099   1.110  1.00  0.00     0.046 A 
HETATM    8  C   UNL     1      42.735 -14.575   2.201  1.00  0.00     0.125 A 
HETATM    9  F   UNL     1      43.980 -14.114   2.014  1.00  0.00    -0.205 F 
ENDBRANCH   1   2
BRANCH   1  10
HETATM   10  N   UNL     1      42.388 -12.737   5.256  1.00  0.00     0.101 N 
HETATM   11  H   UNL     1      42.297 -12.926   6.251  1.00  0.00     0.317 HD
BRANCH  10  12
HETATM   12  C   UNL     1      43.078 -11.474   4.963  1.00  0.00     0.225 C 
HETATM   13  C   UNL     1      44.502 -11.351   5.546  1.00  0.00     0.069 C 
HETATM   14  C   UNL     1      44.472 -11.207   7.056  1.00  0.00     0.190 C 
HETATM   15  N   UNL     1      43.648  -9.997   7.407  1.00  0.00    -0.067 N 
HETATM   16  C   UNL     1      45.781 -10.878   7.744  1.00  0.00     0.035 C 
HETATM   17  H   UNL     1      44.039  -9.184   6.905  1.00  0.00     0.280 HD
HETATM   18  C   UNL     1      42.218 -10.129   6.985  1.00  0.00     0.237 C 
HETATM   19  C   UNL     1      43.917  -9.748   8.868  1.00  0.00     0.235 C 
HETATM   20  C   UNL     1      42.190 -10.312   5.470  1.00  0.00     0.063 C 
HETATM   21  C   UNL     1      45.329 -10.298   9.084  1.00  0.00     0.030 C 
ENDBRANCH  10  12
ENDBRANCH   1  10
BRANCH   1  22
HETATM   22  C   UNL     1      43.218 -15.010   5.702  1.00  0.00    -0.018 A 
HETATM   23  C   UNL     1      42.913 -14.739   7.043  1.00  0.00     0.029 A 
HETATM   24  C   UNL     1      43.145 -15.722   7.994  1.00  0.00     0.116 A 
HETATM   25  N   UNL     1      43.654 -16.936   7.705  1.00  0.00    -0.273 NA
HETATM   26  C   UNL     1      43.969 -17.175   6.415  1.00  0.00     0.116 A 
HETATM   27  C   UNL     1      43.771 -16.260   5.394  1.00  0.00     0.029 A 
ENDBRANCH   1  22
TORSDOF 4
ENDMDL
MODEL 9
REMARK VINA RESULT:      -7.6      3.193      6.299
REMARK  4 active torsions:
REMARK  status: ('A' for Active; 'I' for Inactive)
REMARK    1  A    between atoms: C_5  and  C_6 
REMARK    2  A    between atoms: C_6  and  N_7 
REMARK    3  A    between atoms: C_6  and  C_18 
REMARK    4  A    between atoms: N_7  and  C_8 
ROOT
HETATM    1  C   UNL     1      42.539 -13.327   1.929  1.00  0.00     0.290 C 
ENDROOT
BRANCH   1   2
HETATM    2  C   UNL     1      42.417 -14.691   2.578  1.00  0.00     0.021 A 
HETATM    3  C   UNL     1      41.518 -14.955   3.624  1.00  0.00     0.055 A 
HETATM    4  C   UNL     1      41.463 -16.223   4.197  1.00  0.00     0.117 A 
HETATM    5  C   UNL     1      42.296 -17.247   3.761  1.00  0.00     0.045 A 
HETATM    6  F   UNL     1      40.587 -16.459   5.182  1.00  0.00    -0.206 F 
HETATM    7  C   UNL     1      43.201 -17.000   2.731  1.00  0.00     0.046 A 
HETATM    8  C   UNL     1      43.255 -15.733   2.153  1.00  0.00     0.125 A 
HETATM    9  F   UNL     1      44.126 -15.517   1.156  1.00  0.00    -0.205 F 
ENDBRANCH   1   2
BRANCH   1  10
HETATM   10  N   UNL     1      41.465 -13.014   0.954  1.00  0.00     0.101 N 
HETATM   11  H   UNL     1      41.861 -13.131   0.025  1.00  0.00     0.317 HD
BRANCH  10  12
HETATM   12  C   UNL     1      40.197 -13.731   1.142  1.00  0.00     0.225 C 
HETATM   13  C   UNL     1      39.886 -14.809   0.082  1.00  0.00     0.069 C 
HETATM   14  C   UNL     1      39.557 -14.186  -1.261  1.00  0.00     0.190 C 
HETATM   15  N   UNL     1      38.383 -13.260  -1.086  1.00  0.00    -0.067 N 
HETATM   16  C   UNL     1      39.039 -15.113  -2.342  1.00  0.00     0.035 C 
HETATM   17  H   UNL     1      37.611 -13.794  -0.659  1.00  0.00     0.280 HD
HETATM   18  C   UNL     1      38.683 -12.113  -0.172  1.00  0.00     0.237 C 
HETATM   19  C   UNL     1      37.931 -12.929  -2.484  1.00  0.00     0.235 C 
HETATM   20  C   UNL     1      39.057 -12.686   1.193  1.00  0.00     0.063 C 
HETATM   21  C   UNL     1      38.333 -14.157  -3.305  1.00  0.00     0.030 C 
ENDBRANCH  10  12
ENDBRANCH   1  10
BRANCH   1  22
HETATM   22  C   UNL     1      42.630 -12.215   2.968  1.00  0.00    -0.018 A 
HETATM   23  C   UNL     1      43.570 -12.296   4.005  1.00  0.00     0.029 A 
HETATM   24  C   UNL     1      43.637 -11.266   4.930  1.00  0.00     0.116 A 
HETATM   25  N   UNL     1      42.841 -10.178   4.897  1.00  0.00    -0.273 NA
HETATM   26  C   UNL     1      41.922 -10.125   3.911  1.00  0.00     0.116 A 
HETATM   27  C   UNL     1      41.781 -11.100   2.938  1.00  0.00     0.029 A 
ENDBRANCH   1  22
TORSDOF 4
ENDMDL
MODEL 10
REMARK VINA RESULT:      -7.6     14.209     16.346
REMARK  4 active torsions:
REMARK  status: ('A' for Active; 'I' for Inactive)
REMARK    1  A    between atoms: C_5  and  C_6 
REMARK    2  A    between atoms: C_6  and  N_7 
REMARK    3  A    between atoms: C_6  and  C_18 
REMARK    4  A    between atoms: N_7  and  C_8 
ROOT
HETATM    1  C   UNL     1      45.951 -29.822  -2.423  1.00  0.00     0.290 C 
ENDROOT
BRANCH   1   2
HETATM    2  C   UNL     1      44.918 -30.083  -1.346  1.00  0.00     0.021 A 
HETATM    3  C   UNL     1      44.532 -31.378  -0.964  1.00  0.00     0.055 A 
HETATM    4  C   UNL     1      43.561 -31.558   0.018  1.00  0.00     0.117 A 
HETATM    5  C   UNL     1      42.948 -30.472   0.632  1.00  0.00     0.045 A 
HETATM    6  F   UNL     1      43.219 -32.801   0.380  1.00  0.00    -0.206 F 
HETATM    7  C   UNL     1      43.312 -29.180   0.259  1.00  0.00     0.046 A 
HETATM    8  C   UNL     1      44.286 -28.997  -0.721  1.00  0.00     0.125 A 
HETATM    9  F   UNL     1      44.631 -27.746  -1.060  1.00  0.00    -0.205 F 
ENDBRANCH   1   2
BRANCH   1  10
HETATM   10  N   UNL     1      47.297 -30.374  -2.128  1.00  0.00     0.101 N 
HETATM   11  H   UNL     1      47.511 -31.046  -2.861  1.00  0.00     0.317 HD
BRANCH  10  12
HETATM   12  C   UNL     1      48.364 -29.388  -1.912  1.00  0.00     0.225 C 
HETATM   13  C   UNL     1      49.741 -29.979  -1.542  1.00  0.00     0.069 C 
HETATM   14  C   UNL     1      49.735 -30.563  -0.142  1.00  0.00     0.190 C 
HETATM   15  N   UNL     1      49.342 -29.482   0.829  1.00  0.00    -0.067 N 
HETATM   16  C   UNL     1      51.069 -30.999   0.430  1.00  0.00     0.035 C 
HETATM   17  H   UNL     1      49.983 -28.684   0.699  1.00  0.00     0.280 HD
HETATM   18  C   UNL     1      47.953 -28.974   0.597  1.00  0.00     0.237 C 
HETATM   19  C   UNL     1      49.654 -30.044   2.191  1.00  0.00     0.235 C 
HETATM   20  C   UNL     1      47.892 -28.402  -0.817  1.00  0.00     0.063 C 
HETATM   21  C   UNL     1      50.807 -31.017   1.936  1.00  0.00     0.030 C 
ENDBRANCH  10  12
ENDBRANCH   1  10
BRANCH   1  22
HETATM   22  C   UNL     1      45.480 -30.316  -3.786  1.00  0.00    -0.018 A 
HETATM   23  C   UNL     1      44.296 -29.817  -4.345  1.00  0.00     0.029 A 
HETATM   24  C   UNL     1      43.897 -30.277  -5.590  1.00  0.00     0.116 A 
HETATM   25  N   UNL     1      44.584 -31.190  -6.306  1.00  0.00    -0.273 NA
HETATM   26  C   UNL     1      45.708 -31.683  -5.746  1.00  0.00     0.116 A 
HETATM   27  C   UNL     1      46.191 -31.283  -4.511  1.00  0.00     0.029 A 
ENDBRANCH   1  22
TORSDOF 4
ENDMDL
