MODEL 1
REMARK VINA RESULT:      -7.2      0.000      0.000
REMARK  7 active torsions:
REMARK  status: ('A' for Active; 'I' for Inactive)
REMARK    1  A    between atoms: C_2  and  O_3 
REMARK    2  A    between atoms: O_3  and  C_4 
REMARK    3  A    between atoms: C_4  and  C_5 
REMARK    4  A    between atoms: C_12  and  C_13 
REMARK    5  A    between atoms: C_13  and  N_14 
REMARK    6  A    between atoms: C_19  and  N_20 
REMARK    7  A    between atoms: N_23  and  C_25 
ROOT
HETATM    1  C   UNL     1      38.805 -10.379   4.060  1.00  0.00     0.089 C 
HETATM    2  S   UNL     1      38.478 -10.286   2.384  1.00  0.00    -0.063 SA
HETATM    3  C   UNL     1      39.209 -11.784   2.083  1.00  0.00     0.115 C 
HETATM    4  C   UNL     1      39.785 -12.351   3.205  1.00  0.00     0.053 C 
HETATM    5  C   UNL     1      39.370 -11.613   4.392  1.00  0.00    -0.022 C 
HETATM    6  C   UNL     1      39.540 -12.082   5.810  1.00  0.00     0.051 C 
HETATM    7  N   UNL     1      39.197 -12.287   0.840  1.00  0.00    -0.224 NA
HETATM    8  C   UNL     1      39.845 -13.453   0.742  1.00  0.00     0.155 C 
HETATM    9  N   UNL     1      40.559 -14.050   1.720  1.00  0.00    -0.213 NA
HETATM   10  C   UNL     1      40.573 -13.514   2.974  1.00  0.00     0.141 C 
ENDROOT
BRANCH  10  11
HETATM   11  N   UNL     1      41.341 -14.135   3.958  1.00  0.00    -0.362 N 
HETATM   12  C   UNL     1      42.809 -14.047   3.816  1.00  0.00     0.152 C 
HETATM   13  C   UNL     1      43.405 -15.278   3.106  1.00  0.00     0.255 C 
HETATM   14  N   UNL     1      42.967 -16.572   3.794  1.00  0.00    -0.064 N 
HETATM   15  H   UNL     1      43.275 -16.511   4.775  1.00  0.00     0.280 HD
HETATM   16  C   UNL     1      41.431 -16.635   3.809  1.00  0.00     0.255 C 
HETATM   17  C   UNL     1      40.846 -15.399   4.527  1.00  0.00     0.152 C 
BRANCH  14  18
HETATM   18  C   UNL     1      43.617 -17.799   3.194  1.00  0.00     0.188 C 
HETATM   19  C   UNL     1      43.804 -18.904   4.230  1.00  0.00     0.033 C 
HETATM   20  C   UNL     1      44.010 -20.146   3.378  1.00  0.00     0.002 C 
HETATM   21  C   UNL     1      43.141 -19.937   2.142  1.00  0.00     0.002 C 
HETATM   22  C   UNL     1      42.716 -18.467   2.158  1.00  0.00     0.033 C 
ENDBRANCH  14  18
ENDBRANCH  10  11
BRANCH   8  23
HETATM   23  C   UNL     1      39.670 -14.181  -0.587  1.00  0.00     0.314 C 
BRANCH  23  24
HETATM   24  N   UNL     1      39.282 -13.264  -1.752  1.00  0.00    -0.072 N 
HETATM   25  H   UNL     1      38.983 -12.386  -1.294  1.00  0.00     0.279 HD
HETATM   26  C   UNL     1      40.450 -12.893  -2.617  1.00  0.00     0.269 C 
HETATM   27  C   UNL     1      38.122 -13.776  -2.547  1.00  0.00     0.269 C 
ENDBRANCH  23  24
ENDBRANCH   8  23
BRANCH   1  28
HETATM   28  C   UNL     1      38.487  -9.278   4.967  1.00  0.00     0.300 C 
HETATM   29  O   UNL     1      37.422  -9.163   5.561  1.00  0.00    -0.259 OA
BRANCH  28  30
HETATM   30  O   UNL     1      39.557  -8.454   5.144  1.00  0.00    -0.317 OA
BRANCH  30  31
HETATM   31  C   UNL     1      40.116  -8.423   6.468  1.00  0.00     0.174 C 
HETATM   32  C   UNL     1      41.556  -8.901   6.431  1.00  0.00     0.034 C 
ENDBRANCH  30  31
ENDBRANCH  28  30
ENDBRANCH   1  28
TORSDOF 7
ENDMDL
MODEL 2
REMARK VINA RESULT:      -6.9      3.412      7.550
REMARK  7 active torsions:
REMARK  status: ('A' for Active; 'I' for Inactive)
REMARK    1  A    between atoms: C_2  and  O_3 
REMARK    2  A    between atoms: O_3  and  C_4 
REMARK    3  A    between atoms: C_4  and  C_5 
REMARK    4  A    between atoms: C_12  and  C_13 
REMARK    5  A    between atoms: C_13  and  N_14 
REMARK    6  A    between atoms: C_19  and  N_20 
REMARK    7  A    between atoms: N_23  and  C_25 
ROOT
HETATM    1  C   UNL     1      40.513 -13.277   0.364  1.00  0.00     0.089 C 
HETATM    2  S   UNL     1      40.610 -14.940   0.750  1.00  0.00    -0.063 SA
HETATM    3  C   UNL     1      41.216 -14.620   2.299  1.00  0.00     0.115 C 
HETATM    4  C   UNL     1      41.438 -13.276   2.537  1.00  0.00     0.053 C 
HETATM    5  C   UNL     1      40.838 -12.486   1.469  1.00  0.00    -0.022 C 
HETATM    6  C   UNL     1      40.608 -11.001   1.511  1.00  0.00     0.051 C 
HETATM    7  N   UNL     1      41.445 -15.638   3.142  1.00  0.00    -0.224 NA
HETATM    8  C   UNL     1      41.960 -15.242   4.312  1.00  0.00     0.155 C 
HETATM    9  N   UNL     1      42.347 -13.987   4.625  1.00  0.00    -0.213 NA
HETATM   10  C   UNL     1      42.120 -12.967   3.748  1.00  0.00     0.141 C 
ENDROOT
BRANCH  10  11
HETATM   11  N   UNL     1      42.555 -11.686   4.086  1.00  0.00    -0.362 N 
HETATM   12  C   UNL     1      44.003 -11.509   4.313  1.00  0.00     0.152 C 
HETATM   13  C   UNL     1      44.383 -11.621   5.802  1.00  0.00     0.255 C 
HETATM   14  N   UNL     1      43.542 -10.667   6.654  1.00  0.00    -0.064 N 
HETATM   15  H   UNL     1      43.703  -9.717   6.290  1.00  0.00     0.280 HD
HETATM   16  C   UNL     1      42.053 -10.986   6.439  1.00  0.00     0.255 C 
HETATM   17  C   UNL     1      41.685 -10.865   4.944  1.00  0.00     0.152 C 
BRANCH  14  18
HETATM   18  C   UNL     1      43.957 -10.668   8.108  1.00  0.00     0.188 C 
HETATM   19  C   UNL     1      45.411 -10.237   8.282  1.00  0.00     0.033 C 
HETATM   20  C   UNL     1      45.487  -9.858   9.752  1.00  0.00     0.002 C 
HETATM   21  C   UNL     1      44.120  -9.268  10.087  1.00  0.00     0.002 C 
HETATM   22  C   UNL     1      43.202  -9.613   8.914  1.00  0.00     0.033 C 
ENDBRANCH  14  18
ENDBRANCH  10  11
BRANCH   8  23
HETATM   23  C   UNL     1      42.027 -16.321   5.387  1.00  0.00     0.314 C 
BRANCH  23  24
HETATM   24  N   UNL     1      43.452 -16.745   5.755  1.00  0.00    -0.072 N 
HETATM   25  H   UNL     1      44.012 -15.883   5.636  1.00  0.00     0.279 HD
HETATM   26  C   UNL     1      43.595 -17.124   7.200  1.00  0.00     0.269 C 
HETATM   27  C   UNL     1      44.018 -17.781   4.834  1.00  0.00     0.269 C 
ENDBRANCH  23  24
ENDBRANCH   8  23
BRANCH   1  28
HETATM   28  C   UNL     1      40.114 -12.819  -0.965  1.00  0.00     0.300 C 
HETATM   29  O   UNL     1      40.879 -12.308  -1.774  1.00  0.00    -0.259 OA
BRANCH  28  30
HETATM   30  O   UNL     1      38.812 -13.121  -1.227  1.00  0.00    -0.317 OA
BRANCH  30  31
HETATM   31  C   UNL     1      38.519 -13.532  -2.573  1.00  0.00     0.174 C 
HETATM   32  C   UNL     1      38.774 -15.021  -2.724  1.00  0.00     0.034 C 
ENDBRANCH  30  31
ENDBRANCH  28  30
ENDBRANCH   1  28
TORSDOF 7
ENDMDL
MODEL 3
REMARK VINA RESULT:      -6.9      3.326      6.778
REMARK  7 active torsions:
REMARK  status: ('A' for Active; 'I' for Inactive)
REMARK    1  A    between atoms: C_2  and  O_3 
REMARK    2  A    between atoms: O_3  and  C_4 
REMARK    3  A    between atoms: C_4  and  C_5 
REMARK    4  A    between atoms: C_12  and  C_13 
REMARK    5  A    between atoms: C_13  and  N_14 
REMARK    6  A    between atoms: C_19  and  N_20 
REMARK    7  A    between atoms: N_23  and  C_25 
ROOT
HETATM    1  C   UNL     1      39.386 -13.073  -0.700  1.00  0.00     0.089 C 
HETATM    2  S   UNL     1      39.752 -14.740  -0.597  1.00  0.00    -0.063 SA
HETATM    3  C   UNL     1      40.427 -14.571   0.947  1.00  0.00     0.115 C 
HETATM    4  C   UNL     1      40.472 -13.262   1.389  1.00  0.00     0.053 C 
HETATM    5  C   UNL     1      39.681 -12.420   0.499  1.00  0.00    -0.022 C 
HETATM    6  C   UNL     1      39.244 -11.013   0.796  1.00  0.00     0.051 C 
HETATM    7  N   UNL     1      40.867 -15.658   1.598  1.00  0.00    -0.224 NA
HETATM    8  C   UNL     1      41.411 -15.371   2.786  1.00  0.00     0.155 C 
HETATM    9  N   UNL     1      41.638 -14.135   3.278  1.00  0.00    -0.213 NA
HETATM   10  C   UNL     1      41.198 -13.040   2.594  1.00  0.00     0.141 C 
ENDROOT
BRANCH  10  11
HETATM   11  N   UNL     1      41.468 -11.774   3.111  1.00  0.00    -0.362 N 
HETATM   12  C   UNL     1      42.845 -11.265   2.948  1.00  0.00     0.152 C 
HETATM   13  C   UNL     1      43.725 -11.544   4.182  1.00  0.00     0.255 C 
HETATM   14  N   UNL     1      43.062 -11.019   5.457  1.00  0.00    -0.064 N 
HETATM   15  H   UNL     1      42.904 -10.010   5.321  1.00  0.00     0.280 HD
HETATM   16  C   UNL     1      41.679 -11.674   5.607  1.00  0.00     0.255 C 
HETATM   17  C   UNL     1      40.805 -11.384   4.367  1.00  0.00     0.152 C 
BRANCH  14  18
HETATM   18  C   UNL     1      43.942 -11.177   6.677  1.00  0.00     0.188 C 
HETATM   19  C   UNL     1      45.423 -11.169   6.310  1.00  0.00     0.033 C 
HETATM   20  C   UNL     1      46.106 -10.868   7.634  1.00  0.00     0.002 C 
HETATM   21  C   UNL     1      45.155  -9.934   8.376  1.00  0.00     0.002 C 
HETATM   22  C   UNL     1      43.829  -9.978   7.616  1.00  0.00     0.033 C 
ENDBRANCH  14  18
ENDBRANCH  10  11
BRANCH   8  23
HETATM   23  C   UNL     1      41.719 -16.579   3.666  1.00  0.00     0.314 C 
BRANCH  23  24
HETATM   24  N   UNL     1      43.157 -17.092   3.538  1.00  0.00    -0.072 N 
HETATM   25  H   UNL     1      43.673 -16.297   3.122  1.00  0.00     0.279 HD
HETATM   26  C   UNL     1      43.807 -17.346   4.866  1.00  0.00     0.269 C 
HETATM   27  C   UNL     1      43.290 -18.254   2.605  1.00  0.00     0.269 C 
ENDBRANCH  23  24
ENDBRANCH   8  23
BRANCH   1  28
HETATM   28  C   UNL     1      38.821 -12.484  -1.913  1.00  0.00     0.300 C 
HETATM   29  O   UNL     1      37.758 -11.878  -1.951  1.00  0.00    -0.259 OA
BRANCH  28  30
HETATM   30  O   UNL     1      39.671 -12.608  -2.970  1.00  0.00    -0.317 OA
BRANCH  30  31
HETATM   31  C   UNL     1      40.919 -11.904  -2.861  1.00  0.00     0.174 C 
HETATM   32  C   UNL     1      40.707 -10.430  -3.156  1.00  0.00     0.034 C 
ENDBRANCH  30  31
ENDBRANCH  28  30
ENDBRANCH   1  28
TORSDOF 7
ENDMDL
MODEL 4
REMARK VINA RESULT:      -6.8      4.271      8.844
REMARK  7 active torsions:
REMARK  status: ('A' for Active; 'I' for Inactive)
REMARK    1  A    between atoms: C_2  and  O_3 
REMARK    2  A    between atoms: O_3  and  C_4 
REMARK    3  A    between atoms: C_4  and  C_5 
REMARK    4  A    between atoms: C_12  and  C_13 
REMARK    5  A    between atoms: C_13  and  N_14 
REMARK    6  A    between atoms: C_19  and  N_20 
REMARK    7  A    between atoms: N_23  and  C_25 
ROOT
HETATM    1  C   UNL     1      43.629 -17.269   5.334  1.00  0.00     0.089 C 
HETATM    2  S   UNL     1      44.431 -16.373   6.549  1.00  0.00    -0.063 SA
HETATM    3  C   UNL     1      43.716 -14.920   6.053  1.00  0.00     0.115 C 
HETATM    4  C   UNL     1      42.930 -15.051   4.923  1.00  0.00     0.053 C 
HETATM    5  C   UNL     1      42.730 -16.465   4.629  1.00  0.00    -0.022 C 
HETATM    6  C   UNL     1      41.710 -17.018   3.673  1.00  0.00     0.051 C 
HETATM    7  N   UNL     1      43.961 -13.794   6.740  1.00  0.00    -0.224 NA
HETATM    8  C   UNL     1      43.364 -12.720   6.212  1.00  0.00     0.155 C 
HETATM    9  N   UNL     1      42.683 -12.681   5.047  1.00  0.00    -0.213 NA
HETATM   10  C   UNL     1      42.458 -13.834   4.353  1.00  0.00     0.141 C 
ENDROOT
BRANCH  10  11
HETATM   11  N   UNL     1      41.775 -13.762   3.140  1.00  0.00    -0.362 N 
HETATM   12  C   UNL     1      42.384 -12.937   2.077  1.00  0.00     0.152 C 
HETATM   13  C   UNL     1      41.819 -11.504   2.049  1.00  0.00     0.255 C 
HETATM   14  N   UNL     1      40.292 -11.520   1.965  1.00  0.00    -0.064 N 
HETATM   15  H   UNL     1      40.042 -12.045   1.115  1.00  0.00     0.280 HD
HETATM   16  C   UNL     1      39.734 -12.309   3.161  1.00  0.00     0.255 C 
HETATM   17  C   UNL     1      40.303 -13.744   3.176  1.00  0.00     0.152 C 
BRANCH  14  18
HETATM   18  C   UNL     1      39.702 -10.134   1.827  1.00  0.00     0.188 C 
HETATM   19  C   UNL     1      38.197 -10.132   2.080  1.00  0.00     0.033 C 
HETATM   20  C   UNL     1      37.894  -8.668   2.356  1.00  0.00     0.002 C 
HETATM   21  C   UNL     1      39.128  -8.129   3.074  1.00  0.00     0.002 C 
HETATM   22  C   UNL     1      40.219  -9.188   2.908  1.00  0.00     0.033 C 
ENDBRANCH  14  18
ENDBRANCH  10  11
BRANCH   8  23
HETATM   23  C   UNL     1      43.418 -11.462   7.073  1.00  0.00     0.314 C 
BRANCH  23  24
HETATM   24  N   UNL     1      44.726 -11.297   7.853  1.00  0.00    -0.072 N 
HETATM   25  H   UNL     1      44.963 -12.257   8.156  1.00  0.00     0.279 HD
HETATM   26  C   UNL     1      45.869 -10.850   6.990  1.00  0.00     0.269 C 
HETATM   27  C   UNL     1      44.578 -10.460   9.085  1.00  0.00     0.269 C 
ENDBRANCH  23  24
ENDBRANCH   8  23
BRANCH   1  28
HETATM   28  C   UNL     1      43.888 -18.693   5.132  1.00  0.00     0.300 C 
HETATM   29  O   UNL     1      43.668 -19.557   5.972  1.00  0.00    -0.259 OA
BRANCH  28  30
HETATM   30  O   UNL     1      44.310 -18.948   3.862  1.00  0.00    -0.317 OA
BRANCH  30  31
HETATM   31  C   UNL     1      43.916 -20.215   3.310  1.00  0.00     0.174 C 
HETATM   32  C   UNL     1      43.297 -20.011   1.939  1.00  0.00     0.034 C 
ENDBRANCH  30  31
ENDBRANCH  28  30
ENDBRANCH   1  28
TORSDOF 7
ENDMDL
MODEL 5
REMARK VINA RESULT:      -6.7      3.642      7.818
REMARK  7 active torsions:
REMARK  status: ('A' for Active; 'I' for Inactive)
REMARK    1  A    between atoms: C_2  and  O_3 
REMARK    2  A    between atoms: O_3  and  C_4 
REMARK    3  A    between atoms: C_4  and  C_5 
REMARK    4  A    between atoms: C_12  and  C_13 
REMARK    5  A    between atoms: C_13  and  N_14 
REMARK    6  A    between atoms: C_19  and  N_20 
REMARK    7  A    between atoms: N_23  and  C_25 
ROOT
HETATM    1  C   UNL     1      43.260 -17.117   3.978  1.00  0.00     0.089 C 
HETATM    2  S   UNL     1      42.692 -17.035   2.367  1.00  0.00    -0.063 SA
HETATM    3  C   UNL     1      42.115 -15.456   2.573  1.00  0.00     0.115 C 
HETATM    4  C   UNL     1      42.256 -14.982   3.864  1.00  0.00     0.053 C 
HETATM    5  C   UNL     1      43.105 -15.889   4.627  1.00  0.00    -0.022 C 
HETATM    6  C   UNL     1      43.729 -15.581   5.959  1.00  0.00     0.051 C 
HETATM    7  N   UNL     1      41.572 -14.810   1.530  1.00  0.00    -0.224 NA
HETATM    8  C   UNL     1      41.124 -13.590   1.848  1.00  0.00     0.155 C 
HETATM    9  N   UNL     1      41.078 -13.058   3.087  1.00  0.00    -0.213 NA
HETATM   10  C   UNL     1      41.621 -13.737   4.139  1.00  0.00     0.141 C 
ENDROOT
BRANCH  10  11
HETATM   11  N   UNL     1      41.536 -13.177   5.412  1.00  0.00    -0.362 N 
HETATM   12  C   UNL     1      40.224 -13.245   6.087  1.00  0.00     0.152 C 
HETATM   13  C   UNL     1      39.390 -11.966   5.880  1.00  0.00     0.255 C 
HETATM   14  N   UNL     1      40.185 -10.723   6.285  1.00  0.00    -0.064 N 
HETATM   15  H   UNL     1      40.456 -10.846   7.271  1.00  0.00     0.280 HD
HETATM   16  C   UNL     1      41.484 -10.672   5.464  1.00  0.00     0.255 C 
HETATM   17  C   UNL     1      42.313 -11.956   5.684  1.00  0.00     0.152 C 
BRANCH  14  18
HETATM   18  C   UNL     1      39.365  -9.455   6.198  1.00  0.00     0.188 C 
HETATM   19  C   UNL     1      40.155  -8.313   5.563  1.00  0.00     0.033 C 
HETATM   20  C   UNL     1      39.071  -7.332   5.148  1.00  0.00     0.002 C 
HETATM   21  C   UNL     1      37.877  -8.194   4.749  1.00  0.00     0.002 C 
HETATM   22  C   UNL     1      38.183  -9.608   5.244  1.00  0.00     0.033 C 
ENDBRANCH  14  18
ENDBRANCH  10  11
BRANCH   8  23
HETATM   23  C   UNL     1      40.707 -12.726   0.662  1.00  0.00     0.314 C 
BRANCH  23  24
HETATM   24  N   UNL     1      39.227 -12.853   0.288  1.00  0.00    -0.072 N 
HETATM   25  H   UNL     1      38.897 -13.667   0.836  1.00  0.00     0.279 HD
HETATM   26  C   UNL     1      38.404 -11.689   0.756  1.00  0.00     0.269 C 
HETATM   27  C   UNL     1      39.007 -13.164  -1.159  1.00  0.00     0.269 C 
ENDBRANCH  23  24
ENDBRANCH   8  23
BRANCH   1  28
HETATM   28  C   UNL     1      43.838 -18.341   4.528  1.00  0.00     0.300 C 
HETATM   29  O   UNL     1      43.695 -18.708   5.687  1.00  0.00    -0.259 OA
BRANCH  28  30
HETATM   30  O   UNL     1      44.471 -19.069   3.566  1.00  0.00    -0.317 OA
BRANCH  30  31
HETATM   31  C   UNL     1      43.924 -20.371   3.299  1.00  0.00     0.174 C 
HETATM   32  C   UNL     1      43.626 -20.512   1.817  1.00  0.00     0.034 C 
ENDBRANCH  30  31
ENDBRANCH  28  30
ENDBRANCH   1  28
TORSDOF 7
ENDMDL
MODEL 6
REMARK VINA RESULT:      -6.7      3.724      7.978
REMARK  7 active torsions:
REMARK  status: ('A' for Active; 'I' for Inactive)
REMARK    1  A    between atoms: C_2  and  O_3 
REMARK    2  A    between atoms: O_3  and  C_4 
REMARK    3  A    between atoms: C_4  and  C_5 
REMARK    4  A    between atoms: C_12  and  C_13 
REMARK    5  A    between atoms: C_13  and  N_14 
REMARK    6  A    between atoms: C_19  and  N_20 
REMARK    7  A    between atoms: N_23  and  C_25 
ROOT
HETATM    1  C   UNL     1      43.016 -15.962   5.733  1.00  0.00     0.089 C 
HETATM    2  S   UNL     1      43.654 -14.659   6.640  1.00  0.00    -0.063 SA
HETATM    3  C   UNL     1      42.601 -13.546   5.919  1.00  0.00     0.115 C 
HETATM    4  C   UNL     1      41.808 -14.098   4.930  1.00  0.00     0.053 C 
HETATM    5  C   UNL     1      41.921 -15.551   4.968  1.00  0.00    -0.022 C 
HETATM    6  C   UNL     1      41.007 -16.513   4.263  1.00  0.00     0.051 C 
HETATM    7  N   UNL     1      42.618 -12.266   6.320  1.00  0.00    -0.224 NA
HETATM    8  C   UNL     1      41.765 -11.494   5.637  1.00  0.00     0.155 C 
HETATM    9  N   UNL     1      41.033 -11.871   4.567  1.00  0.00    -0.213 NA
HETATM   10  C   UNL     1      41.042 -13.174   4.163  1.00  0.00     0.141 C 
ENDROOT
BRANCH  10  11
HETATM   11  N   UNL     1      40.298 -13.531   3.040  1.00  0.00    -0.362 N 
HETATM   12  C   UNL     1      41.055 -13.907   1.828  1.00  0.00     0.152 C 
HETATM   13  C   UNL     1      41.243 -12.723   0.861  1.00  0.00     0.255 C 
HETATM   14  N   UNL     1      39.900 -12.072   0.525  1.00  0.00    -0.064 N 
HETATM   15  H   UNL     1      39.303 -12.806   0.118  1.00  0.00     0.280 HD
HETATM   16  C   UNL     1      39.225 -11.617   1.829  1.00  0.00     0.255 C 
HETATM   17  C   UNL     1      39.038 -12.813   2.788  1.00  0.00     0.152 C 
BRANCH  14  18
HETATM   18  C   UNL     1      40.029 -10.973  -0.506  1.00  0.00     0.188 C 
HETATM   19  C   UNL     1      41.366 -10.245  -0.392  1.00  0.00     0.033 C 
HETATM   20  C   UNL     1      41.496  -9.547  -1.736  1.00  0.00     0.002 C 
HETATM   21  C   UNL     1      40.841 -10.487  -2.744  1.00  0.00     0.002 C 
HETATM   22  C   UNL     1      40.077 -11.530  -1.926  1.00  0.00     0.033 C 
ENDBRANCH  14  18
ENDBRANCH  10  11
BRANCH   8  23
HETATM   23  C   UNL     1      41.575 -10.088   6.197  1.00  0.00     0.314 C 
BRANCH  23  24
HETATM   24  N   UNL     1      41.195 -10.056   7.681  1.00  0.00    -0.072 N 
HETATM   25  H   UNL     1      41.290 -11.039   7.988  1.00  0.00     0.279 HD
HETATM   26  C   UNL     1      42.166  -9.275   8.516  1.00  0.00     0.269 C 
HETATM   27  C   UNL     1      39.776  -9.644   7.920  1.00  0.00     0.269 C 
ENDBRANCH  23  24
ENDBRANCH   8  23
BRANCH   1  28
HETATM   28  C   UNL     1      43.583 -17.306   5.817  1.00  0.00     0.300 C 
HETATM   29  O   UNL     1      43.252 -18.141   6.650  1.00  0.00    -0.259 OA
BRANCH  28  30
HETATM   30  O   UNL     1      44.450 -17.546   4.794  1.00  0.00    -0.317 OA
BRANCH  30  31
HETATM   31  C   UNL     1      44.321 -18.822   4.145  1.00  0.00     0.174 C 
HETATM   32  C   UNL     1      43.644 -18.650   2.798  1.00  0.00     0.034 C 
ENDBRANCH  30  31
ENDBRANCH  28  30
ENDBRANCH   1  28
TORSDOF 7
ENDMDL
MODEL 7
REMARK VINA RESULT:      -6.4      1.816      2.563
REMARK  7 active torsions:
REMARK  status: ('A' for Active; 'I' for Inactive)
REMARK    1  A    between atoms: C_2  and  O_3 
REMARK    2  A    between atoms: O_3  and  C_4 
REMARK    3  A    between atoms: C_4  and  C_5 
REMARK    4  A    between atoms: C_12  and  C_13 
REMARK    5  A    between atoms: C_13  and  N_14 
REMARK    6  A    between atoms: C_19  and  N_20 
REMARK    7  A    between atoms: N_23  and  C_25 
ROOT
HETATM    1  C   UNL     1      38.156  -8.746   4.309  1.00  0.00     0.089 C 
HETATM    2  S   UNL     1      38.058  -8.505   2.618  1.00  0.00    -0.063 SA
HETATM    3  C   UNL     1      38.901  -9.938   2.291  1.00  0.00     0.115 C 
HETATM    4  C   UNL     1      39.346 -10.587   3.429  1.00  0.00     0.053 C 
HETATM    5  C   UNL     1      38.733  -9.983   4.606  1.00  0.00    -0.022 C 
HETATM    6  C   UNL     1      38.730 -10.579   5.986  1.00  0.00     0.051 C 
HETATM    7  N   UNL     1      39.087 -10.319   1.019  1.00  0.00    -0.224 NA
HETATM    8  C   UNL     1      39.801 -11.445   0.911  1.00  0.00     0.155 C 
HETATM    9  N   UNL     1      40.405 -12.104   1.922  1.00  0.00    -0.213 NA
HETATM   10  C   UNL     1      40.218 -11.691   3.209  1.00  0.00     0.141 C 
ENDROOT
BRANCH  10  11
HETATM   11  N   UNL     1      40.874 -12.373   4.232  1.00  0.00    -0.362 N 
HETATM   12  C   UNL     1      42.346 -12.255   4.278  1.00  0.00     0.152 C 
HETATM   13  C   UNL     1      43.052 -13.421   3.560  1.00  0.00     0.255 C 
HETATM   14  N   UNL     1      42.563 -14.769   4.094  1.00  0.00    -0.064 N 
HETATM   15  H   UNL     1      42.748 -14.777   5.107  1.00  0.00     0.280 HD
HETATM   16  C   UNL     1      41.038 -14.853   3.915  1.00  0.00     0.255 C 
HETATM   17  C   UNL     1      40.342 -13.683   4.643  1.00  0.00     0.152 C 
BRANCH  14  18
HETATM   18  C   UNL     1      43.308 -15.938   3.491  1.00  0.00     0.188 C 
HETATM   19  C   UNL     1      43.416 -17.105   4.469  1.00  0.00     0.033 C 
HETATM   20  C   UNL     1      43.748 -18.283   3.568  1.00  0.00     0.002 C 
HETATM   21  C   UNL     1      43.009 -18.012   2.260  1.00  0.00     0.002 C 
HETATM   22  C   UNL     1      42.543 -16.557   2.323  1.00  0.00     0.033 C 
ENDBRANCH  14  18
ENDBRANCH  10  11
BRANCH   8  23
HETATM   23  C   UNL     1      39.850 -12.047  -0.490  1.00  0.00     0.314 C 
BRANCH  23  24
HETATM   24  N   UNL     1      38.838 -13.174  -0.719  1.00  0.00    -0.072 N 
HETATM   25  H   UNL     1      38.361 -13.275   0.194  1.00  0.00     0.279 HD
HETATM   26  C   UNL     1      37.764 -12.804  -1.699  1.00  0.00     0.269 C 
HETATM   27  C   UNL     1      39.478 -14.488  -1.041  1.00  0.00     0.269 C 
ENDBRANCH  23  24
ENDBRANCH   8  23
BRANCH   1  28
HETATM   28  C   UNL     1      37.659  -7.751   5.257  1.00  0.00     0.300 C 
HETATM   29  O   UNL     1      38.362  -6.908   5.800  1.00  0.00    -0.259 OA
BRANCH  28  30
HETATM   30  O   UNL     1      36.304  -7.816   5.384  1.00  0.00    -0.317 OA
BRANCH  30  31
HETATM   31  C   UNL     1      35.630  -6.564   5.595  1.00  0.00     0.174 C 
HETATM   32  C   UNL     1      34.132  -6.792   5.682  1.00  0.00     0.034 C 
ENDBRANCH  30  31
ENDBRANCH  28  30
ENDBRANCH   1  28
TORSDOF 7
ENDMDL
MODEL 8
REMARK VINA RESULT:      -6.4     17.256     20.071
REMARK  7 active torsions:
REMARK  status: ('A' for Active; 'I' for Inactive)
REMARK    1  A    between atoms: C_2  and  O_3 
REMARK    2  A    between atoms: O_3  and  C_4 
REMARK    3  A    between atoms: C_4  and  C_5 
REMARK    4  A    between atoms: C_12  and  C_13 
REMARK    5  A    between atoms: C_13  and  N_14 
REMARK    6  A    between atoms: C_19  and  N_20 
REMARK    7  A    between atoms: N_23  and  C_25 
ROOT
HETATM    1  C   UNL     1      50.418 -31.582   3.944  1.00  0.00     0.089 C 
HETATM    2  S   UNL     1      50.903 -32.836   2.888  1.00  0.00    -0.063 SA
HETATM    3  C   UNL     1      50.139 -32.114   1.560  1.00  0.00     0.115 C 
HETATM    4  C   UNL     1      49.437 -30.968   1.885  1.00  0.00     0.053 C 
HETATM    5  C   UNL     1      49.771 -30.560   3.245  1.00  0.00    -0.022 C 
HETATM    6  C   UNL     1      49.449 -29.225   3.855  1.00  0.00     0.051 C 
HETATM    7  N   UNL     1      50.245 -32.680   0.348  1.00  0.00    -0.224 NA
HETATM    8  C   UNL     1      49.559 -32.025  -0.595  1.00  0.00     0.155 C 
HETATM    9  N   UNL     1      48.731 -30.978  -0.394  1.00  0.00    -0.213 NA
HETATM   10  C   UNL     1      48.623 -30.426   0.849  1.00  0.00     0.141 C 
ENDROOT
BRANCH  10  11
HETATM   11  N   UNL     1      47.740 -29.364   1.035  1.00  0.00    -0.362 N 
HETATM   12  C   UNL     1      46.322 -29.705   1.269  1.00  0.00     0.152 C 
HETATM   13  C   UNL     1      45.490 -29.677  -0.027  1.00  0.00     0.255 C 
HETATM   14  N   UNL     1      45.651 -28.339  -0.752  1.00  0.00    -0.064 N 
HETATM   15  H   UNL     1      45.358 -27.603  -0.095  1.00  0.00     0.280 HD
HETATM   16  C   UNL     1      47.142 -28.109  -1.050  1.00  0.00     0.255 C 
HETATM   17  C   UNL     1      47.965 -28.134   0.257  1.00  0.00     0.152 C 
BRANCH  14  18
HETATM   18  C   UNL     1      44.767 -28.230  -1.974  1.00  0.00     0.188 C 
HETATM   19  C   UNL     1      45.583 -28.003  -3.244  1.00  0.00     0.033 C 
HETATM   20  C   UNL     1      44.613 -28.383  -4.352  1.00  0.00     0.002 C 
HETATM   21  C   UNL     1      43.770 -29.518  -3.778  1.00  0.00     0.002 C 
HETATM   22  C   UNL     1      44.049 -29.545  -2.274  1.00  0.00     0.033 C 
ENDBRANCH  14  18
ENDBRANCH  10  11
BRANCH   8  23
HETATM   23  C   UNL     1      49.825 -32.486  -2.025  1.00  0.00     0.314 C 
BRANCH  23  24
HETATM   24  N   UNL     1      51.227 -32.145  -2.538  1.00  0.00    -0.072 N 
HETATM   25  H   UNL     1      51.857 -32.724  -1.956  1.00  0.00     0.279 HD
HETATM   26  C   UNL     1      51.456 -32.593  -3.952  1.00  0.00     0.269 C 
HETATM   27  C   UNL     1      51.604 -30.713  -2.324  1.00  0.00     0.269 C 
ENDBRANCH  23  24
ENDBRANCH   8  23
BRANCH   1  28
HETATM   28  C   UNL     1      50.697 -31.634   5.378  1.00  0.00     0.300 C 
HETATM   29  O   UNL     1      50.017 -32.250   6.188  1.00  0.00    -0.259 OA
BRANCH  28  30
HETATM   30  O   UNL     1      51.861 -30.993   5.682  1.00  0.00    -0.317 OA
BRANCH  30  31
HETATM   31  C   UNL     1      52.930 -31.824   6.163  1.00  0.00     0.174 C 
HETATM   32  C   UNL     1      53.465 -31.271   7.471  1.00  0.00     0.034 C 
ENDBRANCH  30  31
ENDBRANCH  28  30
ENDBRANCH   1  28
TORSDOF 7
ENDMDL
MODEL 9
REMARK VINA RESULT:      -6.3      3.026      5.597
REMARK  7 active torsions:
REMARK  status: ('A' for Active; 'I' for Inactive)
REMARK    1  A    between atoms: C_2  and  O_3 
REMARK    2  A    between atoms: O_3  and  C_4 
REMARK    3  A    between atoms: C_4  and  C_5 
REMARK    4  A    between atoms: C_12  and  C_13 
REMARK    5  A    between atoms: C_13  and  N_14 
REMARK    6  A    between atoms: C_19  and  N_20 
REMARK    7  A    between atoms: N_23  and  C_25 
ROOT
HETATM    1  C   UNL     1      39.318 -11.529  -0.968  1.00  0.00     0.089 C 
HETATM    2  S   UNL     1      39.677 -10.194   0.039  1.00  0.00    -0.063 SA
HETATM    3  C   UNL     1      40.583 -11.147   1.105  1.00  0.00     0.115 C 
HETATM    4  C   UNL     1      40.573 -12.493   0.786  1.00  0.00     0.053 C 
HETATM    5  C   UNL     1      39.992 -12.675  -0.540  1.00  0.00    -0.022 C 
HETATM    6  C   UNL     1      40.070 -13.934  -1.357  1.00  0.00     0.051 C 
HETATM    7  N   UNL     1      41.203 -10.570   2.145  1.00  0.00    -0.224 NA
HETATM    8  C   UNL     1      41.846 -11.447   2.923  1.00  0.00     0.155 C 
HETATM    9  N   UNL     1      41.809 -12.791   2.804  1.00  0.00    -0.213 NA
HETATM   10  C   UNL     1      41.159 -13.362   1.749  1.00  0.00     0.141 C 
ENDROOT
BRANCH  10  11
HETATM   11  N   UNL     1      41.113 -14.753   1.665  1.00  0.00    -0.362 N 
HETATM   12  C   UNL     1      40.396 -15.465   2.742  1.00  0.00     0.152 C 
HETATM   13  C   UNL     1      41.341 -15.941   3.863  1.00  0.00     0.255 C 
HETATM   14  N   UNL     1      42.495 -16.767   3.291  1.00  0.00    -0.064 N 
HETATM   15  H   UNL     1      42.076 -17.559   2.783  1.00  0.00     0.280 HD
HETATM   16  C   UNL     1      43.251 -15.919   2.255  1.00  0.00     0.255 C 
HETATM   17  C   UNL     1      42.295 -15.453   1.136  1.00  0.00     0.152 C 
BRANCH  14  18
HETATM   18  C   UNL     1      43.386 -17.343   4.368  1.00  0.00     0.188 C 
HETATM   19  C   UNL     1      42.691 -17.363   5.727  1.00  0.00     0.033 C 
HETATM   20  C   UNL     1      43.516 -18.360   6.524  1.00  0.00     0.002 C 
HETATM   21  C   UNL     1      43.975 -19.405   5.511  1.00  0.00     0.002 C 
HETATM   22  C   UNL     1      43.682 -18.822   4.128  1.00  0.00     0.033 C 
ENDBRANCH  14  18
ENDBRANCH  10  11
BRANCH   8  23
HETATM   23  C   UNL     1      42.752 -10.829   3.983  1.00  0.00     0.314 C 
BRANCH  23  24
HETATM   24  N   UNL     1      42.605 -11.458   5.372  1.00  0.00    -0.072 N 
HETATM   25  H   UNL     1      41.966 -12.257   5.221  1.00  0.00     0.279 HD
HETATM   26  C   UNL     1      43.884 -12.052   5.883  1.00  0.00     0.269 C 
HETATM   27  C   UNL     1      41.960 -10.546   6.369  1.00  0.00     0.269 C 
ENDBRANCH  23  24
ENDBRANCH   8  23
BRANCH   1  28
HETATM   28  C   UNL     1      38.428 -11.404  -2.121  1.00  0.00     0.300 C 
HETATM   29  O   UNL     1      37.207 -11.475  -2.057  1.00  0.00    -0.259 OA
BRANCH  28  30
HETATM   30  O   UNL     1      39.121 -11.103  -3.255  1.00  0.00    -0.317 OA
BRANCH  30  31
HETATM   31  C   UNL     1      39.119  -9.720  -3.645  1.00  0.00     0.174 C 
HETATM   32  C   UNL     1      40.504  -9.315  -4.114  1.00  0.00     0.034 C 
ENDBRANCH  30  31
ENDBRANCH  28  30
ENDBRANCH   1  28
TORSDOF 7
ENDMDL
MODEL 10
REMARK VINA RESULT:      -6.2     16.948     18.762
REMARK  7 active torsions:
REMARK  status: ('A' for Active; 'I' for Inactive)
REMARK    1  A    between atoms: C_2  and  O_3 
REMARK    2  A    between atoms: O_3  and  C_4 
REMARK    3  A    between atoms: C_4  and  C_5 
REMARK    4  A    between atoms: C_12  and  C_13 
REMARK    5  A    between atoms: C_13  and  N_14 
REMARK    6  A    between atoms: C_19  and  N_20 
REMARK    7  A    between atoms: N_23  and  C_25 
ROOT
HETATM    1  C   UNL     1      45.202 -28.928  -2.028  1.00  0.00     0.089 C 
HETATM    2  S   UNL     1      43.857 -29.789  -1.416  1.00  0.00    -0.063 SA
HETATM    3  C   UNL     1      44.551 -29.926   0.123  1.00  0.00     0.115 C 
HETATM    4  C   UNL     1      45.832 -29.409   0.197  1.00  0.00     0.053 C 
HETATM    5  C   UNL     1      46.124 -28.653  -1.015  1.00  0.00    -0.022 C 
HETATM    6  C   UNL     1      47.279 -27.708  -1.192  1.00  0.00     0.051 C 
HETATM    7  N   UNL     1      43.858 -30.511   1.111  1.00  0.00    -0.224 NA
HETATM    8  C   UNL     1      44.544 -30.585   2.257  1.00  0.00     0.155 C 
HETATM    9  N   UNL     1      45.838 -30.244   2.432  1.00  0.00    -0.213 NA
HETATM   10  C   UNL     1      46.532 -29.665   1.410  1.00  0.00     0.141 C 
ENDROOT
BRANCH  10  11
HETATM   11  N   UNL     1      47.875 -29.346   1.610  1.00  0.00    -0.362 N 
HETATM   12  C   UNL     1      48.874 -30.250   1.005  1.00  0.00     0.152 C 
HETATM   13  C   UNL     1      49.371 -31.322   1.994  1.00  0.00     0.255 C 
HETATM   14  N   UNL     1      49.879 -30.681   3.286  1.00  0.00    -0.064 N 
HETATM   15  H   UNL     1      50.630 -30.026   3.023  1.00  0.00     0.280 HD
HETATM   16  C   UNL     1      48.749 -29.842   3.905  1.00  0.00     0.255 C 
HETATM   17  C   UNL     1      48.263 -28.769   2.908  1.00  0.00     0.152 C 
BRANCH  14  18
HETATM   18  C   UNL     1      50.476 -31.690   4.241  1.00  0.00     0.188 C 
HETATM   19  C   UNL     1      51.463 -31.041   5.207  1.00  0.00     0.033 C 
HETATM   20  C   UNL     1      51.578 -32.063   6.326  1.00  0.00     0.002 C 
HETATM   21  C   UNL     1      50.195 -32.699   6.434  1.00  0.00     0.002 C 
HETATM   22  C   UNL     1      49.424 -32.268   5.185  1.00  0.00     0.033 C 
ENDBRANCH  14  18
ENDBRANCH  10  11
BRANCH   8  23
HETATM   23  C   UNL     1      43.732 -31.030   3.469  1.00  0.00     0.314 C 
BRANCH  23  24
HETATM   24  N   UNL     1      42.460 -31.808   3.115  1.00  0.00    -0.072 N 
HETATM   25  H   UNL     1      42.427 -31.781   2.081  1.00  0.00     0.279 HD
HETATM   26  C   UNL     1      42.544 -33.261   3.480  1.00  0.00     0.269 C 
HETATM   27  C   UNL     1      41.210 -31.162   3.624  1.00  0.00     0.269 C 
ENDBRANCH  23  24
ENDBRANCH   8  23
BRANCH   1  28
HETATM   28  C   UNL     1      45.295 -28.548  -3.436  1.00  0.00     0.300 C 
HETATM   29  O   UNL     1      45.242 -27.394  -3.841  1.00  0.00    -0.259 OA
BRANCH  28  30
HETATM   30  O   UNL     1      45.546 -29.628  -4.228  1.00  0.00    -0.317 OA
BRANCH  30  31
HETATM   31  C   UNL     1      44.496 -30.001  -5.135  1.00  0.00     0.174 C 
HETATM   32  C   UNL     1      44.272 -31.501  -5.078  1.00  0.00     0.034 C 
ENDBRANCH  30  31
ENDBRANCH  28  30
ENDBRANCH   1  28
TORSDOF 7
ENDMDL
