MODEL 1
REMARK VINA RESULT:      -7.7      0.000      0.000
REMARK  6 active torsions:
REMARK  status: ('A' for Active; 'I' for Inactive)
REMARK    1  A    between atoms: C_2  and  C_3 
REMARK    2  A    between atoms: C_5  and  C_6 
REMARK       I    between atoms: C_6  and  N_7 
REMARK    3  A    between atoms: N_7  and  C_8 
REMARK    4  A    between atoms: C_8  and  C_9 
REMARK    5  A    between atoms: C_9  and  C_10 
REMARK    6  A    between atoms: C_19  and  O_20 
ROOT
HETATM    1  C   UNL     1      40.405 -14.439   2.355  1.00  0.00     0.254 C 
HETATM    2  N   UNL     1      40.741 -15.753   2.125  1.00  0.00    -0.356 N 
HETATM    3  O   UNL     1      40.539 -13.909   3.455  1.00  0.00    -0.268 OA
HETATM    4  H   UNL     1      40.655 -16.088   1.169  1.00  0.00     0.162 HD
ENDROOT
BRANCH   1   5
HETATM    5  C   UNL     1      39.866 -13.658   1.195  1.00  0.00     0.065 A 
HETATM    6  C   UNL     1      40.058 -14.210  -0.084  1.00  0.00     0.027 A 
HETATM    7  C   UNL     1      39.592 -13.561  -1.237  1.00  0.00    -0.057 A 
HETATM    8  C   UNL     1      38.914 -12.346  -1.103  1.00  0.00     0.010 A 
HETATM    9  C   UNL     1      38.715 -11.782   0.159  1.00  0.00     0.038 A 
HETATM   10  C   UNL     1      39.187 -12.434   1.302  1.00  0.00     0.081 A 
BRANCH   7  11
HETATM   11  C   UNL     1      39.789 -14.186  -2.595  1.00  0.00     0.034 C 
HETATM   12  C   UNL     1      38.599 -15.042  -3.002  1.00  0.00     0.010 C 
ENDBRANCH   7  11
BRANCH  10  13
HETATM   13  O   UNL     1      38.964 -11.851   2.525  1.00  0.00    -0.360 OA
HETATM   14  H   UNL     1      38.775 -12.552   3.173  1.00  0.00     0.217 HD
ENDBRANCH  10  13
ENDBRANCH   1   5
BRANCH   2  15
HETATM   15  C   UNL     1      41.354 -16.572   3.152  1.00  0.00     0.136 C 
BRANCH  15  16
HETATM   16  C   UNL     1      42.904 -16.689   3.062  1.00  0.00    -0.004 C 
HETATM   17  C   UNL     1      43.414 -16.102   1.725  1.00  0.00     0.021 C 
HETATM   18  C   UNL     1      43.544 -15.852   4.196  1.00  0.00     0.021 C 
BRANCH  16  19
HETATM   19  C   UNL     1      43.281 -18.185   3.143  1.00  0.00    -0.046 A 
HETATM   20  C   UNL     1      43.007 -19.047   2.067  1.00  0.00     0.027 A 
HETATM   21  C   UNL     1      43.341 -20.391   2.159  1.00  0.00     0.116 A 
HETATM   22  N   UNL     1      43.926 -20.947   3.238  1.00  0.00    -0.273 NA
HETATM   23  C   UNL     1      44.177 -20.119   4.270  1.00  0.00     0.116 A 
HETATM   24  C   UNL     1      43.878 -18.761   4.272  1.00  0.00     0.027 A 
ENDBRANCH  16  19
ENDBRANCH  15  16
ENDBRANCH   2  15
TORSDOF 6
ENDMDL
MODEL 2
REMARK VINA RESULT:      -7.7      2.058      7.185
REMARK  6 active torsions:
REMARK  status: ('A' for Active; 'I' for Inactive)
REMARK    1  A    between atoms: C_2  and  C_3 
REMARK    2  A    between atoms: C_5  and  C_6 
REMARK       I    between atoms: C_6  and  N_7 
REMARK    3  A    between atoms: N_7  and  C_8 
REMARK    4  A    between atoms: C_8  and  C_9 
REMARK    5  A    between atoms: C_9  and  C_10 
REMARK    6  A    between atoms: C_19  and  O_20 
ROOT
HETATM    1  C   UNL     1      42.764 -15.153   3.173  1.00  0.00     0.254 C 
HETATM    2  N   UNL     1      42.465 -15.225   1.832  1.00  0.00    -0.356 N 
HETATM    3  O   UNL     1      42.602 -14.127   3.828  1.00  0.00    -0.268 OA
HETATM    4  H   UNL     1      42.571 -16.132   1.386  1.00  0.00     0.162 HD
ENDROOT
BRANCH   1   5
HETATM    5  C   UNL     1      43.298 -16.394   3.822  1.00  0.00     0.065 A 
HETATM    6  C   UNL     1      43.412 -17.536   3.009  1.00  0.00     0.027 A 
HETATM    7  C   UNL     1      43.901 -18.748   3.516  1.00  0.00    -0.057 A 
HETATM    8  C   UNL     1      44.290 -18.813   4.857  1.00  0.00     0.010 A 
HETATM    9  C   UNL     1      44.184 -17.690   5.680  1.00  0.00     0.038 A 
HETATM   10  C   UNL     1      43.691 -16.486   5.166  1.00  0.00     0.081 A 
BRANCH   7  11
HETATM   11  C   UNL     1      44.035 -19.951   2.616  1.00  0.00     0.034 C 
HETATM   12  C   UNL     1      42.779 -20.181   1.789  1.00  0.00     0.010 C 
ENDBRANCH   7  11
BRANCH  10  13
HETATM   13  O   UNL     1      43.609 -15.403   6.006  1.00  0.00    -0.360 OA
HETATM   14  H   UNL     1      43.231 -14.655   5.511  1.00  0.00     0.217 HD
ENDBRANCH  10  13
ENDBRANCH   1   5
BRANCH   2  15
HETATM   15  C   UNL     1      41.859 -14.113   1.127  1.00  0.00     0.136 C 
BRANCH  15  16
HETATM   16  C   UNL     1      40.328 -14.247   0.876  1.00  0.00    -0.004 C 
HETATM   17  C   UNL     1      39.838 -15.660   1.269  1.00  0.00     0.021 C 
HETATM   18  C   UNL     1      39.576 -13.240   1.781  1.00  0.00     0.021 C 
BRANCH  16  19
HETATM   19  C   UNL     1      40.062 -14.009  -0.626  1.00  0.00    -0.046 A 
HETATM   20  C   UNL     1      40.577 -12.870  -1.269  1.00  0.00     0.027 A 
HETATM   21  C   UNL     1      40.320 -12.664  -2.618  1.00  0.00     0.116 A 
HETATM   22  N   UNL     1      39.590 -13.503  -3.378  1.00  0.00    -0.273 NA
HETATM   23  C   UNL     1      39.091 -14.588  -2.756  1.00  0.00     0.116 A 
HETATM   24  C   UNL     1      39.293 -14.878  -1.411  1.00  0.00     0.027 A 
ENDBRANCH  16  19
ENDBRANCH  15  16
ENDBRANCH   2  15
TORSDOF 6
ENDMDL
MODEL 3
REMARK VINA RESULT:      -7.7      1.709      2.601
REMARK  6 active torsions:
REMARK  status: ('A' for Active; 'I' for Inactive)
REMARK    1  A    between atoms: C_2  and  C_3 
REMARK    2  A    between atoms: C_5  and  C_6 
REMARK       I    between atoms: C_6  and  N_7 
REMARK    3  A    between atoms: N_7  and  C_8 
REMARK    4  A    between atoms: C_8  and  C_9 
REMARK    5  A    between atoms: C_9  and  C_10 
REMARK    6  A    between atoms: C_19  and  O_20 
ROOT
HETATM    1  C   UNL     1      40.205 -14.582   0.982  1.00  0.00     0.254 C 
HETATM    2  N   UNL     1      40.844 -15.788   1.150  1.00  0.00    -0.356 N 
HETATM    3  O   UNL     1      39.834 -13.897   1.931  1.00  0.00    -0.268 OA
HETATM    4  H   UNL     1      41.171 -16.256   0.308  1.00  0.00     0.162 HD
ENDROOT
BRANCH   1   5
HETATM    5  C   UNL     1      39.977 -14.118  -0.425  1.00  0.00     0.065 A 
HETATM    6  C   UNL     1      40.524 -12.871  -0.777  1.00  0.00     0.027 A 
HETATM    7  C   UNL     1      40.371 -12.345  -2.068  1.00  0.00    -0.057 A 
HETATM    8  C   UNL     1      39.666 -13.085  -3.022  1.00  0.00     0.010 A 
HETATM    9  C   UNL     1      39.116 -14.325  -2.690  1.00  0.00     0.038 A 
HETATM   10  C   UNL     1      39.270 -14.839  -1.399  1.00  0.00     0.081 A 
BRANCH   7  11
HETATM   11  C   UNL     1      40.987 -11.017  -2.427  1.00  0.00     0.034 C 
HETATM   12  C   UNL     1      41.460 -10.261  -1.193  1.00  0.00     0.010 C 
ENDBRANCH   7  11
BRANCH  10  13
HETATM   13  O   UNL     1      38.720 -16.065  -1.115  1.00  0.00    -0.360 OA
HETATM   14  H   UNL     1      37.955 -15.933  -0.528  1.00  0.00     0.217 HD
ENDBRANCH  10  13
ENDBRANCH   1   5
BRANCH   2  15
HETATM   15  C   UNL     1      41.195 -16.287   2.465  1.00  0.00     0.136 C 
BRANCH  15  16
HETATM   16  C   UNL     1      42.718 -16.277   2.789  1.00  0.00    -0.004 C 
HETATM   17  C   UNL     1      43.523 -15.736   1.584  1.00  0.00     0.021 C 
HETATM   18  C   UNL     1      42.979 -15.316   3.974  1.00  0.00     0.021 C 
BRANCH  16  19
HETATM   19  C   UNL     1      43.157 -17.727   3.090  1.00  0.00    -0.046 A 
HETATM   20  C   UNL     1      43.744 -18.050   4.326  1.00  0.00     0.027 A 
HETATM   21  C   UNL     1      44.144 -19.356   4.578  1.00  0.00     0.116 A 
HETATM   22  N   UNL     1      44.007 -20.365   3.697  1.00  0.00    -0.273 NA
HETATM   23  C   UNL     1      43.453 -20.049   2.511  1.00  0.00     0.116 A 
HETATM   24  C   UNL     1      43.023 -18.772   2.167  1.00  0.00     0.027 A 
ENDBRANCH  16  19
ENDBRANCH  15  16
ENDBRANCH   2  15
TORSDOF 6
ENDMDL
MODEL 4
REMARK VINA RESULT:      -7.5      4.668      7.787
REMARK  6 active torsions:
REMARK  status: ('A' for Active; 'I' for Inactive)
REMARK    1  A    between atoms: C_2  and  C_3 
REMARK    2  A    between atoms: C_5  and  C_6 
REMARK       I    between atoms: C_6  and  N_7 
REMARK    3  A    between atoms: N_7  and  C_8 
REMARK    4  A    between atoms: C_8  and  C_9 
REMARK    5  A    between atoms: C_9  and  C_10 
REMARK    6  A    between atoms: C_19  and  O_20 
ROOT
HETATM    1  C   UNL     1      42.792 -14.660   6.015  1.00  0.00     0.254 C 
HETATM    2  N   UNL     1      42.354 -13.846   4.997  1.00  0.00    -0.356 N 
HETATM    3  O   UNL     1      42.915 -14.260   7.170  1.00  0.00    -0.268 OA
HETATM    4  H   UNL     1      42.222 -14.279   4.087  1.00  0.00     0.162 HD
ENDROOT
BRANCH   1   5
HETATM    5  C   UNL     1      43.115 -16.081   5.664  1.00  0.00     0.065 A 
HETATM    6  C   UNL     1      43.091 -16.417   4.299  1.00  0.00     0.027 A 
HETATM    7  C   UNL     1      43.379 -17.718   3.862  1.00  0.00    -0.057 A 
HETATM    8  C   UNL     1      43.705 -18.694   4.808  1.00  0.00     0.010 A 
HETATM    9  C   UNL     1      43.734 -18.379   6.168  1.00  0.00     0.038 A 
HETATM   10  C   UNL     1      43.441 -17.079   6.595  1.00  0.00     0.081 A 
BRANCH   7  11
HETATM   11  C   UNL     1      43.369 -18.047   2.390  1.00  0.00     0.034 C 
HETATM   12  C   UNL     1      43.330 -19.548   2.146  1.00  0.00     0.010 C 
ENDBRANCH   7  11
BRANCH  10  13
HETATM   13  O   UNL     1      43.487 -16.808   7.940  1.00  0.00    -0.360 OA
HETATM   14  H   UNL     1      42.675 -16.332   8.188  1.00  0.00     0.217 HD
ENDBRANCH  10  13
ENDBRANCH   1   5
BRANCH   2  15
HETATM   15  C   UNL     1      41.928 -12.482   5.242  1.00  0.00     0.136 C 
BRANCH  15  16
HETATM   16  C   UNL     1      42.980 -11.390   4.888  1.00  0.00    -0.004 C 
HETATM   17  C   UNL     1      43.838 -11.837   3.681  1.00  0.00     0.021 C 
HETATM   18  C   UNL     1      42.245 -10.095   4.464  1.00  0.00     0.021 C 
BRANCH  16  19
HETATM   19  C   UNL     1      43.892 -11.182   6.117  1.00  0.00    -0.046 A 
HETATM   20  C   UNL     1      43.340 -10.830   7.361  1.00  0.00     0.027 A 
HETATM   21  C   UNL     1      44.174 -10.635   8.454  1.00  0.00     0.116 A 
HETATM   22  N   UNL     1      45.514 -10.761   8.407  1.00  0.00    -0.273 NA
HETATM   23  C   UNL     1      46.039 -11.089   7.211  1.00  0.00     0.116 A 
HETATM   24  C   UNL     1      45.287 -11.303   6.061  1.00  0.00     0.027 A 
ENDBRANCH  16  19
ENDBRANCH  15  16
ENDBRANCH   2  15
TORSDOF 6
ENDMDL
MODEL 5
REMARK VINA RESULT:      -7.5      5.284      7.957
REMARK  6 active torsions:
REMARK  status: ('A' for Active; 'I' for Inactive)
REMARK    1  A    between atoms: C_2  and  C_3 
REMARK    2  A    between atoms: C_5  and  C_6 
REMARK       I    between atoms: C_6  and  N_7 
REMARK    3  A    between atoms: N_7  and  C_8 
REMARK    4  A    between atoms: C_8  and  C_9 
REMARK    5  A    between atoms: C_9  and  C_10 
REMARK    6  A    between atoms: C_19  and  O_20 
ROOT
HETATM    1  C   UNL     1      43.416 -12.104   6.586  1.00  0.00     0.254 C 
HETATM    2  N   UNL     1      43.867 -13.365   6.268  1.00  0.00    -0.356 N 
HETATM    3  O   UNL     1      42.303 -11.703   6.259  1.00  0.00    -0.268 OA
HETATM    4  H   UNL     1      44.777 -13.633   6.634  1.00  0.00     0.162 HD
ENDROOT
BRANCH   1   5
HETATM    5  C   UNL     1      44.344 -11.223   7.365  1.00  0.00     0.065 A 
HETATM    6  C   UNL     1      43.925 -10.843   8.653  1.00  0.00     0.027 A 
HETATM    7  C   UNL     1      44.718 -10.021   9.467  1.00  0.00    -0.057 A 
HETATM    8  C   UNL     1      45.955  -9.581   8.984  1.00  0.00     0.010 A 
HETATM    9  C   UNL     1      46.387  -9.948   7.708  1.00  0.00     0.038 A 
HETATM   10  C   UNL     1      45.587 -10.764   6.902  1.00  0.00     0.081 A 
BRANCH   7  11
HETATM   11  C   UNL     1      44.256  -9.648  10.853  1.00  0.00     0.034 C 
HETATM   12  C   UNL     1      43.678 -10.844  11.596  1.00  0.00     0.010 C 
ENDBRANCH   7  11
BRANCH  10  13
HETATM   13  O   UNL     1      46.052 -11.107   5.657  1.00  0.00    -0.360 OA
HETATM   14  H   UNL     1      45.718 -10.458   5.012  1.00  0.00     0.217 HD
ENDBRANCH  10  13
ENDBRANCH   1   5
BRANCH   2  15
HETATM   15  C   UNL     1      43.018 -14.330   5.597  1.00  0.00     0.136 C 
BRANCH  15  16
HETATM   16  C   UNL     1      43.282 -15.816   5.978  1.00  0.00    -0.004 C 
HETATM   17  C   UNL     1      44.696 -15.977   6.583  1.00  0.00     0.021 C 
HETATM   18  C   UNL     1      42.272 -16.248   7.069  1.00  0.00     0.021 C 
BRANCH  16  19
HETATM   19  C   UNL     1      43.172 -16.670   4.695  1.00  0.00    -0.046 A 
HETATM   20  C   UNL     1      42.213 -16.361   3.715  1.00  0.00     0.027 A 
HETATM   21  C   UNL     1      42.119 -17.145   2.572  1.00  0.00     0.116 A 
HETATM   22  N   UNL     1      42.904 -18.212   2.328  1.00  0.00    -0.273 NA
HETATM   23  C   UNL     1      43.816 -18.509   3.275  1.00  0.00     0.116 A 
HETATM   24  C   UNL     1      43.983 -17.786   4.450  1.00  0.00     0.027 A 
ENDBRANCH  16  19
ENDBRANCH  15  16
ENDBRANCH   2  15
TORSDOF 6
ENDMDL
MODEL 6
REMARK VINA RESULT:      -7.4      2.261      6.926
REMARK  6 active torsions:
REMARK  status: ('A' for Active; 'I' for Inactive)
REMARK    1  A    between atoms: C_2  and  C_3 
REMARK    2  A    between atoms: C_5  and  C_6 
REMARK       I    between atoms: C_6  and  N_7 
REMARK    3  A    between atoms: N_7  and  C_8 
REMARK    4  A    between atoms: C_8  and  C_9 
REMARK    5  A    between atoms: C_9  and  C_10 
REMARK    6  A    between atoms: C_19  and  O_20 
ROOT
HETATM    1  C   UNL     1      40.507 -15.489   2.308  1.00  0.00     0.254 C 
HETATM    2  N   UNL     1      40.439 -14.123   2.463  1.00  0.00    -0.356 N 
HETATM    3  O   UNL     1      39.790 -16.097   1.518  1.00  0.00    -0.268 OA
HETATM    4  H   UNL     1      41.114 -13.698   3.093  1.00  0.00     0.162 HD
ENDROOT
BRANCH   1   5
HETATM    5  C   UNL     1      41.508 -16.223   3.148  1.00  0.00     0.065 A 
HETATM    6  C   UNL     1      42.271 -17.213   2.503  1.00  0.00     0.027 A 
HETATM    7  C   UNL     1      43.236 -17.959   3.195  1.00  0.00    -0.057 A 
HETATM    8  C   UNL     1      43.445 -17.700   4.553  1.00  0.00     0.010 A 
HETATM    9  C   UNL     1      42.697 -16.722   5.210  1.00  0.00     0.038 A 
HETATM   10  C   UNL     1      41.733 -15.987   4.512  1.00  0.00     0.081 A 
BRANCH   7  11
HETATM   11  C   UNL     1      44.057 -18.998   2.474  1.00  0.00     0.034 C 
HETATM   12  C   UNL     1      43.216 -20.198   2.064  1.00  0.00     0.010 C 
ENDBRANCH   7  11
BRANCH  10  13
HETATM   13  O   UNL     1      41.024 -15.028   5.193  1.00  0.00    -0.360 OA
HETATM   14  H   UNL     1      40.271 -15.457   5.637  1.00  0.00     0.217 HD
ENDBRANCH  10  13
ENDBRANCH   1   5
BRANCH   2  15
HETATM   15  C   UNL     1      39.572 -13.306   1.637  1.00  0.00     0.136 C 
BRANCH  15  16
HETATM   16  C   UNL     1      40.288 -12.164   0.858  1.00  0.00    -0.004 C 
HETATM   17  C   UNL     1      39.460 -10.859   0.929  1.00  0.00     0.021 C 
HETATM   18  C   UNL     1      41.653 -11.870   1.529  1.00  0.00     0.021 C 
BRANCH  16  19
HETATM   19  C   UNL     1      40.432 -12.602  -0.616  1.00  0.00    -0.046 A 
HETATM   20  C   UNL     1      41.097 -11.778  -1.540  1.00  0.00     0.027 A 
HETATM   21  C   UNL     1      41.208 -12.180  -2.865  1.00  0.00     0.116 A 
HETATM   22  N   UNL     1      40.710 -13.337  -3.342  1.00  0.00    -0.273 NA
HETATM   23  C   UNL     1      40.065 -14.118  -2.454  1.00  0.00     0.116 A 
HETATM   24  C   UNL     1      39.902 -13.800  -1.111  1.00  0.00     0.027 A 
ENDBRANCH  16  19
ENDBRANCH  15  16
ENDBRANCH   2  15
TORSDOF 6
ENDMDL
MODEL 7
REMARK VINA RESULT:      -7.2      4.189      7.630
REMARK  6 active torsions:
REMARK  status: ('A' for Active; 'I' for Inactive)
REMARK    1  A    between atoms: C_2  and  C_3 
REMARK    2  A    between atoms: C_5  and  C_6 
REMARK       I    between atoms: C_6  and  N_7 
REMARK    3  A    between atoms: N_7  and  C_8 
REMARK    4  A    between atoms: C_8  and  C_9 
REMARK    5  A    between atoms: C_9  and  C_10 
REMARK    6  A    between atoms: C_19  and  O_20 
ROOT
HETATM    1  C   UNL     1      42.525 -15.088   5.065  1.00  0.00     0.254 C 
HETATM    2  N   UNL     1      42.627 -13.843   4.489  1.00  0.00    -0.356 N 
HETATM    3  O   UNL     1      42.152 -15.248   6.224  1.00  0.00    -0.268 OA
HETATM    4  H   UNL     1      42.884 -13.811   3.506  1.00  0.00     0.162 HD
ENDROOT
BRANCH   1   5
HETATM    5  C   UNL     1      42.885 -16.267   4.213  1.00  0.00     0.065 A 
HETATM    6  C   UNL     1      43.432 -17.383   4.873  1.00  0.00     0.027 A 
HETATM    7  C   UNL     1      43.803 -18.538   4.171  1.00  0.00    -0.057 A 
HETATM    8  C   UNL     1      43.612 -18.579   2.786  1.00  0.00     0.010 A 
HETATM    9  C   UNL     1      43.071 -17.482   2.114  1.00  0.00     0.038 A 
HETATM   10  C   UNL     1      42.709 -16.332   2.823  1.00  0.00     0.081 A 
BRANCH   7  11
HETATM   11  C   UNL     1      44.364 -19.729   4.905  1.00  0.00     0.034 C 
HETATM   12  C   UNL     1      43.951 -21.041   4.255  1.00  0.00     0.010 C 
ENDBRANCH   7  11
BRANCH  10  13
HETATM   13  O   UNL     1      42.174 -15.277   2.125  1.00  0.00    -0.360 OA
HETATM   14  H   UNL     1      42.801 -14.533   2.159  1.00  0.00     0.217 HD
ENDBRANCH  10  13
ENDBRANCH   1   5
BRANCH   2  15
HETATM   15  C   UNL     1      42.218 -12.643   5.193  1.00  0.00     0.136 C 
BRANCH  15  16
HETATM   16  C   UNL     1      43.118 -11.397   4.948  1.00  0.00    -0.004 C 
HETATM   17  C   UNL     1      44.016 -11.614   3.707  1.00  0.00     0.021 C 
HETATM   18  C   UNL     1      42.219 -10.173   4.645  1.00  0.00     0.021 C 
BRANCH  16  19
HETATM   19  C   UNL     1      44.006 -11.189   6.195  1.00  0.00    -0.046 A 
HETATM   20  C   UNL     1      43.423 -10.932   7.447  1.00  0.00     0.027 A 
HETATM   21  C   UNL     1      44.235 -10.735   8.557  1.00  0.00     0.116 A 
HETATM   22  N   UNL     1      45.580 -10.775   8.519  1.00  0.00    -0.273 NA
HETATM   23  C   UNL     1      46.134 -11.012   7.314  1.00  0.00     0.116 A 
HETATM   24  C   UNL     1      45.406 -11.219   6.148  1.00  0.00     0.027 A 
ENDBRANCH  16  19
ENDBRANCH  15  16
ENDBRANCH   2  15
TORSDOF 6
ENDMDL
MODEL 8
REMARK VINA RESULT:      -7.2      3.797      6.082
REMARK  6 active torsions:
REMARK  status: ('A' for Active; 'I' for Inactive)
REMARK    1  A    between atoms: C_2  and  C_3 
REMARK    2  A    between atoms: C_5  and  C_6 
REMARK       I    between atoms: C_6  and  N_7 
REMARK    3  A    between atoms: N_7  and  C_8 
REMARK    4  A    between atoms: C_8  and  C_9 
REMARK    5  A    between atoms: C_9  and  C_10 
REMARK    6  A    between atoms: C_19  and  O_20 
ROOT
HETATM    1  C   UNL     1      43.211 -14.292   6.215  1.00  0.00     0.254 C 
HETATM    2  N   UNL     1      43.237 -14.786   4.931  1.00  0.00    -0.356 N 
HETATM    3  O   UNL     1      43.367 -15.010   7.199  1.00  0.00    -0.268 OA
HETATM    4  H   UNL     1      43.161 -14.109   4.177  1.00  0.00     0.162 HD
ENDROOT
BRANCH   1   5
HETATM    5  C   UNL     1      42.988 -12.819   6.377  1.00  0.00     0.065 A 
HETATM    6  C   UNL     1      43.884 -12.130   7.215  1.00  0.00     0.027 A 
HETATM    7  C   UNL     1      43.766 -10.750   7.434  1.00  0.00    -0.057 A 
HETATM    8  C   UNL     1      42.739 -10.049   6.795  1.00  0.00     0.010 A 
HETATM    9  C   UNL     1      41.840 -10.715   5.960  1.00  0.00     0.038 A 
HETATM   10  C   UNL     1      41.963 -12.093   5.751  1.00  0.00     0.081 A 
BRANCH   7  11
HETATM   11  C   UNL     1      44.754 -10.032   8.317  1.00  0.00     0.034 C 
HETATM   12  C   UNL     1      46.174 -10.140   7.781  1.00  0.00     0.010 C 
ENDBRANCH   7  11
BRANCH  10  13
HETATM   13  O   UNL     1      41.063 -12.709   4.917  1.00  0.00    -0.360 OA
HETATM   14  H   UNL     1      40.566 -12.023   4.437  1.00  0.00     0.217 HD
ENDBRANCH  10  13
ENDBRANCH   1   5
BRANCH   2  15
HETATM   15  C   UNL     1      43.535 -16.178   4.658  1.00  0.00     0.136 C 
BRANCH  15  16
HETATM   16  C   UNL     1      42.921 -16.737   3.341  1.00  0.00    -0.004 C 
HETATM   17  C   UNL     1      41.382 -16.573   3.350  1.00  0.00     0.021 C 
HETATM   18  C   UNL     1      43.455 -15.915   2.142  1.00  0.00     0.021 C 
BRANCH  16  19
HETATM   19  C   UNL     1      43.277 -18.236   3.240  1.00  0.00    -0.046 A 
HETATM   20  C   UNL     1      43.000 -18.955   2.065  1.00  0.00     0.027 A 
HETATM   21  C   UNL     1      43.315 -20.306   1.993  1.00  0.00     0.116 A 
HETATM   22  N   UNL     1      43.885 -20.997   2.999  1.00  0.00    -0.273 NA
HETATM   23  C   UNL     1      44.141 -20.305   4.126  1.00  0.00     0.116 A 
HETATM   24  C   UNL     1      43.860 -18.954   4.293  1.00  0.00     0.027 A 
ENDBRANCH  16  19
ENDBRANCH  15  16
ENDBRANCH   2  15
TORSDOF 6
ENDMDL
MODEL 9
REMARK VINA RESULT:      -6.9      5.153      8.142
REMARK  6 active torsions:
REMARK  status: ('A' for Active; 'I' for Inactive)
REMARK    1  A    between atoms: C_2  and  C_3 
REMARK    2  A    between atoms: C_5  and  C_6 
REMARK       I    between atoms: C_6  and  N_7 
REMARK    3  A    between atoms: N_7  and  C_8 
REMARK    4  A    between atoms: C_8  and  C_9 
REMARK    5  A    between atoms: C_9  and  C_10 
REMARK    6  A    between atoms: C_19  and  O_20 
ROOT
HETATM    1  C   UNL     1      43.429 -15.070   5.963  1.00  0.00     0.254 C 
HETATM    2  N   UNL     1      43.437 -13.696   5.895  1.00  0.00    -0.356 N 
HETATM    3  O   UNL     1      43.785 -15.681   6.967  1.00  0.00    -0.268 OA
HETATM    4  H   UNL     1      43.066 -13.276   5.047  1.00  0.00     0.162 HD
ENDROOT
BRANCH   1   5
HETATM    5  C   UNL     1      42.954 -15.812   4.750  1.00  0.00     0.065 A 
HETATM    6  C   UNL     1      43.693 -16.949   4.374  1.00  0.00     0.027 A 
HETATM    7  C   UNL     1      43.334 -17.715   3.256  1.00  0.00    -0.057 A 
HETATM    8  C   UNL     1      42.212 -17.342   2.510  1.00  0.00     0.010 A 
HETATM    9  C   UNL     1      41.467 -16.217   2.869  1.00  0.00     0.038 A 
HETATM   10  C   UNL     1      41.836 -15.455   3.983  1.00  0.00     0.081 A 
BRANCH   7  11
HETATM   11  C   UNL     1      44.128 -18.943   2.888  1.00  0.00     0.034 C 
HETATM   12  C   UNL     1      43.958 -20.055   3.913  1.00  0.00     0.010 C 
ENDBRANCH   7  11
BRANCH  10  13
HETATM   13  O   UNL     1      41.073 -14.360   4.306  1.00  0.00    -0.360 OA
HETATM   14  H   UNL     1      41.078 -13.746   3.551  1.00  0.00     0.217 HD
ENDBRANCH  10  13
ENDBRANCH   1   5
BRANCH   2  15
HETATM   15  C   UNL     1      43.791 -12.880   7.040  1.00  0.00     0.136 C 
BRANCH  15  16
HETATM   16  C   UNL     1      44.242 -11.429   6.700  1.00  0.00    -0.004 C 
HETATM   17  C   UNL     1      45.673 -11.432   6.114  1.00  0.00     0.021 C 
HETATM   18  C   UNL     1      43.309 -10.849   5.610  1.00  0.00     0.021 C 
BRANCH  16  19
HETATM   19  C   UNL     1      44.222 -10.600   8.003  1.00  0.00    -0.046 A 
HETATM   20  C   UNL     1      45.392 -10.447   8.767  1.00  0.00     0.027 A 
HETATM   21  C   UNL     1      45.356  -9.708   9.942  1.00  0.00     0.116 A 
HETATM   22  N   UNL     1      44.247  -9.110  10.418  1.00  0.00    -0.273 NA
HETATM   23  C   UNL     1      43.126  -9.268   9.687  1.00  0.00     0.116 A 
HETATM   24  C   UNL     1      43.064  -9.989   8.501  1.00  0.00     0.027 A 
ENDBRANCH  16  19
ENDBRANCH  15  16
ENDBRANCH   2  15
TORSDOF 6
ENDMDL
MODEL 10
REMARK VINA RESULT:      -6.8     14.093     16.911
REMARK  6 active torsions:
REMARK  status: ('A' for Active; 'I' for Inactive)
REMARK    1  A    between atoms: C_2  and  C_3 
REMARK    2  A    between atoms: C_5  and  C_6 
REMARK       I    between atoms: C_6  and  N_7 
REMARK    3  A    between atoms: N_7  and  C_8 
REMARK    4  A    between atoms: C_8  and  C_9 
REMARK    5  A    between atoms: C_9  and  C_10 
REMARK    6  A    between atoms: C_19  and  O_20 
ROOT
HETATM    1  C   UNL     1      48.265 -29.475  -0.671  1.00  0.00     0.254 C 
HETATM    2  N   UNL     1      46.979 -29.399  -1.156  1.00  0.00    -0.356 N 
HETATM    3  O   UNL     1      49.237 -29.621  -1.406  1.00  0.00    -0.268 OA
HETATM    4  H   UNL     1      46.243 -29.215  -0.479  1.00  0.00     0.162 HD
ENDROOT
BRANCH   1   5
HETATM    5  C   UNL     1      48.443 -29.365   0.813  1.00  0.00     0.065 A 
HETATM    6  C   UNL     1      49.536 -30.051   1.373  1.00  0.00     0.027 A 
HETATM    7  C   UNL     1      49.795 -30.014   2.750  1.00  0.00    -0.057 A 
HETATM    8  C   UNL     1      48.951 -29.268   3.578  1.00  0.00     0.010 A 
HETATM    9  C   UNL     1      47.860 -28.581   3.041  1.00  0.00     0.038 A 
HETATM   10  C   UNL     1      47.607 -28.629   1.666  1.00  0.00     0.081 A 
BRANCH   7  11
HETATM   11  C   UNL     1      50.988 -30.739   3.321  1.00  0.00     0.034 C 
HETATM   12  C   UNL     1      50.961 -30.762   4.842  1.00  0.00     0.010 C 
ENDBRANCH   7  11
BRANCH  10  13
HETATM   13  O   UNL     1      46.529 -27.933   1.177  1.00  0.00    -0.360 OA
HETATM   14  H   UNL     1      46.656 -26.988   1.372  1.00  0.00     0.217 HD
ENDBRANCH  10  13
ENDBRANCH   1   5
BRANCH   2  15
HETATM   15  C   UNL     1      46.702 -29.403  -2.579  1.00  0.00     0.136 C 
BRANCH  15  16
HETATM   16  C   UNL     1      45.215 -29.144  -2.960  1.00  0.00    -0.004 C 
HETATM   17  C   UNL     1      44.331 -29.099  -1.691  1.00  0.00     0.021 C 
HETATM   18  C   UNL     1      45.099 -27.757  -3.640  1.00  0.00     0.021 C 
BRANCH  16  19
HETATM   19  C   UNL     1      44.743 -30.296  -3.874  1.00  0.00    -0.046 A 
HETATM   20  C   UNL     1      44.352 -30.037  -5.199  1.00  0.00     0.027 A 
HETATM   21  C   UNL     1      43.919 -31.082  -6.006  1.00  0.00     0.116 A 
HETATM   22  N   UNL     1      43.844 -32.363  -5.598  1.00  0.00    -0.273 NA
HETATM   23  C   UNL     1      44.212 -32.604  -4.324  1.00  0.00     0.116 A 
HETATM   24  C   UNL     1      44.656 -31.626  -3.442  1.00  0.00     0.027 A 
ENDBRANCH  16  19
ENDBRANCH  15  16
ENDBRANCH   2  15
TORSDOF 6
ENDMDL
