MODEL 1
REMARK VINA RESULT:      -9.6      0.000      0.000
REMARK  8 active torsions:
REMARK  status: ('A' for Active; 'I' for Inactive)
REMARK    1  A    between atoms: N_2  and  C_4 
REMARK    2  A    between atoms: N_2  and  C_32 
REMARK    3  A    between atoms: C_4  and  C_5 
REMARK    4  A    between atoms: N_8  and  C_9 
REMARK    5  A    between atoms: C_12  and  N_13 
REMARK    6  A    between atoms: N_13  and  C_16 
REMARK    7  A    between atoms: C_16  and  C_17 
REMARK    8  A    between atoms: C_32  and  C_33 
ROOT
HETATM    1  C   UNL     1      40.008 -11.728   5.666  1.00  0.00     0.161 C 
HETATM    2  C   UNL     1      40.898 -12.920   5.987  1.00  0.00     0.179 C 
HETATM    3  C   UNL     1      41.477 -13.305   4.631  1.00  0.00     0.185 C 
HETATM    4  C   UNL     1      40.677 -14.542   4.240  1.00  0.00     0.241 C 
HETATM    5  C   UNL     1      40.403 -15.162   5.598  1.00  0.00     0.204 C 
HETATM    6  O   UNL     1      40.152 -14.048   6.474  1.00  0.00    -0.379 OA
HETATM    7  O   UNL     1      41.241 -12.237   3.710  1.00  0.00    -0.379 OA
HETATM    8  C   UNL     1      40.738 -11.117   4.476  1.00  0.00     0.198 C 
ENDROOT
BRANCH   1   9
HETATM    9  N   UNL     1      39.786 -10.856   6.790  1.00  0.00    -0.274 N 
HETATM   10  N   UNL     1      38.740 -11.020   7.613  1.00  0.00     0.005 NA
HETATM   11  N   UNL     1      38.790 -10.070   8.535  1.00  0.00    -0.161 NA
HETATM   12  C   UNL     1      39.887  -9.288   8.282  1.00  0.00     0.095 A 
HETATM   13  C   UNL     1      40.541  -9.782   7.175  1.00  0.00     0.139 A 
BRANCH  12  14
HETATM   14  C   UNL     1      40.205  -8.136   9.166  1.00  0.00     0.296 C 
BRANCH  14  15
HETATM   15  N   UNL     1      40.882  -8.521  10.463  1.00  0.00    -0.066 N 
HETATM   16  C   UNL     1      39.913  -8.534  11.610  1.00  0.00     0.270 C 
HETATM   17  H   UNL     1      41.214  -9.486  10.329  1.00  0.00     0.280 HD
BRANCH  15  18
HETATM   18  C   UNL     1      42.117  -7.688  10.736  1.00  0.00     0.273 C 
BRANCH  18  19
HETATM   19  C   UNL     1      43.392  -8.286  10.209  1.00  0.00    -0.033 A 
HETATM   20  C   UNL     1      43.932  -7.862   8.985  1.00  0.00     0.009 A 
HETATM   21  C   UNL     1      45.104  -8.441   8.494  1.00  0.00     0.001 A 
HETATM   22  C   UNL     1      45.749  -9.439   9.221  1.00  0.00     0.000 A 
HETATM   23  C   UNL     1      45.229  -9.859  10.443  1.00  0.00     0.001 A 
HETATM   24  C   UNL     1      44.055  -9.287  10.935  1.00  0.00     0.009 A 
ENDBRANCH  18  19
ENDBRANCH  15  18
ENDBRANCH  14  15
ENDBRANCH  12  14
ENDBRANCH   1   9
BRANCH   4  25
HETATM   25  N   UNL     1      41.430 -15.415   3.300  1.00  0.00    -0.062 N 
HETATM   26  H   UNL     1      41.163 -16.400   3.461  1.00  0.00     0.278 HD
HETATM   27  H   UNL     1      41.190 -15.239   2.314  1.00  0.00     0.278 HD
BRANCH  25  28
HETATM   28  C   UNL     1      42.918 -15.352   3.429  1.00  0.00     0.273 C 
BRANCH  28  29
HETATM   29  C   UNL     1      43.408 -16.570   4.113  1.00  0.00    -0.005 A 
HETATM   30  C   UNL     1      43.446 -17.892   3.562  1.00  0.00    -0.000 A 
HETATM   31  C   UNL     1      43.960 -18.735   4.546  1.00  0.00     0.043 A 
HETATM   32  C   UNL     1      43.092 -18.451   2.315  1.00  0.00     0.014 A 
HETATM   33  C   UNL     1      44.135 -20.109   4.351  1.00  0.00     0.030 A 
HETATM   34  N   UNL     1      44.244 -17.961   5.646  1.00  0.00    -0.365 N 
HETATM   35  C   UNL     1      43.772 -20.640   3.110  1.00  0.00     0.002 A 
HETATM   36  C   UNL     1      43.259 -19.824   2.105  1.00  0.00     0.001 A 
HETATM   37  H   UNL     1      44.654 -18.314   6.503  1.00  0.00     0.165 HD
HETATM   38  C   UNL     1      43.897 -16.655   5.403  1.00  0.00     0.098 A 
ENDBRANCH  28  29
ENDBRANCH  25  28
ENDBRANCH   4  25
TORSDOF 8
ENDMDL
MODEL 2
REMARK VINA RESULT:      -9.3      2.517     10.392
REMARK  8 active torsions:
REMARK  status: ('A' for Active; 'I' for Inactive)
REMARK    1  A    between atoms: N_2  and  C_4 
REMARK    2  A    between atoms: N_2  and  C_32 
REMARK    3  A    between atoms: C_4  and  C_5 
REMARK    4  A    between atoms: N_8  and  C_9 
REMARK    5  A    between atoms: C_12  and  N_13 
REMARK    6  A    between atoms: N_13  and  C_16 
REMARK    7  A    between atoms: C_16  and  C_17 
REMARK    8  A    between atoms: C_32  and  C_33 
ROOT
HETATM    1  C   UNL     1      43.121 -10.808   5.466  1.00  0.00     0.161 C 
HETATM    2  C   UNL     1      43.261 -11.200   6.929  1.00  0.00     0.179 C 
HETATM    3  C   UNL     1      42.860  -9.934   7.676  1.00  0.00     0.185 C 
HETATM    4  C   UNL     1      44.192  -9.356   8.140  1.00  0.00     0.241 C 
HETATM    5  C   UNL     1      45.005 -10.620   8.359  1.00  0.00     0.204 C 
HETATM    6  O   UNL     1      44.619 -11.503   7.290  1.00  0.00    -0.379 OA
HETATM    7  O   UNL     1      42.213  -9.046   6.761  1.00  0.00    -0.379 OA
HETATM    8  C   UNL     1      41.997  -9.781   5.534  1.00  0.00     0.198 C 
ENDROOT
BRANCH   1   9
HETATM    9  N   UNL     1      42.906 -11.928   4.587  1.00  0.00    -0.274 N 
HETATM   10  N   UNL     1      43.692 -12.148   3.522  1.00  0.00     0.005 NA
HETATM   11  N   UNL     1      43.247 -13.231   2.901  1.00  0.00    -0.161 NA
HETATM   12  C   UNL     1      42.155 -13.696   3.586  1.00  0.00     0.095 A 
HETATM   13  C   UNL     1      41.928 -12.880   4.672  1.00  0.00     0.139 A 
BRANCH  12  14
HETATM   14  C   UNL     1      41.444 -14.916   3.120  1.00  0.00     0.296 C 
BRANCH  14  15
HETATM   15  N   UNL     1      41.827 -16.176   3.865  1.00  0.00    -0.066 N 
HETATM   16  C   UNL     1      41.509 -16.072   5.329  1.00  0.00     0.270 C 
HETATM   17  H   UNL     1      41.237 -16.923   3.473  1.00  0.00     0.280 HD
BRANCH  15  18
HETATM   18  C   UNL     1      43.259 -16.590   3.595  1.00  0.00     0.273 C 
BRANCH  18  19
HETATM   19  C   UNL     1      43.459 -18.076   3.483  1.00  0.00    -0.033 A 
HETATM   20  C   UNL     1      43.979 -18.814   4.558  1.00  0.00     0.009 A 
HETATM   21  C   UNL     1      44.183 -20.190   4.434  1.00  0.00     0.001 A 
HETATM   22  C   UNL     1      43.862 -20.841   3.244  1.00  0.00     0.000 A 
HETATM   23  C   UNL     1      43.334 -20.120   2.176  1.00  0.00     0.001 A 
HETATM   24  C   UNL     1      43.133 -18.745   2.292  1.00  0.00     0.009 A 
ENDBRANCH  18  19
ENDBRANCH  15  18
ENDBRANCH  14  15
ENDBRANCH  12  14
ENDBRANCH   1   9
BRANCH   4  25
HETATM   25  N   UNL     1      44.035  -8.502   9.347  1.00  0.00    -0.062 N 
HETATM   26  H   UNL     1      44.491  -7.590   9.182  1.00  0.00     0.278 HD
HETATM   27  H   UNL     1      43.052  -8.268   9.544  1.00  0.00     0.278 HD
BRANCH  25  28
HETATM   28  C   UNL     1      44.636  -9.055  10.599  1.00  0.00     0.273 C 
BRANCH  28  29
HETATM   29  C   UNL     1      43.559  -9.406  11.552  1.00  0.00    -0.005 A 
HETATM   30  C   UNL     1      43.171  -8.649  12.705  1.00  0.00    -0.000 A 
HETATM   31  C   UNL     1      42.134  -9.345  13.326  1.00  0.00     0.043 A 
HETATM   32  C   UNL     1      43.604  -7.435  13.279  1.00  0.00     0.014 A 
HETATM   33  C   UNL     1      41.511  -8.892  14.494  1.00  0.00     0.030 A 
HETATM   34  N   UNL     1      41.884 -10.470  12.575  1.00  0.00    -0.365 N 
HETATM   35  C   UNL     1      41.961  -7.690  15.045  1.00  0.00     0.002 A 
HETATM   36  C   UNL     1      42.991  -6.970  14.448  1.00  0.00     0.001 A 
HETATM   37  H   UNL     1      41.159 -11.147  12.785  1.00  0.00     0.165 HD
HETATM   38  C   UNL     1      42.751 -10.527  11.513  1.00  0.00     0.098 A 
ENDBRANCH  28  29
ENDBRANCH  25  28
ENDBRANCH   4  25
TORSDOF 8
ENDMDL
MODEL 3
REMARK VINA RESULT:      -8.6      2.680     10.307
REMARK  8 active torsions:
REMARK  status: ('A' for Active; 'I' for Inactive)
REMARK    1  A    between atoms: N_2  and  C_4 
REMARK    2  A    between atoms: N_2  and  C_32 
REMARK    3  A    between atoms: C_4  and  C_5 
REMARK    4  A    between atoms: N_8  and  C_9 
REMARK    5  A    between atoms: C_12  and  N_13 
REMARK    6  A    between atoms: N_13  and  C_16 
REMARK    7  A    between atoms: C_16  and  C_17 
REMARK    8  A    between atoms: C_32  and  C_33 
ROOT
HETATM    1  C   UNL     1      42.773 -12.029   6.175  1.00  0.00     0.161 C 
HETATM    2  C   UNL     1      43.131 -10.561   6.351  1.00  0.00     0.179 C 
HETATM    3  C   UNL     1      43.976 -10.552   7.619  1.00  0.00     0.185 C 
HETATM    4  C   UNL     1      43.022 -10.013   8.680  1.00  0.00     0.241 C 
HETATM    5  C   UNL     1      42.162  -9.070   7.856  1.00  0.00     0.204 C 
HETATM    6  O   UNL     1      41.977  -9.739   6.595  1.00  0.00    -0.379 OA
HETATM    7  O   UNL     1      44.364 -11.893   7.923  1.00  0.00    -0.379 OA
HETATM    8  C   UNL     1      43.988 -12.713   6.791  1.00  0.00     0.198 C 
ENDROOT
BRANCH   1   9
HETATM    9  N   UNL     1      42.465 -12.388   4.815  1.00  0.00    -0.274 N 
HETATM   10  N   UNL     1      43.428 -12.543   3.893  1.00  0.00     0.005 NA
HETATM   11  N   UNL     1      42.848 -12.855   2.743  1.00  0.00    -0.161 NA
HETATM   12  C   UNL     1      41.493 -12.892   2.946  1.00  0.00     0.095 A 
HETATM   13  C   UNL     1      41.231 -12.604   4.267  1.00  0.00     0.139 A 
BRANCH  12  14
HETATM   14  C   UNL     1      40.577 -13.226   1.823  1.00  0.00     0.296 C 
BRANCH  14  15
HETATM   15  N   UNL     1      40.718 -14.644   1.313  1.00  0.00    -0.066 N 
HETATM   16  C   UNL     1      40.010 -14.832   0.002  1.00  0.00     0.270 C 
HETATM   17  H   UNL     1      41.724 -14.780   1.142  1.00  0.00     0.280 HD
BRANCH  15  18
HETATM   18  C   UNL     1      40.328 -15.671   2.354  1.00  0.00     0.273 C 
BRANCH  18  19
HETATM   19  C   UNL     1      41.493 -16.392   2.975  1.00  0.00    -0.033 A 
HETATM   20  C   UNL     1      41.724 -16.324   4.358  1.00  0.00     0.009 A 
HETATM   21  C   UNL     1      42.823 -16.977   4.920  1.00  0.00     0.001 A 
HETATM   22  C   UNL     1      43.691 -17.708   4.112  1.00  0.00     0.000 A 
HETATM   23  C   UNL     1      43.464 -17.793   2.741  1.00  0.00     0.001 A 
HETATM   24  C   UNL     1      42.371 -17.137   2.173  1.00  0.00     0.009 A 
ENDBRANCH  18  19
ENDBRANCH  15  18
ENDBRANCH  14  15
ENDBRANCH  12  14
ENDBRANCH   1   9
BRANCH   4  25
HETATM   25  N   UNL     1      43.751  -9.365   9.803  1.00  0.00    -0.062 N 
HETATM   26  H   UNL     1      44.762  -9.353   9.593  1.00  0.00     0.278 HD
HETATM   27  H   UNL     1      43.499  -8.373   9.922  1.00  0.00     0.278 HD
BRANCH  25  28
HETATM   28  C   UNL     1      43.602 -10.039  11.129  1.00  0.00     0.273 C 
BRANCH  28  29
HETATM   29  C   UNL     1      42.410  -9.504  11.825  1.00  0.00    -0.005 A 
HETATM   30  C   UNL     1      42.408  -8.507  12.854  1.00  0.00    -0.000 A 
HETATM   31  C   UNL     1      41.082  -8.313  13.239  1.00  0.00     0.043 A 
HETATM   32  C   UNL     1      43.412  -7.747  13.492  1.00  0.00     0.014 A 
HETATM   33  C   UNL     1      40.707  -7.404  14.234  1.00  0.00     0.030 A 
HETATM   34  N   UNL     1      40.302  -9.142  12.467  1.00  0.00    -0.365 N 
HETATM   35  C   UNL     1      41.719  -6.668  14.855  1.00  0.00     0.002 A 
HETATM   36  C   UNL     1      43.053  -6.834  14.490  1.00  0.00     0.001 A 
HETATM   37  H   UNL     1      39.291  -9.188  12.521  1.00  0.00     0.165 HD
HETATM   38  C   UNL     1      41.095  -9.879  11.623  1.00  0.00     0.098 A 
ENDBRANCH  28  29
ENDBRANCH  25  28
ENDBRANCH   4  25
TORSDOF 8
ENDMDL
MODEL 4
REMARK VINA RESULT:      -8.5      1.599      2.377
REMARK  8 active torsions:
REMARK  status: ('A' for Active; 'I' for Inactive)
REMARK    1  A    between atoms: N_2  and  C_4 
REMARK    2  A    between atoms: N_2  and  C_32 
REMARK    3  A    between atoms: C_4  and  C_5 
REMARK    4  A    between atoms: N_8  and  C_9 
REMARK    5  A    between atoms: C_12  and  N_13 
REMARK    6  A    between atoms: N_13  and  C_16 
REMARK    7  A    between atoms: C_16  and  C_17 
REMARK    8  A    between atoms: C_32  and  C_33 
ROOT
HETATM    1  C   UNL     1      39.743  -9.549   6.530  1.00  0.00     0.161 C 
HETATM    2  C   UNL     1      40.373 -10.932   6.602  1.00  0.00     0.179 C 
HETATM    3  C   UNL     1      41.118 -11.052   5.279  1.00  0.00     0.185 C 
HETATM    4  C   UNL     1      40.224 -11.963   4.446  1.00  0.00     0.241 C 
HETATM    5  C   UNL     1      39.623 -12.853   5.520  1.00  0.00     0.204 C 
HETATM    6  O   UNL     1      39.391 -11.981   6.641  1.00  0.00    -0.379 OA
HETATM    7  O   UNL     1      41.213  -9.756   4.685  1.00  0.00    -0.379 OA
HETATM    8  C   UNL     1      40.756  -8.800   5.671  1.00  0.00     0.198 C 
ENDROOT
BRANCH   1   9
HETATM    9  N   UNL     1      39.459  -8.976   7.820  1.00  0.00    -0.274 N 
HETATM   10  N   UNL     1      38.530  -8.022   7.977  1.00  0.00     0.005 NA
HETATM   11  N   UNL     1      38.502  -7.684   9.258  1.00  0.00    -0.161 NA
HETATM   12  C   UNL     1      39.437  -8.437   9.918  1.00  0.00     0.095 A 
HETATM   13  C   UNL     1      40.054  -9.275   9.015  1.00  0.00     0.139 A 
BRANCH  12  14
HETATM   14  C   UNL     1      39.628  -8.277  11.384  1.00  0.00     0.296 C 
BRANCH  14  15
HETATM   15  N   UNL     1      40.866  -8.962  11.923  1.00  0.00    -0.066 N 
HETATM   16  C   UNL     1      40.593  -9.646  13.232  1.00  0.00     0.270 C 
HETATM   17  H   UNL     1      41.103  -9.691  11.237  1.00  0.00     0.280 HD
BRANCH  15  18
HETATM   18  C   UNL     1      42.060  -8.033  11.974  1.00  0.00     0.273 C 
BRANCH  18  19
HETATM   19  C   UNL     1      43.150  -8.377  10.996  1.00  0.00    -0.033 A 
HETATM   20  C   UNL     1      44.060  -9.411  11.270  1.00  0.00     0.009 A 
HETATM   21  C   UNL     1      45.082  -9.705  10.366  1.00  0.00     0.001 A 
HETATM   22  C   UNL     1      45.200  -8.980   9.182  1.00  0.00     0.000 A 
HETATM   23  C   UNL     1      44.296  -7.961   8.895  1.00  0.00     0.001 A 
HETATM   24  C   UNL     1      43.276  -7.658   9.797  1.00  0.00     0.009 A 
ENDBRANCH  18  19
ENDBRANCH  15  18
ENDBRANCH  14  15
ENDBRANCH  12  14
ENDBRANCH   1   9
BRANCH   4  25
HETATM   25  N   UNL     1      40.992 -12.688   3.399  1.00  0.00    -0.062 N 
HETATM   26  H   UNL     1      40.673 -13.669   3.359  1.00  0.00     0.278 HD
HETATM   27  H   UNL     1      40.819 -12.320   2.452  1.00  0.00     0.278 HD
BRANCH  25  28
HETATM   28  C   UNL     1      42.471 -12.732   3.611  1.00  0.00     0.273 C 
BRANCH  28  29
HETATM   29  C   UNL     1      42.845 -14.025   4.226  1.00  0.00    -0.005 A 
HETATM   30  C   UNL     1      43.025 -15.268   3.537  1.00  0.00    -0.000 A 
HETATM   31  C   UNL     1      43.354 -16.228   4.494  1.00  0.00     0.043 A 
HETATM   32  C   UNL     1      42.941 -15.667   2.185  1.00  0.00     0.014 A 
HETATM   33  C   UNL     1      43.599 -17.567   4.171  1.00  0.00     0.030 A 
HETATM   34  N   UNL     1      43.394 -15.596   5.714  1.00  0.00    -0.365 N 
HETATM   35  C   UNL     1      43.503 -17.938   2.827  1.00  0.00     0.002 A 
HETATM   36  C   UNL     1      43.180 -17.004   1.847  1.00  0.00     0.001 A 
HETATM   37  H   UNL     1      43.633 -16.054   6.586  1.00  0.00     0.165 HD
HETATM   38  C   UNL     1      43.069 -14.271   5.568  1.00  0.00     0.098 A 
ENDBRANCH  28  29
ENDBRANCH  25  28
ENDBRANCH   4  25
TORSDOF 8
ENDMDL
MODEL 5
REMARK VINA RESULT:      -8.5      2.419     10.489
REMARK  8 active torsions:
REMARK  status: ('A' for Active; 'I' for Inactive)
REMARK    1  A    between atoms: N_2  and  C_4 
REMARK    2  A    between atoms: N_2  and  C_32 
REMARK    3  A    between atoms: C_4  and  C_5 
REMARK    4  A    between atoms: N_8  and  C_9 
REMARK    5  A    between atoms: C_12  and  N_13 
REMARK    6  A    between atoms: N_13  and  C_16 
REMARK    7  A    between atoms: C_16  and  C_17 
REMARK    8  A    between atoms: C_32  and  C_33 
ROOT
HETATM    1  C   UNL     1      42.618 -11.262   5.782  1.00  0.00     0.161 C 
HETATM    2  C   UNL     1      43.468 -11.768   6.937  1.00  0.00     0.179 C 
HETATM    3  C   UNL     1      43.360 -10.655   7.972  1.00  0.00     0.185 C 
HETATM    4  C   UNL     1      44.697  -9.931   7.858  1.00  0.00     0.241 C 
HETATM    5  C   UNL     1      45.623 -11.074   7.481  1.00  0.00     0.204 C 
HETATM    6  O   UNL     1      44.855 -11.897   6.584  1.00  0.00    -0.379 OA
HETATM    7  O   UNL     1      42.283  -9.789   7.605  1.00  0.00    -0.379 OA
HETATM    8  C   UNL     1      41.576 -10.427   6.516  1.00  0.00     0.198 C 
ENDROOT
BRANCH   1   9
HETATM    9  N   UNL     1      42.110 -12.311   4.936  1.00  0.00    -0.274 N 
HETATM   10  N   UNL     1      41.006 -12.142   4.192  1.00  0.00     0.005 NA
HETATM   11  N   UNL     1      40.777 -13.271   3.537  1.00  0.00    -0.161 NA
HETATM   12  C   UNL     1      41.753 -14.169   3.882  1.00  0.00     0.095 A 
HETATM   13  C   UNL     1      42.620 -13.569   4.770  1.00  0.00     0.139 A 
BRANCH  12  14
HETATM   14  C   UNL     1      41.758 -15.534   3.292  1.00  0.00     0.296 C 
BRANCH  14  15
HETATM   15  N   UNL     1      43.079 -15.934   2.672  1.00  0.00    -0.066 N 
HETATM   16  C   UNL     1      43.615 -14.859   1.770  1.00  0.00     0.270 C 
HETATM   17  H   UNL     1      43.737 -16.034   3.457  1.00  0.00     0.280 HD
BRANCH  15  18
HETATM   18  C   UNL     1      43.014 -17.293   2.006  1.00  0.00     0.273 C 
BRANCH  18  19
HETATM   19  C   UNL     1      43.427 -18.434   2.894  1.00  0.00    -0.033 A 
HETATM   20  C   UNL     1      43.368 -19.759   2.434  1.00  0.00     0.009 A 
HETATM   21  C   UNL     1      43.732 -20.812   3.275  1.00  0.00     0.001 A 
HETATM   22  C   UNL     1      44.164 -20.553   4.575  1.00  0.00     0.000 A 
HETATM   23  C   UNL     1      44.238 -19.242   5.036  1.00  0.00     0.001 A 
HETATM   24  C   UNL     1      43.871 -18.186   4.202  1.00  0.00     0.009 A 
ENDBRANCH  18  19
ENDBRANCH  15  18
ENDBRANCH  14  15
ENDBRANCH  12  14
ENDBRANCH   1   9
BRANCH   4  25
HETATM   25  N   UNL     1      45.058  -9.230   9.119  1.00  0.00    -0.062 N 
HETATM   26  H   UNL     1      46.041  -9.439   9.357  1.00  0.00     0.278 HD
HETATM   27  H   UNL     1      45.025  -8.205   9.028  1.00  0.00     0.278 HD
BRANCH  25  28
HETATM   28  C   UNL     1      44.243  -9.612  10.313  1.00  0.00     0.273 C 
BRANCH  28  29
HETATM   29  C   UNL     1      43.471  -8.439  10.781  1.00  0.00    -0.005 A 
HETATM   30  C   UNL     1      42.831  -8.301  12.055  1.00  0.00    -0.000 A 
HETATM   31  C   UNL     1      42.206  -7.055  12.072  1.00  0.00     0.043 A 
HETATM   32  C   UNL     1      42.727  -9.121  13.200  1.00  0.00     0.014 A 
HETATM   33  C   UNL     1      41.478  -6.587  13.171  1.00  0.00     0.030 A 
HETATM   34  N   UNL     1      42.467  -6.446  10.867  1.00  0.00    -0.365 N 
HETATM   35  C   UNL     1      41.385  -7.419  14.289  1.00  0.00     0.002 A 
HETATM   36  C   UNL     1      42.000  -8.668  14.306  1.00  0.00     0.001 A 
HETATM   37  H   UNL     1      42.152  -5.516  10.617  1.00  0.00     0.165 HD
HETATM   38  C   UNL     1      43.214  -7.280  10.072  1.00  0.00     0.098 A 
ENDBRANCH  28  29
ENDBRANCH  25  28
ENDBRANCH   4  25
TORSDOF 8
ENDMDL
MODEL 6
REMARK VINA RESULT:      -8.3      1.936      9.167
REMARK  8 active torsions:
REMARK  status: ('A' for Active; 'I' for Inactive)
REMARK    1  A    between atoms: N_2  and  C_4 
REMARK    2  A    between atoms: N_2  and  C_32 
REMARK    3  A    between atoms: C_4  and  C_5 
REMARK    4  A    between atoms: N_8  and  C_9 
REMARK    5  A    between atoms: C_12  and  N_13 
REMARK    6  A    between atoms: N_13  and  C_16 
REMARK    7  A    between atoms: C_16  and  C_17 
REMARK    8  A    between atoms: C_32  and  C_33 
ROOT
HETATM    1  C   UNL     1      40.464 -10.428   6.387  1.00  0.00     0.161 C 
HETATM    2  C   UNL     1      39.199 -10.026   7.129  1.00  0.00     0.179 C 
HETATM    3  C   UNL     1      39.626  -8.794   7.916  1.00  0.00     0.185 C 
HETATM    4  C   UNL     1      39.790  -9.317   9.339  1.00  0.00     0.241 C 
HETATM    5  C   UNL     1      38.733 -10.407   9.379  1.00  0.00     0.204 C 
HETATM    6  O   UNL     1      38.779 -11.021   8.078  1.00  0.00    -0.379 OA
HETATM    7  O   UNL     1      40.875  -8.328   7.401  1.00  0.00    -0.379 OA
HETATM    8  C   UNL     1      41.143  -9.077   6.192  1.00  0.00     0.198 C 
ENDROOT
BRANCH   1   9
HETATM    9  N   UNL     1      40.214 -11.190   5.191  1.00  0.00    -0.274 N 
HETATM   10  N   UNL     1      39.715 -10.619   4.084  1.00  0.00     0.005 NA
HETATM   11  N   UNL     1      39.581 -11.561   3.162  1.00  0.00    -0.161 NA
HETATM   12  C   UNL     1      39.996 -12.749   3.703  1.00  0.00     0.095 A 
HETATM   13  C   UNL     1      40.413 -12.529   4.998  1.00  0.00     0.139 A 
BRANCH  12  14
HETATM   14  C   UNL     1      39.965 -13.994   2.890  1.00  0.00     0.296 C 
BRANCH  14  15
HETATM   15  N   UNL     1      41.307 -14.682   2.762  1.00  0.00    -0.066 N 
HETATM   16  C   UNL     1      42.185 -13.997   1.755  1.00  0.00     0.270 C 
HETATM   17  H   UNL     1      41.759 -14.585   3.682  1.00  0.00     0.280 HD
BRANCH  15  18
HETATM   18  C   UNL     1      41.169 -16.170   2.518  1.00  0.00     0.273 C 
BRANCH  18  19
HETATM   19  C   UNL     1      42.297 -16.992   3.077  1.00  0.00    -0.033 A 
HETATM   20  C   UNL     1      42.856 -16.690   4.329  1.00  0.00     0.009 A 
HETATM   21  C   UNL     1      43.919 -17.446   4.827  1.00  0.00     0.001 A 
HETATM   22  C   UNL     1      44.426 -18.512   4.087  1.00  0.00     0.000 A 
HETATM   23  C   UNL     1      43.872 -18.829   2.849  1.00  0.00     0.001 A 
HETATM   24  C   UNL     1      42.813 -18.073   2.345  1.00  0.00     0.009 A 
ENDBRANCH  18  19
ENDBRANCH  15  18
ENDBRANCH  14  15
ENDBRANCH  12  14
ENDBRANCH   1   9
BRANCH   4  25
HETATM   25  N   UNL     1      39.612  -8.242  10.350  1.00  0.00    -0.062 N 
HETATM   26  H   UNL     1      39.060  -7.473   9.937  1.00  0.00     0.278 HD
HETATM   27  H   UNL     1      39.060  -8.548  11.164  1.00  0.00     0.278 HD
BRANCH  25  28
HETATM   28  C   UNL     1      40.878  -7.630  10.858  1.00  0.00     0.273 C 
BRANCH  28  29
HETATM   29  C   UNL     1      41.916  -8.677  10.988  1.00  0.00    -0.005 A 
HETATM   30  C   UNL     1      43.142  -8.749  10.250  1.00  0.00    -0.000 A 
HETATM   31  C   UNL     1      43.812  -9.897  10.671  1.00  0.00     0.043 A 
HETATM   32  C   UNL     1      43.747  -7.941   9.262  1.00  0.00     0.014 A 
HETATM   33  C   UNL     1      45.052 -10.283  10.152  1.00  0.00     0.030 A 
HETATM   34  N   UNL     1      43.039 -10.493  11.639  1.00  0.00    -0.365 N 
HETATM   35  C   UNL     1      45.628  -9.470   9.172  1.00  0.00     0.002 A 
HETATM   36  C   UNL     1      44.987  -8.315   8.733  1.00  0.00     0.001 A 
HETATM   37  H   UNL     1      43.300 -11.337  12.138  1.00  0.00     0.165 HD
HETATM   38  C   UNL     1      41.884  -9.777  11.825  1.00  0.00     0.098 A 
ENDBRANCH  28  29
ENDBRANCH  25  28
ENDBRANCH   4  25
TORSDOF 8
ENDMDL
MODEL 7
REMARK VINA RESULT:      -8.3      5.835      8.477
REMARK  8 active torsions:
REMARK  status: ('A' for Active; 'I' for Inactive)
REMARK    1  A    between atoms: N_2  and  C_4 
REMARK    2  A    between atoms: N_2  and  C_32 
REMARK    3  A    between atoms: C_4  and  C_5 
REMARK    4  A    between atoms: N_8  and  C_9 
REMARK    5  A    between atoms: C_12  and  N_13 
REMARK    6  A    between atoms: N_13  and  C_16 
REMARK    7  A    between atoms: C_16  and  C_17 
REMARK    8  A    between atoms: C_32  and  C_33 
ROOT
HETATM    1  C   UNL     1      40.996 -13.156   0.230  1.00  0.00     0.161 C 
HETATM    2  C   UNL     1      40.108 -13.987   1.143  1.00  0.00     0.179 C 
HETATM    3  C   UNL     1      40.775 -13.853   2.506  1.00  0.00     0.185 C 
HETATM    4  C   UNL     1      41.491 -15.187   2.686  1.00  0.00     0.241 C 
HETATM    5  C   UNL     1      40.560 -16.128   1.942  1.00  0.00     0.204 C 
HETATM    6  O   UNL     1      40.114 -15.382   0.795  1.00  0.00    -0.379 OA
HETATM    7  O   UNL     1      41.715 -12.777   2.454  1.00  0.00    -0.379 OA
HETATM    8  C   UNL     1      41.512 -12.095   1.194  1.00  0.00     0.198 C 
ENDROOT
BRANCH   1   9
HETATM    9  N   UNL     1      40.321 -12.671  -0.946  1.00  0.00    -0.274 N 
HETATM   10  N   UNL     1      40.346 -13.350  -2.103  1.00  0.00     0.005 NA
HETATM   11  N   UNL     1      39.657 -12.659  -2.999  1.00  0.00    -0.161 NA
HETATM   12  C   UNL     1      39.196 -11.519  -2.395  1.00  0.00     0.095 A 
HETATM   13  C   UNL     1      39.604 -11.514  -1.079  1.00  0.00     0.139 A 
BRANCH  12  14
HETATM   14  C   UNL     1      38.377 -10.543  -3.162  1.00  0.00     0.296 C 
BRANCH  14  15
HETATM   15  N   UNL     1      39.045  -9.200  -3.364  1.00  0.00    -0.066 N 
HETATM   16  C   UNL     1      38.147  -8.240  -4.089  1.00  0.00     0.270 C 
HETATM   17  H   UNL     1      39.204  -8.823  -2.420  1.00  0.00     0.280 HD
BRANCH  15  18
HETATM   18  C   UNL     1      40.415  -9.329  -3.997  1.00  0.00     0.273 C 
BRANCH  18  19
HETATM   19  C   UNL     1      41.472  -8.473  -3.357  1.00  0.00    -0.033 A 
HETATM   20  C   UNL     1      42.110  -7.455  -4.084  1.00  0.00     0.009 A 
HETATM   21  C   UNL     1      43.107  -6.682  -3.487  1.00  0.00     0.001 A 
HETATM   22  C   UNL     1      43.469  -6.910  -2.161  1.00  0.00     0.000 A 
HETATM   23  C   UNL     1      42.834  -7.909  -1.426  1.00  0.00     0.001 A 
HETATM   24  C   UNL     1      41.841  -8.688  -2.020  1.00  0.00     0.009 A 
ENDBRANCH  18  19
ENDBRANCH  15  18
ENDBRANCH  14  15
ENDBRANCH  12  14
ENDBRANCH   1   9
BRANCH   4  25
HETATM   25  N   UNL     1      41.692 -15.520   4.122  1.00  0.00    -0.062 N 
HETATM   26  H   UNL     1      41.294 -14.767   4.705  1.00  0.00     0.278 HD
HETATM   27  H   UNL     1      41.182 -16.367   4.409  1.00  0.00     0.278 HD
BRANCH  25  28
HETATM   28  C   UNL     1      43.117 -15.676   4.545  1.00  0.00     0.273 C 
BRANCH  28  29
HETATM   29  C   UNL     1      43.330 -17.042   5.073  1.00  0.00    -0.005 A 
HETATM   30  C   UNL     1      43.531 -18.228   4.294  1.00  0.00    -0.000 A 
HETATM   31  C   UNL     1      43.672 -19.290   5.187  1.00  0.00     0.043 A 
HETATM   32  C   UNL     1      43.609 -18.497   2.911  1.00  0.00     0.014 A 
HETATM   33  C   UNL     1      43.882 -20.608   4.769  1.00  0.00     0.030 A 
HETATM   34  N   UNL     1      43.581 -18.775   6.459  1.00  0.00    -0.365 N 
HETATM   35  C   UNL     1      43.950 -20.850   3.395  1.00  0.00     0.002 A 
HETATM   36  C   UNL     1      43.817 -19.811   2.477  1.00  0.00     0.001 A 
HETATM   37  H   UNL     1      43.673 -19.325   7.305  1.00  0.00     0.165 HD
HETATM   38  C   UNL     1      43.355 -17.422   6.402  1.00  0.00     0.098 A 
ENDBRANCH  28  29
ENDBRANCH  25  28
ENDBRANCH   4  25
TORSDOF 8
ENDMDL
MODEL 8
REMARK VINA RESULT:      -8.2      1.525      1.998
REMARK  8 active torsions:
REMARK  status: ('A' for Active; 'I' for Inactive)
REMARK    1  A    between atoms: N_2  and  C_4 
REMARK    2  A    between atoms: N_2  and  C_32 
REMARK    3  A    between atoms: C_4  and  C_5 
REMARK    4  A    between atoms: N_8  and  C_9 
REMARK    5  A    between atoms: C_12  and  N_13 
REMARK    6  A    between atoms: N_13  and  C_16 
REMARK    7  A    between atoms: C_16  and  C_17 
REMARK    8  A    between atoms: C_32  and  C_33 
ROOT
HETATM    1  C   UNL     1      40.731 -10.960   6.348  1.00  0.00     0.161 C 
HETATM    2  C   UNL     1      41.765 -11.479   5.361  1.00  0.00     0.179 C 
HETATM    3  C   UNL     1      41.070 -12.667   4.709  1.00  0.00     0.185 C 
HETATM    4  C   UNL     1      41.721 -13.873   5.379  1.00  0.00     0.241 C 
HETATM    5  C   UNL     1      43.124 -13.350   5.633  1.00  0.00     0.204 C 
HETATM    6  O   UNL     1      42.947 -11.974   6.012  1.00  0.00    -0.379 OA
HETATM    7  O   UNL     1      39.675 -12.609   5.017  1.00  0.00    -0.379 OA
HETATM    8  C   UNL     1      39.430 -11.329   5.645  1.00  0.00     0.198 C 
ENDROOT
BRANCH   1   9
HETATM    9  N   UNL     1      40.899  -9.570   6.683  1.00  0.00    -0.274 N 
HETATM   10  N   UNL     1      41.505  -8.713   5.847  1.00  0.00     0.005 NA
HETATM   11  N   UNL     1      41.525  -7.521   6.425  1.00  0.00    -0.161 NA
HETATM   12  C   UNL     1      40.925  -7.633   7.652  1.00  0.00     0.095 A 
HETATM   13  C   UNL     1      40.510  -8.935   7.830  1.00  0.00     0.139 A 
BRANCH  12  14
HETATM   14  C   UNL     1      40.795  -6.442   8.533  1.00  0.00     0.296 C 
BRANCH  14  15
HETATM   15  N   UNL     1      41.358  -6.639   9.924  1.00  0.00    -0.066 N 
HETATM   16  C   UNL     1      40.960  -5.521  10.844  1.00  0.00     0.270 C 
HETATM   17  H   UNL     1      40.924  -7.502  10.281  1.00  0.00     0.280 HD
BRANCH  15  18
HETATM   18  C   UNL     1      42.850  -6.897   9.909  1.00  0.00     0.273 C 
BRANCH  18  19
HETATM   19  C   UNL     1      43.250  -8.230  10.477  1.00  0.00    -0.033 A 
HETATM   20  C   UNL     1      44.403  -8.889  10.021  1.00  0.00     0.009 A 
HETATM   21  C   UNL     1      44.752 -10.137  10.539  1.00  0.00     0.001 A 
HETATM   22  C   UNL     1      43.962 -10.733  11.520  1.00  0.00     0.000 A 
HETATM   23  C   UNL     1      42.823 -10.083  11.989  1.00  0.00     0.001 A 
HETATM   24  C   UNL     1      42.467  -8.838  11.471  1.00  0.00     0.009 A 
ENDBRANCH  18  19
ENDBRANCH  15  18
ENDBRANCH  14  15
ENDBRANCH  12  14
ENDBRANCH   1   9
BRANCH   4  25
HETATM   25  N   UNL     1      41.657 -15.086   4.520  1.00  0.00    -0.062 N 
HETATM   26  H   UNL     1      41.326 -15.885   5.084  1.00  0.00     0.278 HD
HETATM   27  H   UNL     1      40.965 -15.000   3.761  1.00  0.00     0.278 HD
BRANCH  25  28
HETATM   28  C   UNL     1      42.957 -15.503   3.912  1.00  0.00     0.273 C 
BRANCH  28  29
HETATM   29  C   UNL     1      43.370 -16.808   4.475  1.00  0.00    -0.005 A 
HETATM   30  C   UNL     1      43.448 -18.050   3.764  1.00  0.00    -0.000 A 
HETATM   31  C   UNL     1      43.861 -19.022   4.674  1.00  0.00     0.043 A 
HETATM   32  C   UNL     1      43.208 -18.437   2.428  1.00  0.00     0.014 A 
HETATM   33  C   UNL     1      44.042 -20.363   4.319  1.00  0.00     0.030 A 
HETATM   34  N   UNL     1      44.047 -18.401   5.886  1.00  0.00    -0.365 N 
HETATM   35  C   UNL     1      43.792 -20.723   2.992  1.00  0.00     0.002 A 
HETATM   36  C   UNL     1      43.382 -19.775   2.058  1.00  0.00     0.001 A 
HETATM   37  H   UNL     1      44.372 -18.870   6.724  1.00  0.00     0.165 HD
HETATM   38  C   UNL     1      43.735 -17.069   5.783  1.00  0.00     0.098 A 
ENDBRANCH  28  29
ENDBRANCH  25  28
ENDBRANCH   4  25
TORSDOF 8
ENDMDL
MODEL 9
REMARK VINA RESULT:      -8.1      3.630     10.623
REMARK  8 active torsions:
REMARK  status: ('A' for Active; 'I' for Inactive)
REMARK    1  A    between atoms: N_2  and  C_4 
REMARK    2  A    between atoms: N_2  and  C_32 
REMARK    3  A    between atoms: C_4  and  C_5 
REMARK    4  A    between atoms: N_8  and  C_9 
REMARK    5  A    between atoms: C_12  and  N_13 
REMARK    6  A    between atoms: N_13  and  C_16 
REMARK    7  A    between atoms: C_16  and  C_17 
REMARK    8  A    between atoms: C_32  and  C_33 
ROOT
HETATM    1  C   UNL     1      43.160 -11.069   5.675  1.00  0.00     0.161 C 
HETATM    2  C   UNL     1      43.443 -11.351   7.142  1.00  0.00     0.179 C 
HETATM    3  C   UNL     1      43.017 -10.065   7.839  1.00  0.00     0.185 C 
HETATM    4  C   UNL     1      44.339  -9.373   8.151  1.00  0.00     0.241 C 
HETATM    5  C   UNL     1      45.253 -10.565   8.380  1.00  0.00     0.204 C 
HETATM    6  O   UNL     1      44.844 -11.541   7.405  1.00  0.00    -0.379 OA
HETATM    7  O   UNL     1      42.240  -9.285   6.929  1.00  0.00    -0.379 OA
HETATM    8  C   UNL     1      41.976 -10.114   5.773  1.00  0.00     0.198 C 
ENDROOT
BRANCH   1   9
HETATM    9  N   UNL     1      42.952 -12.258   4.889  1.00  0.00    -0.274 N 
HETATM   10  N   UNL     1      42.965 -13.479   5.444  1.00  0.00     0.005 NA
HETATM   11  N   UNL     1      42.762 -14.368   4.482  1.00  0.00    -0.161 NA
HETATM   12  C   UNL     1      42.625 -13.692   3.298  1.00  0.00     0.095 A 
HETATM   13  C   UNL     1      42.736 -12.340   3.541  1.00  0.00     0.139 A 
BRANCH  12  14
HETATM   14  C   UNL     1      42.379 -14.436   2.035  1.00  0.00     0.296 C 
BRANCH  14  15
HETATM   15  N   UNL     1      40.936 -14.415   1.577  1.00  0.00    -0.066 N 
HETATM   16  C   UNL     1      40.098 -15.394   2.347  1.00  0.00     0.270 C 
HETATM   17  H   UNL     1      40.588 -13.471   1.796  1.00  0.00     0.280 HD
BRANCH  15  18
HETATM   18  C   UNL     1      40.807 -14.570   0.076  1.00  0.00     0.273 C 
BRANCH  18  19
HETATM   19  C   UNL     1      39.706 -13.750  -0.535  1.00  0.00    -0.033 A 
HETATM   20  C   UNL     1      39.334 -12.517   0.023  1.00  0.00     0.009 A 
HETATM   21  C   UNL     1      38.293 -11.775  -0.540  1.00  0.00     0.001 A 
HETATM   22  C   UNL     1      37.623 -12.251  -1.665  1.00  0.00     0.000 A 
HETATM   23  C   UNL     1      37.992 -13.467  -2.234  1.00  0.00     0.001 A 
HETATM   24  C   UNL     1      39.027 -14.215  -1.673  1.00  0.00     0.009 A 
ENDBRANCH  18  19
ENDBRANCH  15  18
ENDBRANCH  14  15
ENDBRANCH  12  14
ENDBRANCH   1   9
BRANCH   4  25
HETATM   25  N   UNL     1      44.222  -8.450   9.312  1.00  0.00    -0.062 N 
HETATM   26  H   UNL     1      44.734  -7.577   9.106  1.00  0.00     0.278 HD
HETATM   27  H   UNL     1      43.252  -8.148   9.484  1.00  0.00     0.278 HD
BRANCH  25  28
HETATM   28  C   UNL     1      44.775  -8.973  10.598  1.00  0.00     0.273 C 
BRANCH  28  29
HETATM   29  C   UNL     1      43.663  -9.366  11.492  1.00  0.00    -0.005 A 
HETATM   30  C   UNL     1      43.222  -8.655  12.656  1.00  0.00    -0.000 A 
HETATM   31  C   UNL     1      42.166  -9.380  13.207  1.00  0.00     0.043 A 
HETATM   32  C   UNL     1      43.623  -7.460  13.292  1.00  0.00     0.014 A 
HETATM   33  C   UNL     1      41.492  -8.975  14.364  1.00  0.00     0.030 A 
HETATM   34  N   UNL     1      41.955 -10.477  12.405  1.00  0.00    -0.365 N 
HETATM   35  C   UNL     1      41.911  -7.792  14.979  1.00  0.00     0.002 A 
HETATM   36  C   UNL     1      42.960  -7.043  14.451  1.00  0.00     0.001 A 
HETATM   37  H   UNL     1      41.227 -11.165  12.560  1.00  0.00     0.165 HD
HETATM   38  C   UNL     1      42.864 -10.489  11.378  1.00  0.00     0.098 A 
ENDBRANCH  28  29
ENDBRANCH  25  28
ENDBRANCH   4  25
TORSDOF 8
ENDMDL
MODEL 10
REMARK VINA RESULT:      -8.0      2.662      4.277
REMARK  8 active torsions:
REMARK  status: ('A' for Active; 'I' for Inactive)
REMARK    1  A    between atoms: N_2  and  C_4 
REMARK    2  A    between atoms: N_2  and  C_32 
REMARK    3  A    between atoms: C_4  and  C_5 
REMARK    4  A    between atoms: N_8  and  C_9 
REMARK    5  A    between atoms: C_12  and  N_13 
REMARK    6  A    between atoms: N_13  and  C_16 
REMARK    7  A    between atoms: C_16  and  C_17 
REMARK    8  A    between atoms: C_32  and  C_33 
ROOT
HETATM    1  C   UNL     1      43.674  -9.959   7.449  1.00  0.00     0.161 C 
HETATM    2  C   UNL     1      42.580 -10.536   6.563  1.00  0.00     0.179 C 
HETATM    3  C   UNL     1      43.216 -11.793   5.985  1.00  0.00     0.185 C 
HETATM    4  C   UNL     1      43.575 -11.389   4.560  1.00  0.00     0.241 C 
HETATM    5  C   UNL     1      42.465 -10.404   4.241  1.00  0.00     0.204 C 
HETATM    6  O   UNL     1      42.253  -9.672   5.461  1.00  0.00    -0.379 OA
HETATM    7  O   UNL     1      44.393 -12.100   6.736  1.00  0.00    -0.379 OA
HETATM    8  C   UNL     1      44.405 -11.223   7.887  1.00  0.00     0.198 C 
ENDROOT
BRANCH   1   9
HETATM    9  N   UNL     1      43.177  -9.116   8.504  1.00  0.00    -0.274 N 
HETATM   10  N   UNL     1      43.933  -8.148   9.047  1.00  0.00     0.005 NA
HETATM   11  N   UNL     1      43.221  -7.554   9.993  1.00  0.00    -0.161 NA
HETATM   12  C   UNL     1      41.995  -8.165  10.051  1.00  0.00     0.095 A 
HETATM   13  C   UNL     1      41.947  -9.161   9.099  1.00  0.00     0.139 A 
BRANCH  12  14
HETATM   14  C   UNL     1      40.973  -7.701  11.025  1.00  0.00     0.296 C 
BRANCH  14  15
HETATM   15  N   UNL     1      40.313  -8.818  11.806  1.00  0.00    -0.066 N 
HETATM   16  C   UNL     1      39.025  -8.367  12.433  1.00  0.00     0.270 C 
HETATM   17  H   UNL     1      40.083  -9.544  11.115  1.00  0.00     0.280 HD
BRANCH  15  18
HETATM   18  C   UNL     1      41.261  -9.466  12.793  1.00  0.00     0.273 C 
BRANCH  18  19
HETATM   19  C   UNL     1      41.724  -8.552  13.894  1.00  0.00    -0.033 A 
HETATM   20  C   UNL     1      41.064  -8.528  15.133  1.00  0.00     0.009 A 
HETATM   21  C   UNL     1      41.488  -7.658  16.139  1.00  0.00     0.001 A 
HETATM   22  C   UNL     1      42.575  -6.814  15.923  1.00  0.00     0.000 A 
HETATM   23  C   UNL     1      43.245  -6.839  14.702  1.00  0.00     0.001 A 
HETATM   24  C   UNL     1      42.822  -7.702  13.691  1.00  0.00     0.009 A 
ENDBRANCH  18  19
ENDBRANCH  15  18
ENDBRANCH  14  15
ENDBRANCH  12  14
ENDBRANCH   1   9
BRANCH   4  25
HETATM   25  N   UNL     1      43.642 -12.565   3.650  1.00  0.00    -0.062 N 
HETATM   26  H   UNL     1      43.769 -12.238   2.679  1.00  0.00     0.278 HD
HETATM   27  H   UNL     1      44.461 -13.163   3.832  1.00  0.00     0.278 HD
BRANCH  25  28
HETATM   28  C   UNL     1      42.428 -13.437   3.649  1.00  0.00     0.273 C 
BRANCH  28  29
HETATM   29  C   UNL     1      42.695 -14.656   2.854  1.00  0.00    -0.005 A 
HETATM   30  C   UNL     1      43.122 -15.924   3.368  1.00  0.00    -0.000 A 
HETATM   31  C   UNL     1      43.270 -16.782   2.279  1.00  0.00     0.043 A 
HETATM   32  C   UNL     1      43.396 -16.422   4.660  1.00  0.00     0.014 A 
HETATM   33  C   UNL     1      43.682 -18.113   2.415  1.00  0.00     0.030 A 
HETATM   34  N   UNL     1      42.928 -16.078   1.149  1.00  0.00    -0.365 N 
HETATM   35  C   UNL     1      43.952 -18.580   3.703  1.00  0.00     0.002 A 
HETATM   36  C   UNL     1      43.811 -17.750   4.811  1.00  0.00     0.001 A 
HETATM   37  H   UNL     1      42.922 -16.469   0.213  1.00  0.00     0.165 HD
HETATM   38  C   UNL     1      42.598 -14.789   1.481  1.00  0.00     0.098 A 
ENDBRANCH  28  29
ENDBRANCH  25  28
ENDBRANCH   4  25
TORSDOF 8
ENDMDL
