MODEL 1
REMARK VINA RESULT:      -8.7      0.000      0.000
REMARK  3 active torsions:
REMARK  status: ('A' for Active; 'I' for Inactive)
REMARK    1  A    between atoms: C_2  and  C_3 
REMARK       I    between atoms: C_3  and  N_4 
REMARK    2  A    between atoms: N_4  and  N_5 
REMARK    3  A    between atoms: C_21  and  C_22 
ROOT
HETATM    1  C   UNL     1      40.564 -15.289   1.747  1.00  0.00     0.288 C 
HETATM    2  N   UNL     1      41.037 -14.849   0.527  1.00  0.00    -0.251 N 
HETATM    3  O   UNL     1      39.459 -14.981   2.189  1.00  0.00    -0.264 OA
HETATM    4  H   UNL     1      42.024 -14.927   0.318  1.00  0.00     0.191 HD
ENDROOT
BRANCH   2   5
HETATM    5  N   UNL     1      40.410 -13.751  -0.044  1.00  0.00    -0.167 N 
HETATM    6  C   UNL     1      40.756 -12.467   0.272  1.00  0.00     0.345 C 
HETATM    7  O   UNL     1      41.596 -12.104   1.078  1.00  0.00    -0.245 OA
HETATM    8  N   UNL     1      40.030 -11.622  -0.540  1.00  0.00    -0.323 N 
HETATM    9  C   UNL     1      39.150 -12.348  -1.443  1.00  0.00     0.117 C 
HETATM   10  H   UNL     1      40.122 -10.617  -0.468  1.00  0.00     0.165 HD
HETATM   11  C   UNL     1      39.445 -12.016  -2.908  1.00  0.00     0.041 C 
HETATM   12  C   UNL     1      37.681 -12.115  -1.081  1.00  0.00     0.041 C 
HETATM   13  C   UNL     1      39.560 -13.806  -1.123  1.00  0.00     0.275 C 
HETATM   14  C   UNL     1      38.967 -10.615  -3.287  1.00  0.00     0.003 C 
HETATM   15  C   UNL     1      37.497 -10.405  -2.936  1.00  0.00     0.000 C 
HETATM   16  C   UNL     1      37.213 -10.712  -1.467  1.00  0.00     0.003 C 
HETATM   17  O   UNL     1      39.196 -14.796  -1.741  1.00  0.00    -0.268 OA
ENDBRANCH   2   5
BRANCH   1  18
HETATM   18  C   UNL     1      41.481 -16.112   2.492  1.00  0.00     0.121 A 
HETATM   19  C   UNL     1      42.505 -16.968   2.132  1.00  0.00     0.066 A 
HETATM   20  C   UNL     1      43.098 -17.395   3.347  1.00  0.00     0.061 A 
HETATM   21  N   UNL     1      42.440 -16.891   4.400  1.00  0.00    -0.178 NA
HETATM   22  N   UNL     1      41.482 -16.124   3.860  1.00  0.00    -0.272 N 
HETATM   23  H   UNL     1      40.855 -15.612   4.474  1.00  0.00     0.189 HD
BRANCH  20  24
HETATM   24  C   UNL     1      44.305 -18.269   3.589  1.00  0.00     0.039 C 
HETATM   25  C   UNL     1      44.518 -18.589   5.076  1.00  0.00     0.011 C 
HETATM   26  C   UNL     1      43.663 -19.749   5.578  1.00  0.00     0.001 C 
HETATM   27  C   UNL     1      43.864 -20.996   4.725  1.00  0.00     0.000 C 
HETATM   28  C   UNL     1      43.559 -20.724   3.257  1.00  0.00     0.001 C 
HETATM   29  C   UNL     1      44.347 -19.533   2.710  1.00  0.00     0.011 C 
ENDBRANCH  20  24
ENDBRANCH   1  18
TORSDOF 3
ENDMDL
MODEL 2
REMARK VINA RESULT:      -8.6      6.495      9.956
REMARK  3 active torsions:
REMARK  status: ('A' for Active; 'I' for Inactive)
REMARK    1  A    between atoms: C_2  and  C_3 
REMARK       I    between atoms: C_3  and  N_4 
REMARK    2  A    between atoms: N_4  and  N_5 
REMARK    3  A    between atoms: C_21  and  C_22 
ROOT
HETATM    1  C   UNL     1      42.990 -13.140   6.057  1.00  0.00     0.288 C 
HETATM    2  N   UNL     1      42.551 -14.155   6.883  1.00  0.00    -0.251 N 
HETATM    3  O   UNL     1      43.164 -13.284   4.849  1.00  0.00    -0.264 OA
HETATM    4  H   UNL     1      42.653 -14.061   7.886  1.00  0.00     0.191 HD
ENDROOT
BRANCH   2   5
HETATM    5  N   UNL     1      42.659 -15.455   6.411  1.00  0.00    -0.167 N 
HETATM    6  C   UNL     1      41.641 -16.076   5.741  1.00  0.00     0.345 C 
HETATM    7  O   UNL     1      40.535 -15.626   5.495  1.00  0.00    -0.245 OA
HETATM    8  N   UNL     1      42.103 -17.303   5.317  1.00  0.00    -0.323 N 
HETATM    9  C   UNL     1      43.483 -17.539   5.710  1.00  0.00     0.117 C 
HETATM   10  H   UNL     1      41.506 -17.940   4.804  1.00  0.00     0.165 HD
HETATM   11  C   UNL     1      44.379 -17.806   4.497  1.00  0.00     0.041 C 
HETATM   12  C   UNL     1      43.572 -18.657   6.753  1.00  0.00     0.041 C 
HETATM   13  C   UNL     1      43.829 -16.174   6.352  1.00  0.00     0.275 C 
HETATM   14  C   UNL     1      44.132 -19.187   3.893  1.00  0.00     0.003 C 
HETATM   15  C   UNL     1      44.242 -20.291   4.941  1.00  0.00     0.000 C 
HETATM   16  C   UNL     1      43.326 -20.034   6.136  1.00  0.00     0.003 C 
HETATM   17  O   UNL     1      44.944 -15.822   6.711  1.00  0.00    -0.268 OA
ENDBRANCH   2   5
BRANCH   1  18
HETATM   18  C   UNL     1      43.269 -11.894   6.724  1.00  0.00     0.121 A 
HETATM   19  C   UNL     1      44.151 -11.520   7.720  1.00  0.00     0.066 A 
HETATM   20  C   UNL     1      44.007 -10.116   7.857  1.00  0.00     0.061 A 
HETATM   21  N   UNL     1      43.046  -9.655   7.046  1.00  0.00    -0.178 NA
HETATM   22  N   UNL     1      42.625 -10.738   6.377  1.00  0.00    -0.272 N 
HETATM   23  H   UNL     1      41.898 -10.632   5.675  1.00  0.00     0.189 HD
BRANCH  20  24
HETATM   24  C   UNL     1      44.762  -9.140   8.727  1.00  0.00     0.039 C 
HETATM   25  C   UNL     1      43.990  -7.831   8.957  1.00  0.00     0.011 C 
HETATM   26  C   UNL     1      42.956  -7.922  10.075  1.00  0.00     0.001 C 
HETATM   27  C   UNL     1      43.585  -8.412  11.374  1.00  0.00     0.000 C 
HETATM   28  C   UNL     1      44.271  -9.760  11.190  1.00  0.00     0.001 C 
HETATM   29  C   UNL     1      45.282  -9.747  10.043  1.00  0.00     0.011 C 
ENDBRANCH  20  24
ENDBRANCH   1  18
TORSDOF 3
ENDMDL
MODEL 3
REMARK VINA RESULT:      -8.4      7.466      9.321
REMARK  3 active torsions:
REMARK  status: ('A' for Active; 'I' for Inactive)
REMARK    1  A    between atoms: C_2  and  C_3 
REMARK       I    between atoms: C_3  and  N_4 
REMARK    2  A    between atoms: N_4  and  N_5 
REMARK    3  A    between atoms: C_21  and  C_22 
ROOT
HETATM    1  C   UNL     1      44.139 -11.402   6.807  1.00  0.00     0.288 C 
HETATM    2  N   UNL     1      43.058 -11.330   5.951  1.00  0.00    -0.251 N 
HETATM    3  O   UNL     1      45.106 -12.134   6.607  1.00  0.00    -0.264 OA
HETATM    4  H   UNL     1      42.196 -10.906   6.273  1.00  0.00     0.191 HD
ENDROOT
BRANCH   2   5
HETATM    5  N   UNL     1      42.890 -12.366   5.044  1.00  0.00    -0.167 N 
HETATM    6  C   UNL     1      43.400 -12.317   3.777  1.00  0.00     0.345 C 
HETATM    7  O   UNL     1      44.019 -11.399   3.264  1.00  0.00    -0.245 OA
HETATM    8  N   UNL     1      43.156 -13.533   3.177  1.00  0.00    -0.323 N 
HETATM    9  C   UNL     1      42.450 -14.450   4.058  1.00  0.00     0.117 C 
HETATM   10  H   UNL     1      43.442 -13.715   2.223  1.00  0.00     0.165 HD
HETATM   11  C   UNL     1      43.236 -15.747   4.273  1.00  0.00     0.041 C 
HETATM   12  C   UNL     1      41.029 -14.712   3.550  1.00  0.00     0.041 C 
HETATM   13  C   UNL     1      42.412 -13.615   5.361  1.00  0.00     0.275 C 
HETATM   14  C   UNL     1      43.215 -16.643   3.035  1.00  0.00     0.003 C 
HETATM   15  C   UNL     1      41.792 -16.908   2.553  1.00  0.00     0.000 C 
HETATM   16  C   UNL     1      41.021 -15.612   2.315  1.00  0.00     0.003 C 
HETATM   17  O   UNL     1      42.041 -14.022   6.453  1.00  0.00    -0.268 OA
ENDBRANCH   2   5
BRANCH   1  18
HETATM   18  C   UNL     1      44.038 -10.577   7.984  1.00  0.00     0.121 A 
HETATM   19  C   UNL     1      43.049  -9.756   8.492  1.00  0.00     0.066 A 
HETATM   20  C   UNL     1      43.528  -9.306   9.749  1.00  0.00     0.061 A 
HETATM   21  N   UNL     1      44.766  -9.764   9.977  1.00  0.00    -0.178 NA
HETATM   22  N   UNL     1      45.044 -10.524   8.908  1.00  0.00    -0.272 N 
HETATM   23  H   UNL     1      45.939 -11.003   8.864  1.00  0.00     0.189 HD
BRANCH  20  24
HETATM   24  C   UNL     1      42.858  -8.453  10.798  1.00  0.00     0.039 C 
HETATM   25  C   UNL     1      41.327  -8.447  10.668  1.00  0.00     0.011 C 
HETATM   26  C   UNL     1      40.656  -9.652  11.319  1.00  0.00     0.001 C 
HETATM   27  C   UNL     1      41.072  -9.799  12.777  1.00  0.00     0.000 C 
HETATM   28  C   UNL     1      42.585  -9.909  12.919  1.00  0.00     0.001 C 
HETATM   29  C   UNL     1      43.318  -8.753  12.236  1.00  0.00     0.011 C 
ENDBRANCH  20  24
ENDBRANCH   1  18
TORSDOF 3
ENDMDL
MODEL 4
REMARK VINA RESULT:      -8.3      7.208      8.844
REMARK  3 active torsions:
REMARK  status: ('A' for Active; 'I' for Inactive)
REMARK    1  A    between atoms: C_2  and  C_3 
REMARK       I    between atoms: C_3  and  N_4 
REMARK    2  A    between atoms: N_4  and  N_5 
REMARK    3  A    between atoms: C_21  and  C_22 
ROOT
HETATM    1  C   UNL     1      43.780 -11.862   6.187  1.00  0.00     0.288 C 
HETATM    2  N   UNL     1      43.570 -11.956   7.548  1.00  0.00    -0.251 N 
HETATM    3  O   UNL     1      44.287 -10.879   5.652  1.00  0.00    -0.264 OA
HETATM    4  H   UNL     1      42.942 -12.664   7.908  1.00  0.00     0.191 HD
ENDROOT
BRANCH   2   5
HETATM    5  N   UNL     1      43.594 -10.779   8.282  1.00  0.00    -0.167 N 
HETATM    6  C   UNL     1      44.730 -10.321   8.889  1.00  0.00     0.345 C 
HETATM    7  O   UNL     1      45.826 -10.856   8.908  1.00  0.00    -0.245 OA
HETATM    8  N   UNL     1      44.447  -9.088   9.436  1.00  0.00    -0.323 N 
HETATM    9  C   UNL     1      43.070  -8.684   9.201  1.00  0.00     0.117 C 
HETATM   10  H   UNL     1      45.149  -8.566   9.946  1.00  0.00     0.165 HD
HETATM   11  C   UNL     1      42.991  -7.351   8.451  1.00  0.00     0.041 C 
HETATM   12  C   UNL     1      42.276  -8.659  10.511  1.00  0.00     0.041 C 
HETATM   13  C   UNL     1      42.586  -9.845   8.299  1.00  0.00     0.275 C 
HETATM   14  C   UNL     1      43.371  -6.168   9.340  1.00  0.00     0.003 C 
HETATM   15  C   UNL     1      42.559  -6.147  10.632  1.00  0.00     0.000 C 
HETATM   16  C   UNL     1      42.662  -7.469  11.390  1.00  0.00     0.003 C 
HETATM   17  O   UNL     1      41.514  -9.887   7.711  1.00  0.00    -0.268 OA
ENDBRANCH   2   5
BRANCH   1  18
HETATM   18  C   UNL     1      43.322 -12.995   5.423  1.00  0.00     0.121 A 
HETATM   19  C   UNL     1      43.113 -14.328   5.723  1.00  0.00     0.066 A 
HETATM   20  C   UNL     1      42.551 -14.903   4.555  1.00  0.00     0.061 A 
HETATM   21  N   UNL     1      42.479 -14.001   3.568  1.00  0.00    -0.178 NA
HETATM   22  N   UNL     1      42.942 -12.868   4.115  1.00  0.00    -0.272 N 
HETATM   23  H   UNL     1      42.964 -12.022   3.553  1.00  0.00     0.189 HD
BRANCH  20  24
HETATM   24  C   UNL     1      42.040 -16.302   4.308  1.00  0.00     0.039 C 
HETATM   25  C   UNL     1      41.902 -16.627   2.812  1.00  0.00     0.011 C 
HETATM   26  C   UNL     1      43.210 -17.063   2.160  1.00  0.00     0.001 C 
HETATM   27  C   UNL     1      43.841 -18.231   2.909  1.00  0.00     0.000 C 
HETATM   28  C   UNL     1      44.080 -17.892   4.374  1.00  0.00     0.001 C 
HETATM   29  C   UNL     1      42.813 -17.394   5.071  1.00  0.00     0.011 C 
ENDBRANCH  20  24
ENDBRANCH   1  18
TORSDOF 3
ENDMDL
MODEL 5
REMARK VINA RESULT:      -8.1      2.496      9.115
REMARK  3 active torsions:
REMARK  status: ('A' for Active; 'I' for Inactive)
REMARK    1  A    between atoms: C_2  and  C_3 
REMARK       I    between atoms: C_3  and  N_4 
REMARK    2  A    between atoms: N_4  and  N_5 
REMARK    3  A    between atoms: C_21  and  C_22 
ROOT
HETATM    1  C   UNL     1      40.789 -13.559   0.201  1.00  0.00     0.288 C 
HETATM    2  N   UNL     1      41.049 -13.486   1.555  1.00  0.00    -0.251 N 
HETATM    3  O   UNL     1      40.605 -14.620  -0.391  1.00  0.00    -0.264 OA
HETATM    4  H   UNL     1      41.427 -12.631   1.945  1.00  0.00     0.191 HD
ENDROOT
BRANCH   2   5
HETATM    5  N   UNL     1      41.472 -14.646   2.189  1.00  0.00    -0.167 N 
HETATM    6  C   UNL     1      40.594 -15.586   2.652  1.00  0.00     0.345 C 
HETATM    7  O   UNL     1      39.375 -15.544   2.612  1.00  0.00    -0.245 OA
HETATM    8  N   UNL     1      41.328 -16.653   3.123  1.00  0.00    -0.323 N 
HETATM    9  C   UNL     1      42.761 -16.440   2.984  1.00  0.00     0.117 C 
HETATM   10  H   UNL     1      40.877 -17.465   3.524  1.00  0.00     0.165 HD
HETATM   11  C   UNL     1      43.417 -17.537   2.141  1.00  0.00     0.041 C 
HETATM   12  C   UNL     1      43.426 -16.285   4.355  1.00  0.00     0.041 C 
HETATM   13  C   UNL     1      42.771 -15.091   2.224  1.00  0.00     0.275 C 
HETATM   14  C   UNL     1      43.511 -18.862   2.896  1.00  0.00     0.003 C 
HETATM   15  C   UNL     1      44.192 -18.695   4.251  1.00  0.00     0.000 C 
HETATM   16  C   UNL     1      43.517 -17.618   5.098  1.00  0.00     0.003 C 
HETATM   17  O   UNL     1      43.761 -14.557   1.742  1.00  0.00    -0.268 OA
ENDBRANCH   2   5
BRANCH   1  18
HETATM   18  C   UNL     1      40.786 -12.292  -0.485  1.00  0.00     0.121 A 
HETATM   19  C   UNL     1      40.455 -11.004  -0.110  1.00  0.00     0.066 A 
HETATM   20  C   UNL     1      40.773 -10.184  -1.222  1.00  0.00     0.061 A 
HETATM   21  N   UNL     1      41.210 -10.925  -2.249  1.00  0.00    -0.178 NA
HETATM   22  N   UNL     1      41.212 -12.180  -1.780  1.00  0.00    -0.272 N 
HETATM   23  H   UNL     1      41.530 -12.932  -2.384  1.00  0.00     0.189 HD
BRANCH  20  24
HETATM   24  C   UNL     1      40.706  -8.684  -1.377  1.00  0.00     0.039 C 
HETATM   25  C   UNL     1      41.898  -7.966  -0.726  1.00  0.00     0.011 C 
HETATM   26  C   UNL     1      43.143  -7.932  -1.607  1.00  0.00     0.001 C 
HETATM   27  C   UNL     1      42.839  -7.337  -2.976  1.00  0.00     0.000 C 
HETATM   28  C   UNL     1      41.725  -8.099  -3.682  1.00  0.00     0.001 C 
HETATM   29  C   UNL     1      40.465  -8.215  -2.824  1.00  0.00     0.011 C 
ENDBRANCH  20  24
ENDBRANCH   1  18
TORSDOF 3
ENDMDL
MODEL 6
REMARK VINA RESULT:      -8.0      2.332      3.398
REMARK  3 active torsions:
REMARK  status: ('A' for Active; 'I' for Inactive)
REMARK    1  A    between atoms: C_2  and  C_3 
REMARK       I    between atoms: C_3  and  N_4 
REMARK    2  A    between atoms: N_4  and  N_5 
REMARK    3  A    between atoms: C_21  and  C_22 
ROOT
HETATM    1  C   UNL     1      40.538 -14.498   0.030  1.00  0.00     0.288 C 
HETATM    2  N   UNL     1      41.064 -13.346  -0.520  1.00  0.00    -0.251 N 
HETATM    3  O   UNL     1      39.541 -15.061  -0.416  1.00  0.00    -0.264 OA
HETATM    4  H   UNL     1      41.725 -12.796   0.014  1.00  0.00     0.191 HD
ENDROOT
BRANCH   2   5
HETATM    5  N   UNL     1      40.246 -12.609  -1.363  1.00  0.00    -0.167 N 
HETATM    6  C   UNL     1      40.129 -12.890  -2.696  1.00  0.00     0.345 C 
HETATM    7  O   UNL     1      40.711 -13.758  -3.323  1.00  0.00    -0.245 OA
HETATM    8  N   UNL     1      39.167 -12.053  -3.219  1.00  0.00    -0.323 N 
HETATM    9  C   UNL     1      38.604 -11.163  -2.215  1.00  0.00     0.117 C 
HETATM   10  H   UNL     1      38.923 -12.082  -4.201  1.00  0.00     0.165 HD
HETATM   11  C   UNL     1      37.087 -11.332  -2.095  1.00  0.00     0.041 C 
HETATM   12  C   UNL     1      39.006  -9.710  -2.486  1.00  0.00     0.041 C 
HETATM   13  C   UNL     1      39.312 -11.691  -0.944  1.00  0.00     0.275 C 
HETATM   14  C   UNL     1      36.346 -10.735  -3.292  1.00  0.00     0.003 C 
HETATM   15  C   UNL     1      36.745  -9.282  -3.536  1.00  0.00     0.000 C 
HETATM   16  C   UNL     1      38.257  -9.123  -3.682  1.00  0.00     0.003 C 
HETATM   17  O   UNL     1      39.056 -11.352   0.202  1.00  0.00    -0.268 OA
ENDBRANCH   2   5
BRANCH   1  18
HETATM   18  C   UNL     1      41.225 -14.979   1.202  1.00  0.00     0.121 A 
HETATM   19  C   UNL     1      40.803 -15.475   2.421  1.00  0.00     0.066 A 
HETATM   20  C   UNL     1      41.979 -15.877   3.103  1.00  0.00     0.061 A 
HETATM   21  N   UNL     1      43.070 -15.586   2.382  1.00  0.00    -0.178 NA
HETATM   22  N   UNL     1      42.590 -15.055   1.249  1.00  0.00    -0.272 N 
HETATM   23  H   UNL     1      43.242 -14.769   0.524  1.00  0.00     0.189 HD
BRANCH  20  24
HETATM   24  C   UNL     1      42.145 -16.562   4.438  1.00  0.00     0.039 C 
HETATM   25  C   UNL     1      43.467 -16.198   5.132  1.00  0.00     0.011 C 
HETATM   26  C   UNL     1      43.411 -14.878   5.894  1.00  0.00     0.001 C 
HETATM   27  C   UNL     1      42.257 -14.860   6.890  1.00  0.00     0.000 C 
HETATM   28  C   UNL     1      40.922 -15.120   6.204  1.00  0.00     0.001 C 
HETATM   29  C   UNL     1      40.934 -16.406   5.376  1.00  0.00     0.011 C 
ENDBRANCH  20  24
ENDBRANCH   1  18
TORSDOF 3
ENDMDL
MODEL 7
REMARK VINA RESULT:      -7.9      7.095      9.145
REMARK  3 active torsions:
REMARK  status: ('A' for Active; 'I' for Inactive)
REMARK    1  A    between atoms: C_2  and  C_3 
REMARK       I    between atoms: C_3  and  N_4 
REMARK    2  A    between atoms: N_4  and  N_5 
REMARK    3  A    between atoms: C_21  and  C_22 
ROOT
HETATM    1  C   UNL     1      41.132 -10.988   5.961  1.00  0.00     0.288 C 
HETATM    2  N   UNL     1      40.615 -12.262   6.077  1.00  0.00    -0.251 N 
HETATM    3  O   UNL     1      41.590 -10.541   4.911  1.00  0.00    -0.264 OA
HETATM    4  H   UNL     1      40.477 -12.662   6.997  1.00  0.00     0.191 HD
ENDROOT
BRANCH   2   5
HETATM    5  N   UNL     1      40.950 -13.180   5.092  1.00  0.00    -0.167 N 
HETATM    6  C   UNL     1      40.200 -13.343   3.960  1.00  0.00     0.345 C 
HETATM    7  O   UNL     1      39.166 -12.765   3.668  1.00  0.00    -0.245 OA
HETATM    8  N   UNL     1      40.856 -14.240   3.146  1.00  0.00    -0.323 N 
HETATM    9  C   UNL     1      42.097 -14.716   3.737  1.00  0.00     0.117 C 
HETATM   10  H   UNL     1      40.470 -14.517   2.252  1.00  0.00     0.165 HD
HETATM   11  C   UNL     1      43.301 -14.420   2.839  1.00  0.00     0.041 C 
HETATM   12  C   UNL     1      41.996 -16.201   4.100  1.00  0.00     0.041 C 
HETATM   13  C   UNL     1      42.148 -13.849   5.018  1.00  0.00     0.275 C 
HETATM   14  C   UNL     1      43.336 -15.325   1.608  1.00  0.00     0.003 C 
HETATM   15  C   UNL     1      43.253 -16.801   1.988  1.00  0.00     0.000 C 
HETATM   16  C   UNL     1      42.035 -17.096   2.861  1.00  0.00     0.003 C 
HETATM   17  O   UNL     1      43.095 -13.779   5.789  1.00  0.00    -0.268 OA
ENDBRANCH   2   5
BRANCH   1  18
HETATM   18  C   UNL     1      41.133 -10.221   7.181  1.00  0.00     0.121 A 
HETATM   19  C   UNL     1      42.078  -9.436   7.815  1.00  0.00     0.066 A 
HETATM   20  C   UNL     1      41.420  -8.866   8.933  1.00  0.00     0.061 A 
HETATM   21  N   UNL     1      40.163  -9.320   9.028  1.00  0.00    -0.178 NA
HETATM   22  N   UNL     1      40.017 -10.125   7.965  1.00  0.00    -0.272 N 
HETATM   23  H   UNL     1      39.121 -10.579   7.810  1.00  0.00     0.189 HD
BRANCH  20  24
HETATM   24  C   UNL     1      41.914  -7.864   9.949  1.00  0.00     0.039 C 
HETATM   25  C   UNL     1      41.151  -7.943  11.280  1.00  0.00     0.011 C 
HETATM   26  C   UNL     1      41.663  -9.037  12.212  1.00  0.00     0.001 C 
HETATM   27  C   UNL     1      43.161  -8.901  12.457  1.00  0.00     0.000 C 
HETATM   28  C   UNL     1      43.945  -8.923  11.151  1.00  0.00     0.001 C 
HETATM   29  C   UNL     1      43.441  -7.881  10.152  1.00  0.00     0.011 C 
ENDBRANCH  20  24
ENDBRANCH   1  18
TORSDOF 3
ENDMDL
MODEL 8
REMARK VINA RESULT:      -7.8      7.571      9.498
REMARK  3 active torsions:
REMARK  status: ('A' for Active; 'I' for Inactive)
REMARK    1  A    between atoms: C_2  and  C_3 
REMARK       I    between atoms: C_3  and  N_4 
REMARK    2  A    between atoms: N_4  and  N_5 
REMARK    3  A    between atoms: C_21  and  C_22 
ROOT
HETATM    1  C   UNL     1      42.352 -10.926   6.428  1.00  0.00     0.288 C 
HETATM    2  N   UNL     1      41.732 -12.157   6.511  1.00  0.00    -0.251 N 
HETATM    3  O   UNL     1      42.963 -10.547   5.431  1.00  0.00    -0.264 OA
HETATM    4  H   UNL     1      41.457 -12.516   7.417  1.00  0.00     0.191 HD
ENDROOT
BRANCH   2   5
HETATM    5  N   UNL     1      42.113 -13.127   5.596  1.00  0.00    -0.167 N 
HETATM    6  C   UNL     1      43.095 -14.040   5.865  1.00  0.00     0.345 C 
HETATM    7  O   UNL     1      43.771 -14.122   6.876  1.00  0.00    -0.245 OA
HETATM    8  N   UNL     1      43.152 -14.921   4.807  1.00  0.00    -0.323 N 
HETATM    9  C   UNL     1      42.181 -14.603   3.771  1.00  0.00     0.117 C 
HETATM   10  H   UNL     1      43.822 -15.679   4.791  1.00  0.00     0.165 HD
HETATM   11  C   UNL     1      41.231 -15.774   3.508  1.00  0.00     0.041 C 
HETATM   12  C   UNL     1      42.879 -14.125   2.494  1.00  0.00     0.041 C 
HETATM   13  C   UNL     1      41.426 -13.431   4.445  1.00  0.00     0.275 C 
HETATM   14  C   UNL     1      41.918 -16.915   2.758  1.00  0.00     0.003 C 
HETATM   15  C   UNL     1      42.593 -16.425   1.480  1.00  0.00     0.000 C 
HETATM   16  C   UNL     1      43.560 -15.274   1.751  1.00  0.00     0.003 C 
HETATM   17  O   UNL     1      40.405 -12.908   4.020  1.00  0.00    -0.268 OA
ENDBRANCH   2   5
BRANCH   1  18
HETATM   18  C   UNL     1      42.266 -10.122   7.621  1.00  0.00     0.121 A 
HETATM   19  C   UNL     1      43.202  -9.620   8.505  1.00  0.00     0.066 A 
HETATM   20  C   UNL     1      42.479  -8.811   9.417  1.00  0.00     0.061 A 
HETATM   21  N   UNL     1      41.165  -8.861   9.158  1.00  0.00    -0.178 NA
HETATM   22  N   UNL     1      41.067  -9.648   8.077  1.00  0.00    -0.272 N 
HETATM   23  H   UNL     1      40.150  -9.820   7.676  1.00  0.00     0.189 HD
BRANCH  20  24
HETATM   24  C   UNL     1      42.969  -7.945  10.552  1.00  0.00     0.039 C 
HETATM   25  C   UNL     1      41.857  -7.075  11.158  1.00  0.00     0.011 C 
HETATM   26  C   UNL     1      40.998  -7.811  12.182  1.00  0.00     0.001 C 
HETATM   27  C   UNL     1      41.855  -8.433  13.279  1.00  0.00     0.000 C 
HETATM   28  C   UNL     1      42.901  -9.378  12.704  1.00  0.00     0.001 C 
HETATM   29  C   UNL     1      43.759  -8.711  11.628  1.00  0.00     0.011 C 
ENDBRANCH  20  24
ENDBRANCH   1  18
TORSDOF 3
ENDMDL
MODEL 9
REMARK VINA RESULT:      -7.7     15.072     19.261
REMARK  3 active torsions:
REMARK  status: ('A' for Active; 'I' for Inactive)
REMARK    1  A    between atoms: C_2  and  C_3 
REMARK       I    between atoms: C_3  and  N_4 
REMARK    2  A    between atoms: N_4  and  N_5 
REMARK    3  A    between atoms: C_21  and  C_22 
ROOT
HETATM    1  C   UNL     1      49.058 -30.335   0.901  1.00  0.00     0.288 C 
HETATM    2  N   UNL     1      48.527 -31.310   1.720  1.00  0.00    -0.251 N 
HETATM    3  O   UNL     1      50.259 -30.075   0.857  1.00  0.00    -0.264 OA
HETATM    4  H   UNL     1      47.530 -31.323   1.899  1.00  0.00     0.191 HD
ENDROOT
BRANCH   2   5
HETATM    5  N   UNL     1      49.309 -31.753   2.778  1.00  0.00    -0.167 N 
HETATM    6  C   UNL     1      50.251 -32.732   2.629  1.00  0.00     0.345 C 
HETATM    7  O   UNL     1      50.517 -33.355   1.614  1.00  0.00    -0.245 OA
HETATM    8  N   UNL     1      50.920 -32.859   3.827  1.00  0.00    -0.323 N 
HETATM    9  C   UNL     1      50.420 -31.939   4.837  1.00  0.00     0.117 C 
HETATM   10  H   UNL     1      51.660 -33.539   3.946  1.00  0.00     0.165 HD
HETATM   11  C   UNL     1      51.527 -31.021   5.364  1.00  0.00     0.041 C 
HETATM   12  C   UNL     1      49.711 -32.697   5.963  1.00  0.00     0.041 C 
HETATM   13  C   UNL     1      49.397 -31.133   4.001  1.00  0.00     0.275 C 
HETATM   14  C   UNL     1      52.505 -31.764   6.274  1.00  0.00     0.003 C 
HETATM   15  C   UNL     1      51.784 -32.498   7.400  1.00  0.00     0.000 C 
HETATM   16  C   UNL     1      50.699 -33.433   6.868  1.00  0.00     0.003 C 
HETATM   17  O   UNL     1      48.809 -30.129   4.377  1.00  0.00    -0.268 OA
ENDBRANCH   2   5
BRANCH   1  18
HETATM   18  C   UNL     1      48.091 -29.608   0.118  1.00  0.00     0.121 A 
HETATM   19  C   UNL     1      46.779 -29.848  -0.243  1.00  0.00     0.066 A 
HETATM   20  C   UNL     1      46.350 -28.689  -0.936  1.00  0.00     0.061 A 
HETATM   21  N   UNL     1      47.353 -27.809  -1.059  1.00  0.00    -0.178 NA
HETATM   22  N   UNL     1      48.381 -28.382  -0.415  1.00  0.00    -0.272 N 
HETATM   23  H   UNL     1      49.264 -27.884  -0.355  1.00  0.00     0.189 HD
BRANCH  20  24
HETATM   24  C   UNL     1      44.993 -28.335  -1.497  1.00  0.00     0.039 C 
HETATM   25  C   UNL     1      45.079 -27.658  -2.874  1.00  0.00     0.011 C 
HETATM   26  C   UNL     1      45.224 -28.644  -4.029  1.00  0.00     0.001 C 
HETATM   27  C   UNL     1      44.113 -29.687  -4.010  1.00  0.00     0.000 C 
HETATM   28  C   UNL     1      44.077 -30.441  -2.687  1.00  0.00     0.001 C 
HETATM   29  C   UNL     1      43.988 -29.501  -1.484  1.00  0.00     0.011 C 
ENDBRANCH  20  24
ENDBRANCH   1  18
TORSDOF 3
ENDMDL
MODEL 10
REMARK VINA RESULT:      -7.6      1.724      9.281
REMARK  3 active torsions:
REMARK  status: ('A' for Active; 'I' for Inactive)
REMARK    1  A    between atoms: C_2  and  C_3 
REMARK       I    between atoms: C_3  and  N_4 
REMARK    2  A    between atoms: N_4  and  N_5 
REMARK    3  A    between atoms: C_21  and  C_22 
ROOT
HETATM    1  C   UNL     1      41.212 -13.047   0.628  1.00  0.00     0.288 C 
HETATM    2  N   UNL     1      41.398 -14.395   0.395  1.00  0.00    -0.251 N 
HETATM    3  O   UNL     1      41.612 -12.480   1.643  1.00  0.00    -0.264 OA
HETATM    4  H   UNL     1      40.852 -14.856  -0.322  1.00  0.00     0.191 HD
ENDROOT
BRANCH   2   5
HETATM    5  N   UNL     1      41.715 -15.195   1.484  1.00  0.00    -0.167 N 
HETATM    6  C   UNL     1      40.769 -15.910   2.164  1.00  0.00     0.345 C 
HETATM    7  O   UNL     1      39.568 -15.935   1.955  1.00  0.00    -0.245 OA
HETATM    8  N   UNL     1      41.419 -16.676   3.108  1.00  0.00    -0.323 N 
HETATM    9  C   UNL     1      42.860 -16.479   3.081  1.00  0.00     0.117 C 
HETATM   10  H   UNL     1      40.906 -17.281   3.736  1.00  0.00     0.165 HD
HETATM   11  C   UNL     1      43.607 -17.792   2.832  1.00  0.00     0.041 C 
HETATM   12  C   UNL     1      43.339 -15.771   4.352  1.00  0.00     0.041 C 
HETATM   13  C   UNL     1      42.992 -15.538   1.859  1.00  0.00     0.275 C 
HETATM   14  C   UNL     1      43.579 -18.709   4.055  1.00  0.00     0.003 C 
HETATM   15  C   UNL     1      44.076 -17.995   5.308  1.00  0.00     0.000 C 
HETATM   16  C   UNL     1      43.310 -16.699   5.567  1.00  0.00     0.003 C 
HETATM   17  O   UNL     1      44.044 -15.199   1.336  1.00  0.00    -0.268 OA
ENDBRANCH   2   5
BRANCH   1  18
HETATM   18  C   UNL     1      40.476 -12.350  -0.395  1.00  0.00     0.121 A 
HETATM   19  C   UNL     1      40.833 -11.461  -1.391  1.00  0.00     0.066 A 
HETATM   20  C   UNL     1      39.652 -11.222  -2.138  1.00  0.00     0.061 A 
HETATM   21  N   UNL     1      38.610 -11.868  -1.599  1.00  0.00    -0.178 NA
HETATM   22  N   UNL     1      39.131 -12.538  -0.561  1.00  0.00    -0.272 N 
HETATM   23  H   UNL     1      38.524 -13.128  -0.000  1.00  0.00     0.189 HD
BRANCH  20  24
HETATM   24  C   UNL     1      39.439 -10.404  -3.389  1.00  0.00     0.039 C 
HETATM   25  C   UNL     1      38.184  -9.520  -3.314  1.00  0.00     0.011 C 
HETATM   26  C   UNL     1      38.409  -8.205  -2.575  1.00  0.00     0.001 C 
HETATM   27  C   UNL     1      39.579  -7.429  -3.167  1.00  0.00     0.000 C 
HETATM   28  C   UNL     1      40.859  -8.254  -3.158  1.00  0.00     0.001 C 
HETATM   29  C   UNL     1      40.681  -9.612  -3.838  1.00  0.00     0.011 C 
ENDBRANCH  20  24
ENDBRANCH   1  18
TORSDOF 3
ENDMDL
