MODEL 1
REMARK VINA RESULT:      -7.9      0.000      0.000
REMARK  4 active torsions:
REMARK  status: ('A' for Active; 'I' for Inactive)
REMARK    1  A    between atoms: C_4  and  N_5 
REMARK    2  A    between atoms: N_5  and  N_6 
REMARK    3  A    between atoms: C_7  and  C_8 
REMARK    4  A    between atoms: C_9  and  O_10 
ROOT
HETATM    1  N   UNL     1      40.378 -15.616   1.580  1.00  0.00    -0.172 NA
HETATM    2  C   UNL     1      41.412 -15.229   2.262  1.00  0.00     0.153 C 
ENDROOT
BRANCH   1   3
HETATM    3  N   UNL     1      39.671 -14.599   1.010  1.00  0.00    -0.108 N 
HETATM    4  H   UNL     1      39.012 -14.041   1.550  1.00  0.00     0.208 HD
BRANCH   3   5
HETATM    5  C   UNL     1      39.734 -14.207  -0.302  1.00  0.00     0.723 A 
HETATM    6  N   UNL     1      40.475 -13.198  -0.654  1.00  0.00    -0.068 NA
HETATM    7  C   UNL     1      40.491 -12.847  -1.983  1.00  0.00     0.055 A 
HETATM    8  C   UNL     1      41.349 -11.666  -2.340  1.00  0.00     0.071 C 
HETATM    9  C   UNL     1      39.789 -13.480  -2.933  1.00  0.00     0.102 A 
HETATM   10  C   UNL     1      38.962 -14.626  -2.533  1.00  0.00     0.261 A 
HETATM   11  N   UNL     1      38.992 -14.914  -1.205  1.00  0.00    -0.153 N 
HETATM   12  O   UNL     1      38.305 -15.257  -3.351  1.00  0.00    -0.268 OA
HETATM   13  H   UNL     1      38.443 -15.687  -0.869  1.00  0.00     0.187 HD
ENDBRANCH   3   5
ENDBRANCH   1   3
BRANCH   2  14
HETATM   14  C   UNL     1      42.299 -16.193   2.948  1.00  0.00     0.019 A 
HETATM   15  C   UNL     1      42.948 -15.894   4.156  1.00  0.00     0.094 A 
HETATM   16  C   UNL     1      43.773 -16.855   4.754  1.00  0.00     0.046 A 
HETATM   17 BR   UNL     1      44.677 -16.510   6.386  1.00  0.00    -0.048 Br
HETATM   18  C   UNL     1      43.951 -18.103   4.154  1.00  0.00     0.041 A 
HETATM   19  C   UNL     1      43.302 -18.390   2.955  1.00  0.00     0.013 A 
HETATM   20 BR   UNL     1      43.540 -20.080   2.143  1.00  0.00    -0.051 Br
HETATM   21  C   UNL     1      42.477 -17.445   2.347  1.00  0.00     0.035 A 
BRANCH  15  22
HETATM   22  O   UNL     1      42.797 -14.680   4.773  1.00  0.00    -0.358 OA
HETATM   23  H   UNL     1      41.845 -14.555   4.966  1.00  0.00     0.218 HD
ENDBRANCH  15  22
ENDBRANCH   2  14
TORSDOF 4
ENDMDL
MODEL 2
REMARK VINA RESULT:      -7.7      1.309      1.944
REMARK  4 active torsions:
REMARK  status: ('A' for Active; 'I' for Inactive)
REMARK    1  A    between atoms: C_4  and  N_5 
REMARK    2  A    between atoms: N_5  and  N_6 
REMARK    3  A    between atoms: C_7  and  C_8 
REMARK    4  A    between atoms: C_9  and  O_10 
ROOT
HETATM    1  N   UNL     1      41.130 -14.889   1.606  1.00  0.00    -0.172 NA
HETATM    2  C   UNL     1      40.954 -16.099   2.041  1.00  0.00     0.153 C 
ENDROOT
BRANCH   1   3
HETATM    3  N   UNL     1      40.047 -14.360   0.968  1.00  0.00    -0.108 N 
HETATM    4  H   UNL     1      39.154 -14.245   1.443  1.00  0.00     0.208 HD
BRANCH   3   5
HETATM    5  C   UNL     1      40.003 -13.938  -0.335  1.00  0.00     0.723 A 
HETATM    6  N   UNL     1      39.230 -14.532  -1.195  1.00  0.00    -0.068 NA
HETATM    7  C   UNL     1      39.235 -14.069  -2.490  1.00  0.00     0.055 A 
HETATM    8  C   UNL     1      38.339 -14.796  -3.451  1.00  0.00     0.071 C 
HETATM    9  C   UNL     1      39.988 -13.045  -2.915  1.00  0.00     0.102 A 
HETATM   10  C   UNL     1      40.851 -12.369  -1.938  1.00  0.00     0.261 A 
HETATM   11  N   UNL     1      40.798 -12.882  -0.680  1.00  0.00    -0.153 N 
HETATM   12  O   UNL     1      41.556 -11.420  -2.255  1.00  0.00    -0.268 OA
HETATM   13  H   UNL     1      41.370 -12.463   0.034  1.00  0.00     0.187 HD
ENDBRANCH   3   5
ENDBRANCH   1   3
BRANCH   2  14
HETATM   14  C   UNL     1      42.019 -16.831   2.761  1.00  0.00     0.019 A 
HETATM   15  C   UNL     1      42.611 -16.341   3.934  1.00  0.00     0.094 A 
HETATM   16  C   UNL     1      43.613 -17.086   4.567  1.00  0.00     0.046 A 
HETATM   17 BR   UNL     1      44.451 -16.475   6.156  1.00  0.00    -0.048 Br
HETATM   18  C   UNL     1      44.023 -18.311   4.036  1.00  0.00     0.041 A 
HETATM   19  C   UNL     1      43.428 -18.789   2.871  1.00  0.00     0.013 A 
HETATM   20 BR   UNL     1      43.980 -20.448   2.151  1.00  0.00    -0.051 Br
HETATM   21  C   UNL     1      42.429 -18.059   2.228  1.00  0.00     0.035 A 
BRANCH  15  22
HETATM   22  O   UNL     1      42.235 -15.143   4.484  1.00  0.00    -0.358 OA
HETATM   23  H   UNL     1      41.449 -15.302   5.048  1.00  0.00     0.218 HD
ENDBRANCH  15  22
ENDBRANCH   2  14
TORSDOF 4
ENDMDL
MODEL 3
REMARK VINA RESULT:      -7.1      3.758      7.620
REMARK  4 active torsions:
REMARK  status: ('A' for Active; 'I' for Inactive)
REMARK    1  A    between atoms: C_4  and  N_5 
REMARK    2  A    between atoms: N_5  and  N_6 
REMARK    3  A    between atoms: C_7  and  C_8 
REMARK    4  A    between atoms: C_9  and  O_10 
ROOT
HETATM    1  N   UNL     1      40.870 -15.673   1.692  1.00  0.00    -0.172 NA
HETATM    2  C   UNL     1      40.640 -14.404   1.546  1.00  0.00     0.153 C 
ENDROOT
BRANCH   1   3
HETATM    3  N   UNL     1      41.086 -16.058   2.983  1.00  0.00    -0.108 N 
HETATM    4  H   UNL     1      40.417 -15.845   3.721  1.00  0.00     0.208 HD
BRANCH   3   5
HETATM    5  C   UNL     1      42.178 -16.742   3.450  1.00  0.00     0.723 A 
HETATM    6  N   UNL     1      42.776 -16.363   4.542  1.00  0.00    -0.068 NA
HETATM    7  C   UNL     1      43.871 -17.083   4.956  1.00  0.00     0.055 A 
HETATM    8  C   UNL     1      44.538 -16.599   6.213  1.00  0.00     0.071 C 
HETATM    9  C   UNL     1      44.357 -18.148   4.304  1.00  0.00     0.102 A 
HETATM   10  C   UNL     1      43.672 -18.579   3.079  1.00  0.00     0.261 A 
HETATM   11  N   UNL     1      42.601 -17.820   2.727  1.00  0.00    -0.153 N 
HETATM   12  O   UNL     1      44.056 -19.550   2.439  1.00  0.00    -0.268 OA
HETATM   13  H   UNL     1      42.093 -18.064   1.895  1.00  0.00     0.187 HD
ENDBRANCH   3   5
ENDBRANCH   1   3
BRANCH   2  14
HETATM   14  C   UNL     1      40.380 -13.807   0.218  1.00  0.00     0.019 A 
HETATM   15  C   UNL     1      39.616 -14.455  -0.764  1.00  0.00     0.094 A 
HETATM   16  C   UNL     1      39.406 -13.832  -2.000  1.00  0.00     0.046 A 
HETATM   17 BR   UNL     1      38.382 -14.658  -3.367  1.00  0.00    -0.048 Br
HETATM   18  C   UNL     1      39.953 -12.574  -2.257  1.00  0.00     0.041 A 
HETATM   19  C   UNL     1      40.711 -11.938  -1.275  1.00  0.00     0.013 A 
HETATM   20 BR   UNL     1      41.451 -10.234  -1.621  1.00  0.00    -0.051 Br
HETATM   21  C   UNL     1      40.929 -12.545  -0.039  1.00  0.00     0.035 A 
BRANCH  15  22
HETATM   22  O   UNL     1      39.063 -15.690  -0.547  1.00  0.00    -0.358 OA
HETATM   23  H   UNL     1      39.657 -16.362  -0.941  1.00  0.00     0.218 HD
ENDBRANCH  15  22
ENDBRANCH   2  14
TORSDOF 4
ENDMDL
MODEL 4
REMARK VINA RESULT:      -7.0      1.456      2.481
REMARK  4 active torsions:
REMARK  status: ('A' for Active; 'I' for Inactive)
REMARK    1  A    between atoms: C_4  and  N_5 
REMARK    2  A    between atoms: N_5  and  N_6 
REMARK    3  A    between atoms: C_7  and  C_8 
REMARK    4  A    between atoms: C_9  and  O_10 
ROOT
HETATM    1  N   UNL     1      40.490 -14.264   2.077  1.00  0.00    -0.172 NA
HETATM    2  C   UNL     1      40.770 -15.498   2.365  1.00  0.00     0.153 C 
ENDROOT
BRANCH   1   3
HETATM    3  N   UNL     1      39.496 -14.115   1.155  1.00  0.00    -0.108 N 
HETATM    4  H   UNL     1      38.514 -14.193   1.414  1.00  0.00     0.208 HD
BRANCH   3   5
HETATM    5  C   UNL     1      39.665 -13.861  -0.181  1.00  0.00     0.723 A 
HETATM    6  N   UNL     1      40.423 -12.880  -0.575  1.00  0.00    -0.068 NA
HETATM    7  C   UNL     1      40.546 -12.669  -1.928  1.00  0.00     0.055 A 
HETATM    8  C   UNL     1      41.419 -11.516  -2.335  1.00  0.00     0.071 C 
HETATM    9  C   UNL     1      39.933 -13.411  -2.860  1.00  0.00     0.102 A 
HETATM   10  C   UNL     1      39.088 -14.524  -2.411  1.00  0.00     0.261 A 
HETATM   11  N   UNL     1      39.009 -14.672  -1.062  1.00  0.00    -0.153 N 
HETATM   12  O   UNL     1      38.507 -15.249  -3.209  1.00  0.00    -0.268 OA
HETATM   13  H   UNL     1      38.442 -15.416  -0.693  1.00  0.00     0.187 HD
ENDBRANCH   3   5
ENDBRANCH   1   3
BRANCH   2  14
HETATM   14  C   UNL     1      41.818 -15.852   3.347  1.00  0.00     0.019 A 
HETATM   15  C   UNL     1      42.521 -17.065   3.296  1.00  0.00     0.094 A 
HETATM   16  C   UNL     1      43.503 -17.335   4.256  1.00  0.00     0.046 A 
HETATM   17 BR   UNL     1      44.488 -18.957   4.240  1.00  0.00    -0.048 Br
HETATM   18  C   UNL     1      43.783 -16.406   5.260  1.00  0.00     0.041 A 
HETATM   19  C   UNL     1      43.079 -15.204   5.302  1.00  0.00     0.013 A 
HETATM   20 BR   UNL     1      43.458 -13.945   6.659  1.00  0.00    -0.051 Br
HETATM   21  C   UNL     1      42.098 -14.920   4.353  1.00  0.00     0.035 A 
BRANCH  15  22
HETATM   22  O   UNL     1      42.274 -18.000   2.326  1.00  0.00    -0.358 OA
HETATM   23  H   UNL     1      42.435 -17.583   1.454  1.00  0.00     0.218 HD
ENDBRANCH  15  22
ENDBRANCH   2  14
TORSDOF 4
ENDMDL
MODEL 5
REMARK VINA RESULT:      -7.0      3.856      7.536
REMARK  4 active torsions:
REMARK  status: ('A' for Active; 'I' for Inactive)
REMARK    1  A    between atoms: C_4  and  N_5 
REMARK    2  A    between atoms: N_5  and  N_6 
REMARK    3  A    between atoms: C_7  and  C_8 
REMARK    4  A    between atoms: C_9  and  O_10 
ROOT
HETATM    1  N   UNL     1      41.110 -15.590   1.351  1.00  0.00    -0.172 NA
HETATM    2  C   UNL     1      40.543 -14.422   1.317  1.00  0.00     0.153 C 
ENDROOT
BRANCH   1   3
HETATM    3  N   UNL     1      41.277 -16.094   2.607  1.00  0.00    -0.108 N 
HETATM    4  H   UNL     1      40.651 -15.842   3.369  1.00  0.00     0.208 HD
BRANCH   3   5
HETATM    5  C   UNL     1      42.262 -16.959   3.006  1.00  0.00     0.723 A 
HETATM    6  N   UNL     1      42.480 -18.060   2.347  1.00  0.00    -0.068 NA
HETATM    7  C   UNL     1      43.476 -18.892   2.801  1.00  0.00     0.055 A 
HETATM    8  C   UNL     1      43.680 -20.158   2.018  1.00  0.00     0.071 C 
HETATM    9  C   UNL     1      44.232 -18.637   3.877  1.00  0.00     0.102 A 
HETATM   10  C   UNL     1      43.991 -17.388   4.611  1.00  0.00     0.261 A 
HETATM   11  N   UNL     1      42.990 -16.617   4.109  1.00  0.00    -0.153 N 
HETATM   12  O   UNL     1      44.652 -17.086   5.596  1.00  0.00    -0.268 OA
HETATM   13  H   UNL     1      42.775 -15.749   4.571  1.00  0.00     0.187 HD
ENDBRANCH   3   5
ENDBRANCH   1   3
BRANCH   2  14
HETATM   14  C   UNL     1      40.277 -13.722   0.042  1.00  0.00     0.019 A 
HETATM   15  C   UNL     1      40.735 -12.420  -0.214  1.00  0.00     0.094 A 
HETATM   16  C   UNL     1      40.450 -11.816  -1.444  1.00  0.00     0.046 A 
HETATM   17 BR   UNL     1      41.041 -10.059  -1.848  1.00  0.00    -0.048 Br
HETATM   18  C   UNL     1      39.714 -12.501  -2.413  1.00  0.00     0.041 A 
HETATM   19  C   UNL     1      39.265 -13.794  -2.149  1.00  0.00     0.013 A 
HETATM   20 BR   UNL     1      38.270 -14.724  -3.460  1.00  0.00    -0.051 Br
HETATM   21  C   UNL     1      39.540 -14.410  -0.929  1.00  0.00     0.035 A 
BRANCH  15  22
HETATM   22  O   UNL     1      41.459 -11.717   0.713  1.00  0.00    -0.358 OA
HETATM   23  H   UNL     1      41.306 -10.762   0.558  1.00  0.00     0.218 HD
ENDBRANCH  15  22
ENDBRANCH   2  14
TORSDOF 4
ENDMDL
MODEL 6
REMARK VINA RESULT:      -6.8      2.144      3.053
REMARK  4 active torsions:
REMARK  status: ('A' for Active; 'I' for Inactive)
REMARK    1  A    between atoms: C_4  and  N_5 
REMARK    2  A    between atoms: N_5  and  N_6 
REMARK    3  A    between atoms: C_7  and  C_8 
REMARK    4  A    between atoms: C_9  and  O_10 
ROOT
HETATM    1  N   UNL     1      40.266 -15.846   1.595  1.00  0.00    -0.172 NA
HETATM    2  C   UNL     1      41.530 -15.580   1.728  1.00  0.00     0.153 C 
ENDROOT
BRANCH   1   3
HETATM    3  N   UNL     1      39.726 -15.425   0.416  1.00  0.00    -0.108 N 
HETATM    4  H   UNL     1      39.228 -16.066  -0.200  1.00  0.00     0.208 HD
BRANCH   3   5
HETATM    5  C   UNL     1      39.779 -14.152  -0.089  1.00  0.00     0.723 A 
HETATM    6  N   UNL     1      40.338 -13.922  -1.241  1.00  0.00    -0.068 NA
HETATM    7  C   UNL     1      40.368 -12.623  -1.690  1.00  0.00     0.055 A 
HETATM    8  C   UNL     1      41.037 -12.403  -3.018  1.00  0.00     0.071 C 
HETATM    9  C   UNL     1      39.857 -11.585  -1.014  1.00  0.00     0.102 A 
HETATM   10  C   UNL     1      39.218 -11.851   0.280  1.00  0.00     0.261 A 
HETATM   11  N   UNL     1      39.228 -13.155   0.663  1.00  0.00    -0.153 N 
HETATM   12  O   UNL     1      38.721 -10.951   0.946  1.00  0.00    -0.268 OA
HETATM   13  H   UNL     1      38.807 -13.400   1.544  1.00  0.00     0.187 HD
ENDBRANCH   3   5
ENDBRANCH   1   3
BRANCH   2  14
HETATM   14  C   UNL     1      42.284 -15.965   2.940  1.00  0.00     0.019 A 
HETATM   15  C   UNL     1      42.796 -17.257   3.133  1.00  0.00     0.094 A 
HETATM   16  C   UNL     1      43.503 -17.554   4.303  1.00  0.00     0.046 A 
HETATM   17 BR   UNL     1      44.219 -19.282   4.620  1.00  0.00    -0.048 Br
HETATM   18  C   UNL     1      43.700 -16.572   5.276  1.00  0.00     0.041 A 
HETATM   19  C   UNL     1      43.188 -15.292   5.076  1.00  0.00     0.013 A 
HETATM   20 BR   UNL     1      43.455 -13.961   6.391  1.00  0.00    -0.051 Br
HETATM   21  C   UNL     1      42.481 -14.980   3.915  1.00  0.00     0.035 A 
BRANCH  15  22
HETATM   22  O   UNL     1      42.622 -18.246   2.200  1.00  0.00    -0.358 OA
HETATM   23  H   UNL     1      42.618 -17.829   1.313  1.00  0.00     0.218 HD
ENDBRANCH  15  22
ENDBRANCH   2  14
TORSDOF 4
ENDMDL
MODEL 7
REMARK VINA RESULT:      -6.8      1.940      3.185
REMARK  4 active torsions:
REMARK  status: ('A' for Active; 'I' for Inactive)
REMARK    1  A    between atoms: C_4  and  N_5 
REMARK    2  A    between atoms: N_5  and  N_6 
REMARK    3  A    between atoms: C_7  and  C_8 
REMARK    4  A    between atoms: C_9  and  O_10 
ROOT
HETATM    1  N   UNL     1      41.490 -14.083   1.558  1.00  0.00    -0.172 NA
HETATM    2  C   UNL     1      42.401 -13.942   2.473  1.00  0.00     0.153 C 
ENDROOT
BRANCH   1   3
HETATM    3  N   UNL     1      41.278 -12.968   0.802  1.00  0.00    -0.108 N 
HETATM    4  H   UNL     1      41.488 -12.037   1.158  1.00  0.00     0.208 HD
BRANCH   3   5
HETATM    5  C   UNL     1      40.774 -12.939  -0.472  1.00  0.00     0.723 A 
HETATM    6  N   UNL     1      40.062 -13.930  -0.922  1.00  0.00    -0.068 NA
HETATM    7  C   UNL     1      39.591 -13.848  -2.211  1.00  0.00     0.055 A 
HETATM    8  C   UNL     1      38.788 -15.022  -2.693  1.00  0.00     0.071 C 
HETATM    9  C   UNL     1      39.822 -12.810  -3.027  1.00  0.00     0.102 A 
HETATM   10  C   UNL     1      40.616 -11.689  -2.511  1.00  0.00     0.261 A 
HETATM   11  N   UNL     1      41.052 -11.840  -1.232  1.00  0.00    -0.153 N 
HETATM   12  O   UNL     1      40.856 -10.704  -3.198  1.00  0.00    -0.268 OA
HETATM   13  H   UNL     1      41.604 -11.105  -0.823  1.00  0.00     0.187 HD
ENDBRANCH   3   5
ENDBRANCH   1   3
BRANCH   2  14
HETATM   14  C   UNL     1      42.768 -15.047   3.385  1.00  0.00     0.019 A 
HETATM   15  C   UNL     1      43.163 -16.310   2.920  1.00  0.00     0.094 A 
HETATM   16  C   UNL     1      43.499 -17.311   3.838  1.00  0.00     0.046 A 
HETATM   17 BR   UNL     1      44.042 -19.039   3.270  1.00  0.00    -0.048 Br
HETATM   18  C   UNL     1      43.442 -17.058   5.210  1.00  0.00     0.041 A 
HETATM   19  C   UNL     1      43.048 -15.801   5.662  1.00  0.00     0.013 A 
HETATM   20 BR   UNL     1      42.970 -15.456   7.519  1.00  0.00    -0.051 Br
HETATM   21  C   UNL     1      42.709 -14.792   4.760  1.00  0.00     0.035 A 
BRANCH  15  22
HETATM   22  O   UNL     1      43.232 -16.595   1.581  1.00  0.00    -0.358 OA
HETATM   23  H   UNL     1      44.135 -16.377   1.270  1.00  0.00     0.218 HD
ENDBRANCH  15  22
ENDBRANCH   2  14
TORSDOF 4
ENDMDL
MODEL 8
REMARK VINA RESULT:      -6.8      4.131      7.563
REMARK  4 active torsions:
REMARK  status: ('A' for Active; 'I' for Inactive)
REMARK    1  A    between atoms: C_4  and  N_5 
REMARK    2  A    between atoms: N_5  and  N_6 
REMARK    3  A    between atoms: C_7  and  C_8 
REMARK    4  A    between atoms: C_9  and  O_10 
ROOT
HETATM    1  N   UNL     1      40.324 -15.747   2.142  1.00  0.00    -0.172 NA
HETATM    2  C   UNL     1      40.836 -15.012   1.202  1.00  0.00     0.153 C 
ENDROOT
BRANCH   1   3
HETATM    3  N   UNL     1      41.240 -16.464   2.853  1.00  0.00    -0.108 N 
HETATM    4  H   UNL     1      41.804 -17.190   2.415  1.00  0.00     0.208 HD
BRANCH   3   5
HETATM    5  C   UNL     1      41.514 -16.326   4.189  1.00  0.00     0.723 A 
HETATM    6  N   UNL     1      42.740 -16.387   4.620  1.00  0.00    -0.068 NA
HETATM    7  C   UNL     1      42.952 -16.250   5.971  1.00  0.00     0.055 A 
HETATM    8  C   UNL     1      44.382 -16.344   6.424  1.00  0.00     0.071 C 
HETATM    9  C   UNL     1      41.974 -16.058   6.866  1.00  0.00     0.102 A 
HETATM   10  C   UNL     1      40.593 -15.977   6.374  1.00  0.00     0.261 A 
HETATM   11  N   UNL     1      40.458 -16.125   5.030  1.00  0.00    -0.153 N 
HETATM   12  O   UNL     1      39.652 -15.792   7.135  1.00  0.00    -0.268 OA
HETATM   13  H   UNL     1      39.535 -16.083   4.633  1.00  0.00     0.187 HD
ENDBRANCH   3   5
ENDBRANCH   1   3
BRANCH   2  14
HETATM   14  C   UNL     1      39.995 -14.164   0.330  1.00  0.00     0.019 A 
HETATM   15  C   UNL     1      39.584 -12.875   0.702  1.00  0.00     0.094 A 
HETATM   16  C   UNL     1      38.790 -12.123  -0.173  1.00  0.00     0.046 A 
HETATM   17 BR   UNL     1      38.203 -10.375   0.273  1.00  0.00    -0.048 Br
HETATM   18  C   UNL     1      38.407 -12.651  -1.407  1.00  0.00     0.041 A 
HETATM   19  C   UNL     1      38.820 -13.932  -1.767  1.00  0.00     0.013 A 
HETATM   20 BR   UNL     1      38.303 -14.647  -3.439  1.00  0.00    -0.051 Br
HETATM   21  C   UNL     1      39.611 -14.693  -0.908  1.00  0.00     0.035 A 
BRANCH  15  22
HETATM   22  O   UNL     1      39.941 -12.324   1.905  1.00  0.00    -0.358 OA
HETATM   23  H   UNL     1      39.818 -13.005   2.599  1.00  0.00     0.218 HD
ENDBRANCH  15  22
ENDBRANCH   2  14
TORSDOF 4
ENDMDL
MODEL 9
REMARK VINA RESULT:      -6.7      5.965      8.673
REMARK  4 active torsions:
REMARK  status: ('A' for Active; 'I' for Inactive)
REMARK    1  A    between atoms: C_4  and  N_5 
REMARK    2  A    between atoms: N_5  and  N_6 
REMARK    3  A    between atoms: C_7  and  C_8 
REMARK    4  A    between atoms: C_9  and  O_10 
ROOT
HETATM    1  N   UNL     1      43.019 -12.786   6.515  1.00  0.00    -0.172 NA
HETATM    2  C   UNL     1      42.006 -13.201   5.818  1.00  0.00     0.153 C 
ENDROOT
BRANCH   1   3
HETATM    3  N   UNL     1      42.778 -11.652   7.232  1.00  0.00    -0.108 N 
HETATM    4  H   UNL     1      41.871 -11.188   7.206  1.00  0.00     0.208 HD
BRANCH   3   5
HETATM    5  C   UNL     1      43.672 -11.002   8.043  1.00  0.00     0.723 A 
HETATM    6  N   UNL     1      44.769 -10.506   7.551  1.00  0.00    -0.068 NA
HETATM    7  C   UNL     1      45.631  -9.874   8.416  1.00  0.00     0.055 A 
HETATM    8  C   UNL     1      46.892  -9.331   7.805  1.00  0.00     0.071 C 
HETATM    9  C   UNL     1      45.408  -9.740   9.730  1.00  0.00     0.102 A 
HETATM   10  C   UNL     1      44.163 -10.291  10.279  1.00  0.00     0.261 A 
HETATM   11  N   UNL     1      43.361 -10.905   9.369  1.00  0.00    -0.153 N 
HETATM   12  O   UNL     1      43.890 -10.194  11.469  1.00  0.00    -0.268 OA
HETATM   13  H   UNL     1      42.495 -11.306   9.686  1.00  0.00     0.187 HD
ENDBRANCH   3   5
ENDBRANCH   1   3
BRANCH   2  14
HETATM   14  C   UNL     1      42.082 -14.417   4.980  1.00  0.00     0.019 A 
HETATM   15  C   UNL     1      42.984 -15.459   5.243  1.00  0.00     0.094 A 
HETATM   16  C   UNL     1      43.002 -16.585   4.411  1.00  0.00     0.046 A 
HETATM   17 BR   UNL     1      44.200 -18.025   4.715  1.00  0.00    -0.048 Br
HETATM   18  C   UNL     1      42.129 -16.674   3.325  1.00  0.00     0.041 A 
HETATM   19  C   UNL     1      41.236 -15.634   3.073  1.00  0.00     0.013 A 
HETATM   20 BR   UNL     1      40.052 -15.753   1.604  1.00  0.00    -0.051 Br
HETATM   21  C   UNL     1      41.206 -14.506   3.892  1.00  0.00     0.035 A 
BRANCH  15  22
HETATM   22  O   UNL     1      43.856 -15.407   6.299  1.00  0.00    -0.358 OA
HETATM   23  H   UNL     1      44.423 -16.205   6.265  1.00  0.00     0.218 HD
ENDBRANCH  15  22
ENDBRANCH   2  14
TORSDOF 4
ENDMDL
MODEL 10
REMARK VINA RESULT:      -6.7      3.875      7.856
REMARK  4 active torsions:
REMARK  status: ('A' for Active; 'I' for Inactive)
REMARK    1  A    between atoms: C_4  and  N_5 
REMARK    2  A    between atoms: N_5  and  N_6 
REMARK    3  A    between atoms: C_7  and  C_8 
REMARK    4  A    between atoms: C_9  and  O_10 
ROOT
HETATM    1  N   UNL     1      40.433 -15.470   1.967  1.00  0.00    -0.172 NA
HETATM    2  C   UNL     1      41.180 -14.839   1.113  1.00  0.00     0.153 C 
ENDROOT
BRANCH   1   3
HETATM    3  N   UNL     1      41.116 -16.322   2.784  1.00  0.00    -0.108 N 
HETATM    4  H   UNL     1      41.569 -17.159   2.421  1.00  0.00     0.208 HD
BRANCH   3   5
HETATM    5  C   UNL     1      41.276 -16.189   4.139  1.00  0.00     0.723 A 
HETATM    6  N   UNL     1      42.178 -16.883   4.768  1.00  0.00    -0.068 NA
HETATM    7  C   UNL     1      42.285 -16.713   6.128  1.00  0.00     0.055 A 
HETATM    8  C   UNL     1      43.330 -17.547   6.813  1.00  0.00     0.071 C 
HETATM    9  C   UNL     1      41.518 -15.876   6.840  1.00  0.00     0.102 A 
HETATM   10  C   UNL     1      40.509 -15.086   6.124  1.00  0.00     0.261 A 
HETATM   11  N   UNL     1      40.456 -15.308   4.784  1.00  0.00    -0.153 N 
HETATM   12  O   UNL     1      39.782 -14.295   6.711  1.00  0.00    -0.268 OA
HETATM   13  H   UNL     1      39.782 -14.798   4.239  1.00  0.00     0.187 HD
ENDBRANCH   3   5
ENDBRANCH   1   3
BRANCH   2  14
HETATM   14  C   UNL     1      40.614 -13.871   0.149  1.00  0.00     0.019 A 
HETATM   15  C   UNL     1      39.592 -14.211  -0.750  1.00  0.00     0.094 A 
HETATM   16  C   UNL     1      39.099 -13.245  -1.635  1.00  0.00     0.046 A 
HETATM   17 BR   UNL     1      37.718 -13.645  -2.874  1.00  0.00    -0.048 Br
HETATM   18  C   UNL     1      39.620 -11.950  -1.627  1.00  0.00     0.041 A 
HETATM   19  C   UNL     1      40.635 -11.622  -0.730  1.00  0.00     0.013 A 
HETATM   20 BR   UNL     1      41.340  -9.868  -0.717  1.00  0.00    -0.051 Br
HETATM   21  C   UNL     1      41.136 -12.572   0.158  1.00  0.00     0.035 A 
BRANCH  15  22
HETATM   22  O   UNL     1      39.057 -15.472  -0.787  1.00  0.00    -0.358 OA
HETATM   23  H   UNL     1      38.106 -15.406  -0.559  1.00  0.00     0.218 HD
ENDBRANCH  15  22
ENDBRANCH   2  14
TORSDOF 4
ENDMDL
