MODEL 1
REMARK VINA RESULT:      -8.2      0.000      0.000
REMARK  8 active torsions:
REMARK  status: ('A' for Active; 'I' for Inactive)
REMARK    1  A    between atoms: C_3  and  N_4 
REMARK       I    between atoms: N_4  and  C_5 
REMARK    2  A    between atoms: C_5  and  C_6 
REMARK    3  A    between atoms: C_7  and  C_8 
REMARK    4  A    between atoms: C_17  and  C_18 
REMARK    5  A    between atoms: C_20  and  O_21 
REMARK    6  A    between atoms: C_23  and  O_24 
REMARK    7  A    between atoms: O_24  and  C_25 
REMARK    8  A    between atoms: C_25  and  C_26 
REMARK       I    between atoms: C_26  and  N_27 
ROOT
HETATM    1  C   UNL     1      43.253 -10.007   9.476  1.00  0.00     0.062 A 
HETATM    2  C   UNL     1      42.489 -10.081   8.179  1.00  0.00     0.176 A 
HETATM    3  N   UNL     1      43.342 -10.586   7.113  1.00  0.00    -0.277 N 
HETATM    4  C   UNL     1      44.659 -10.836   7.329  1.00  0.00     0.177 A 
HETATM    5  S   UNL     1      45.451 -11.368   5.877  1.00  0.00    -0.046 SA
HETATM    6  C   UNL     1      43.956 -11.445   5.011  1.00  0.00     0.077 C 
HETATM    7  C   UNL     1      43.885 -11.852   3.736  1.00  0.00     0.036 C 
HETATM    8  C   UNL     1      42.837 -11.018   5.909  1.00  0.00     0.267 C 
HETATM    9  O   UNL     1      41.650 -11.112   5.633  1.00  0.00    -0.266 OA
HETATM   10  N   UNL     1      45.281 -10.736   8.450  1.00  0.00    -0.228 NA
HETATM   11  C   UNL     1      44.562 -10.327   9.551  1.00  0.00     0.047 A 
HETATM   12  C   UNL     1      45.378 -10.289  10.820  1.00  0.00     0.071 C 
ENDROOT
BRANCH   7  13
HETATM   13  C   UNL     1      42.650 -11.989   2.963  1.00  0.00    -0.032 A 
HETATM   14  C   UNL     1      41.956 -13.207   2.942  1.00  0.00     0.051 A 
HETATM   15  C   UNL     1      40.781 -13.335   2.192  1.00  0.00     0.102 A 
HETATM   16  C   UNL     1      40.326 -12.240   1.438  1.00  0.00     0.102 A 
HETATM   17  C   UNL     1      40.998 -11.017   1.487  1.00  0.00     0.040 A 
HETATM   18  C   UNL     1      42.160 -10.893   2.247  1.00  0.00     0.014 A 
BRANCH  15  19
HETATM   19  O   UNL     1      40.035 -14.484   2.097  1.00  0.00    -0.353 OA
HETATM   20  C   UNL     1      40.406 -15.561   2.950  1.00  0.00     0.210 C 
ENDBRANCH  15  19
BRANCH  16  21
HETATM   21  O   UNL     1      39.173 -12.405   0.713  1.00  0.00    -0.339 OA
BRANCH  21  22
HETATM   22  C   UNL     1      39.335 -12.161  -0.686  1.00  0.00     0.278 C 
BRANCH  22  23
HETATM   23  C   UNL     1      39.698 -13.463  -1.391  1.00  0.00     0.239 C 
HETATM   24  N   UNL     1      39.088 -14.583  -0.902  1.00  0.00    -0.368 N 
HETATM   25  H   UNL     1      38.293 -14.482  -0.277  1.00  0.00     0.159 HD
HETATM   26  H   UNL     1      39.241 -15.461  -1.377  1.00  0.00     0.159 HD
HETATM   27  O   UNL     1      40.524 -13.533  -2.297  1.00  0.00    -0.271 OA
ENDBRANCH  22  23
ENDBRANCH  21  22
ENDBRANCH  16  21
ENDBRANCH   7  13
BRANCH   2  28
HETATM   28  C   UNL     1      41.901  -8.752   7.741  1.00  0.00     0.011 A 
HETATM   29  S   UNL     1      40.196  -8.540   7.710  1.00  0.00    -0.104 SA
HETATM   30  C   UNL     1      40.339  -6.917   7.204  1.00  0.00     0.050 A 
HETATM   31  C   UNL     1      41.653  -6.532   7.064  1.00  0.00     0.008 A 
HETATM   32  C   UNL     1      42.557  -7.590   7.372  1.00  0.00     0.017 A 
ENDBRANCH   2  28
BRANCH   1  33
HETATM   33  C   UNL     1      42.575  -9.372  10.646  1.00  0.00     0.256 C 
HETATM   34  N   UNL     1      43.115  -8.162  11.028  1.00  0.00    -0.323 N 
HETATM   35  H   UNL     1      43.862  -7.781  10.467  1.00  0.00     0.169 HD
HETATM   36  O   UNL     1      41.648  -9.966  11.185  1.00  0.00    -0.267 OA
BRANCH  34  37
HETATM   37  C   UNL     1      42.767  -7.389  12.168  1.00  0.00     0.041 A 
HETATM   38  C   UNL     1      42.013  -6.207  11.985  1.00  0.00    -0.035 A 
HETATM   39  C   UNL     1      41.567  -5.730  10.629  1.00  0.00     0.050 C 
HETATM   40  C   UNL     1      41.668  -5.427  13.106  1.00  0.00     0.009 A 
HETATM   41  C   UNL     1      42.060  -5.802  14.389  1.00  0.00     0.001 A 
HETATM   42  C   UNL     1      42.801  -6.962  14.567  1.00  0.00     0.002 A 
HETATM   43  C   UNL     1      43.151  -7.747  13.466  1.00  0.00     0.030 A 
ENDBRANCH  34  37
ENDBRANCH   1  33
TORSDOF 8
ENDMDL
MODEL 2
REMARK VINA RESULT:      -8.0      3.072     10.109
REMARK  8 active torsions:
REMARK  status: ('A' for Active; 'I' for Inactive)
REMARK    1  A    between atoms: C_3  and  N_4 
REMARK       I    between atoms: N_4  and  C_5 
REMARK    2  A    between atoms: C_5  and  C_6 
REMARK    3  A    between atoms: C_7  and  C_8 
REMARK    4  A    between atoms: C_17  and  C_18 
REMARK    5  A    between atoms: C_20  and  O_21 
REMARK    6  A    between atoms: C_23  and  O_24 
REMARK    7  A    between atoms: O_24  and  C_25 
REMARK    8  A    between atoms: C_25  and  C_26 
REMARK       I    between atoms: C_26  and  N_27 
ROOT
HETATM    1  C   UNL     1      40.524 -13.639   4.471  1.00  0.00     0.062 A 
HETATM    2  C   UNL     1      40.867 -12.613   5.521  1.00  0.00     0.176 A 
HETATM    3  N   UNL     1      40.363 -11.303   5.138  1.00  0.00    -0.277 N 
HETATM    4  C   UNL     1      39.765 -11.108   3.934  1.00  0.00     0.177 A 
HETATM    5  S   UNL     1      39.317  -9.443   3.710  1.00  0.00    -0.046 SA
HETATM    6  C   UNL     1      39.761  -9.038   5.331  1.00  0.00     0.077 C 
HETATM    7  C   UNL     1      39.613  -7.801   5.828  1.00  0.00     0.036 C 
HETATM    8  C   UNL     1      40.285 -10.255   6.026  1.00  0.00     0.267 C 
HETATM    9  O   UNL     1      40.534 -10.322   7.220  1.00  0.00    -0.266 OA
HETATM   10  N   UNL     1      39.511 -12.009   3.052  1.00  0.00    -0.228 NA
HETATM   11  C   UNL     1      39.885 -13.304   3.331  1.00  0.00     0.047 A 
HETATM   12  C   UNL     1      39.501 -14.285   2.250  1.00  0.00     0.071 C 
ENDROOT
BRANCH   7  13
HETATM   13  C   UNL     1      39.920  -7.403   7.202  1.00  0.00    -0.032 A 
HETATM   14  C   UNL     1      41.235  -7.093   7.574  1.00  0.00     0.051 A 
HETATM   15  C   UNL     1      41.526  -6.724   8.892  1.00  0.00     0.102 A 
HETATM   16  C   UNL     1      40.490  -6.700   9.842  1.00  0.00     0.102 A 
HETATM   17  C   UNL     1      39.174  -6.975   9.463  1.00  0.00     0.040 A 
HETATM   18  C   UNL     1      38.891  -7.329   8.145  1.00  0.00     0.014 A 
BRANCH  15  19
HETATM   19  O   UNL     1      42.779  -6.411   9.360  1.00  0.00    -0.353 OA
HETATM   20  C   UNL     1      43.845  -7.261   8.952  1.00  0.00     0.210 C 
ENDBRANCH  15  19
BRANCH  16  21
HETATM   21  O   UNL     1      40.814  -6.336  11.124  1.00  0.00    -0.339 OA
BRANCH  21  22
HETATM   22  C   UNL     1      40.542  -7.349  12.095  1.00  0.00     0.278 C 
BRANCH  22  23
HETATM   23  C   UNL     1      41.666  -8.379  12.086  1.00  0.00     0.239 C 
HETATM   24  N   UNL     1      42.917  -7.880  12.312  1.00  0.00    -0.368 N 
HETATM   25  H   UNL     1      43.016  -6.938  12.682  1.00  0.00     0.159 HD
HETATM   26  H   UNL     1      43.689  -8.528  12.386  1.00  0.00     0.159 HD
HETATM   27  O   UNL     1      41.491  -9.568  11.835  1.00  0.00    -0.271 OA
ENDBRANCH  22  23
ENDBRANCH  21  22
ENDBRANCH  16  21
ENDBRANCH   7  13
BRANCH   2  28
HETATM   28  C   UNL     1      42.355 -12.498   5.797  1.00  0.00     0.011 A 
HETATM   29  S   UNL     1      43.380 -11.724   4.655  1.00  0.00    -0.104 SA
HETATM   30  C   UNL     1      44.757 -11.945   5.639  1.00  0.00     0.050 A 
HETATM   31  C   UNL     1      44.453 -12.588   6.817  1.00  0.00     0.008 A 
HETATM   32  C   UNL     1      43.068 -12.910   6.910  1.00  0.00     0.017 A 
ENDBRANCH   2  28
BRANCH   1  33
HETATM   33  C   UNL     1      41.091 -15.012   4.630  1.00  0.00     0.256 C 
HETATM   34  N   UNL     1      42.141 -15.295   3.781  1.00  0.00    -0.323 N 
HETATM   35  H   UNL     1      42.475 -14.556   3.181  1.00  0.00     0.169 HD
HETATM   36  O   UNL     1      40.580 -15.771   5.445  1.00  0.00    -0.267 OA
BRANCH  34  37
HETATM   37  C   UNL     1      42.796 -16.545   3.615  1.00  0.00     0.041 A 
HETATM   38  C   UNL     1      43.731 -16.959   4.592  1.00  0.00    -0.035 A 
HETATM   39  C   UNL     1      44.063 -16.127   5.801  1.00  0.00     0.050 C 
HETATM   40  C   UNL     1      44.394 -18.192   4.435  1.00  0.00     0.009 A 
HETATM   41  C   UNL     1      44.144 -19.005   3.333  1.00  0.00     0.001 A 
HETATM   42  C   UNL     1      43.227 -18.598   2.374  1.00  0.00     0.002 A 
HETATM   43  C   UNL     1      42.561 -17.378   2.515  1.00  0.00     0.030 A 
ENDBRANCH  34  37
ENDBRANCH   1  33
TORSDOF 8
ENDMDL
MODEL 3
REMARK VINA RESULT:      -7.9      3.134     10.372
REMARK  8 active torsions:
REMARK  status: ('A' for Active; 'I' for Inactive)
REMARK    1  A    between atoms: C_3  and  N_4 
REMARK       I    between atoms: N_4  and  C_5 
REMARK    2  A    between atoms: C_5  and  C_6 
REMARK    3  A    between atoms: C_7  and  C_8 
REMARK    4  A    between atoms: C_17  and  C_18 
REMARK    5  A    between atoms: C_20  and  O_21 
REMARK    6  A    between atoms: C_23  and  O_24 
REMARK    7  A    between atoms: O_24  and  C_25 
REMARK    8  A    between atoms: C_25  and  C_26 
REMARK       I    between atoms: C_26  and  N_27 
ROOT
HETATM    1  C   UNL     1      40.667 -13.117   4.840  1.00  0.00     0.062 A 
HETATM    2  C   UNL     1      41.143 -12.106   5.851  1.00  0.00     0.176 A 
HETATM    3  N   UNL     1      40.662 -10.776   5.507  1.00  0.00    -0.277 N 
HETATM    4  C   UNL     1      39.970 -10.557   4.359  1.00  0.00     0.177 A 
HETATM    5  S   UNL     1      39.575  -8.876   4.167  1.00  0.00    -0.046 SA
HETATM    6  C   UNL     1      40.174  -8.487   5.741  1.00  0.00     0.077 C 
HETATM    7  C   UNL     1      40.122  -7.245   6.244  1.00  0.00     0.036 C 
HETATM    8  C   UNL     1      40.705  -9.725   6.394  1.00  0.00     0.267 C 
HETATM    9  O   UNL     1      41.054  -9.800   7.562  1.00  0.00    -0.266 OA
HETATM   10  N   UNL     1      39.604 -11.448   3.507  1.00  0.00    -0.228 NA
HETATM   11  C   UNL     1      39.946 -12.757   3.758  1.00  0.00     0.047 A 
HETATM   12  C   UNL     1      39.428 -13.722   2.720  1.00  0.00     0.071 C 
ENDROOT
BRANCH   7  13
HETATM   13  C   UNL     1      40.563  -6.859   7.584  1.00  0.00    -0.032 A 
HETATM   14  C   UNL     1      39.658  -6.846   8.654  1.00  0.00     0.051 A 
HETATM   15  C   UNL     1      40.083  -6.465   9.932  1.00  0.00     0.102 A 
HETATM   16  C   UNL     1      41.417  -6.066  10.120  1.00  0.00     0.102 A 
HETATM   17  C   UNL     1      42.327  -6.112   9.061  1.00  0.00     0.040 A 
HETATM   18  C   UNL     1      41.899  -6.506   7.795  1.00  0.00     0.014 A 
BRANCH  15  19
HETATM   19  O   UNL     1      39.276  -6.410  11.042  1.00  0.00    -0.353 OA
HETATM   20  C   UNL     1      38.867  -7.654  11.598  1.00  0.00     0.210 C 
ENDBRANCH  15  19
BRANCH  16  21
HETATM   21  O   UNL     1      41.797  -5.696  11.385  1.00  0.00    -0.339 OA
BRANCH  21  22
HETATM   22  C   UNL     1      42.494  -6.720  12.098  1.00  0.00     0.278 C 
BRANCH  22  23
HETATM   23  C   UNL     1      42.221  -6.578  13.591  1.00  0.00     0.239 C 
HETATM   24  N   UNL     1      43.303  -6.764  14.403  1.00  0.00    -0.368 N 
HETATM   25  H   UNL     1      44.235  -6.763  13.996  1.00  0.00     0.159 HD
HETATM   26  H   UNL     1      43.193  -6.613  15.396  1.00  0.00     0.159 HD
HETATM   27  O   UNL     1      41.104  -6.373  14.057  1.00  0.00    -0.271 OA
ENDBRANCH  22  23
ENDBRANCH  21  22
ENDBRANCH  16  21
ENDBRANCH   7  13
BRANCH   2  28
HETATM   28  C   UNL     1      42.652 -12.053   5.997  1.00  0.00     0.011 A 
HETATM   29  S   UNL     1      43.604 -11.310   4.775  1.00  0.00    -0.104 SA
HETATM   30  C   UNL     1      45.051 -11.595   5.632  1.00  0.00     0.050 A 
HETATM   31  C   UNL     1      44.826 -12.237   6.829  1.00  0.00     0.008 A 
HETATM   32  C   UNL     1      43.442 -12.504   7.041  1.00  0.00     0.017 A 
ENDBRANCH   2  28
BRANCH   1  33
HETATM   33  C   UNL     1      41.187 -14.513   4.957  1.00  0.00     0.256 C 
HETATM   34  N   UNL     1      42.320 -14.761   4.209  1.00  0.00    -0.323 N 
HETATM   35  H   UNL     1      42.733 -13.988   3.707  1.00  0.00     0.169 HD
HETATM   36  O   UNL     1      40.575 -15.316   5.650  1.00  0.00    -0.267 OA
BRANCH  34  37
HETATM   37  C   UNL     1      42.967 -16.011   4.022  1.00  0.00     0.041 A 
HETATM   38  C   UNL     1      42.891 -16.636   2.757  1.00  0.00    -0.035 A 
HETATM   39  C   UNL     1      42.147 -16.032   1.596  1.00  0.00     0.050 C 
HETATM   40  C   UNL     1      43.521 -17.881   2.561  1.00  0.00     0.009 A 
HETATM   41  C   UNL     1      44.215 -18.504   3.595  1.00  0.00     0.001 A 
HETATM   42  C   UNL     1      44.289 -17.890   4.838  1.00  0.00     0.002 A 
HETATM   43  C   UNL     1      43.669 -16.656   5.048  1.00  0.00     0.030 A 
ENDBRANCH  34  37
ENDBRANCH   1  33
TORSDOF 8
ENDMDL
MODEL 4
REMARK VINA RESULT:      -7.8      2.915     10.717
REMARK  8 active torsions:
REMARK  status: ('A' for Active; 'I' for Inactive)
REMARK    1  A    between atoms: C_3  and  N_4 
REMARK       I    between atoms: N_4  and  C_5 
REMARK    2  A    between atoms: C_5  and  C_6 
REMARK    3  A    between atoms: C_7  and  C_8 
REMARK    4  A    between atoms: C_17  and  C_18 
REMARK    5  A    between atoms: C_20  and  O_21 
REMARK    6  A    between atoms: C_23  and  O_24 
REMARK    7  A    between atoms: O_24  and  C_25 
REMARK    8  A    between atoms: C_25  and  C_26 
REMARK       I    between atoms: C_26  and  N_27 
ROOT
HETATM    1  C   UNL     1      39.256 -10.049   2.214  1.00  0.00     0.062 A 
HETATM    2  C   UNL     1      39.729 -10.299   3.623  1.00  0.00     0.176 A 
HETATM    3  N   UNL     1      40.369  -9.109   4.165  1.00  0.00    -0.277 N 
HETATM    4  C   UNL     1      40.558  -8.005   3.397  1.00  0.00     0.177 A 
HETATM    5  S   UNL     1      41.399  -6.760   4.271  1.00  0.00    -0.046 SA
HETATM    6  C   UNL     1      41.326  -7.656   5.748  1.00  0.00     0.077 C 
HETATM    7  C   UNL     1      41.817  -7.181   6.902  1.00  0.00     0.036 C 
HETATM    8  C   UNL     1      40.636  -8.963   5.506  1.00  0.00     0.267 C 
HETATM    9  O   UNL     1      40.299  -9.744   6.383  1.00  0.00    -0.266 OA
HETATM   10  N   UNL     1      40.159  -7.840   2.186  1.00  0.00    -0.228 NA
HETATM   11  C   UNL     1      39.481  -8.876   1.585  1.00  0.00     0.047 A 
HETATM   12  C   UNL     1      39.021  -8.559   0.183  1.00  0.00     0.071 C 
ENDROOT
BRANCH   7  13
HETATM   13  C   UNL     1      41.743  -7.864   8.193  1.00  0.00    -0.032 A 
HETATM   14  C   UNL     1      42.731  -8.786   8.567  1.00  0.00     0.051 A 
HETATM   15  C   UNL     1      42.649  -9.445   9.799  1.00  0.00     0.102 A 
HETATM   16  C   UNL     1      41.551  -9.195  10.639  1.00  0.00     0.102 A 
HETATM   17  C   UNL     1      40.585  -8.250  10.282  1.00  0.00     0.040 A 
HETATM   18  C   UNL     1      40.681  -7.589   9.059  1.00  0.00     0.014 A 
BRANCH  15  19
HETATM   19  O   UNL     1      43.557 -10.370  10.254  1.00  0.00    -0.353 OA
HETATM   20  C   UNL     1      44.919 -10.157   9.901  1.00  0.00     0.210 C 
ENDBRANCH  15  19
BRANCH  16  21
HETATM   21  O   UNL     1      41.503  -9.861  11.837  1.00  0.00    -0.339 OA
BRANCH  21  22
HETATM   22  C   UNL     1      40.301  -9.632  12.575  1.00  0.00     0.278 C 
BRANCH  22  23
HETATM   23  C   UNL     1      39.454 -10.899  12.576  1.00  0.00     0.239 C 
HETATM   24  N   UNL     1      38.826 -11.184  11.397  1.00  0.00    -0.368 N 
HETATM   25  H   UNL     1      39.113 -10.696  10.553  1.00  0.00     0.159 HD
HETATM   26  H   UNL     1      38.308 -12.048  11.322  1.00  0.00     0.159 HD
HETATM   27  O   UNL     1      39.285 -11.598  13.572  1.00  0.00    -0.271 OA
ENDBRANCH  22  23
ENDBRANCH  21  22
ENDBRANCH  16  21
ENDBRANCH   7  13
BRANCH   2  28
HETATM   28  C   UNL     1      40.691 -11.466   3.745  1.00  0.00     0.011 A 
HETATM   29  S   UNL     1      42.255 -11.361   3.040  1.00  0.00    -0.104 SA
HETATM   30  C   UNL     1      42.690 -12.910   3.610  1.00  0.00     0.050 A 
HETATM   31  C   UNL     1      41.676 -13.500   4.329  1.00  0.00     0.008 A 
HETATM   32  C   UNL     1      40.520 -12.670   4.406  1.00  0.00     0.017 A 
ENDBRANCH   2  28
BRANCH   1  33
HETATM   33  C   UNL     1      38.704 -11.209   1.451  1.00  0.00     0.256 C 
HETATM   34  N   UNL     1      39.513 -11.649   0.424  1.00  0.00    -0.323 N 
HETATM   35  H   UNL     1      40.414 -11.209   0.311  1.00  0.00     0.169 HD
HETATM   36  O   UNL     1      37.600 -11.645   1.755  1.00  0.00    -0.267 OA
BRANCH  34  37
HETATM   37  C   UNL     1      39.205 -12.643  -0.543  1.00  0.00     0.041 A 
HETATM   38  C   UNL     1      39.728 -13.945  -0.372  1.00  0.00    -0.035 A 
HETATM   39  C   UNL     1      40.601 -14.323   0.793  1.00  0.00     0.050 C 
HETATM   40  C   UNL     1      39.437 -14.938  -1.329  1.00  0.00     0.009 A 
HETATM   41  C   UNL     1      38.647 -14.654  -2.439  1.00  0.00     0.001 A 
HETATM   42  C   UNL     1      38.135 -13.375  -2.608  1.00  0.00     0.002 A 
HETATM   43  C   UNL     1      38.413 -12.379  -1.668  1.00  0.00     0.030 A 
ENDBRANCH  34  37
ENDBRANCH   1  33
TORSDOF 8
ENDMDL
MODEL 5
REMARK VINA RESULT:      -7.5      1.917      2.891
REMARK  8 active torsions:
REMARK  status: ('A' for Active; 'I' for Inactive)
REMARK    1  A    between atoms: C_3  and  N_4 
REMARK       I    between atoms: N_4  and  C_5 
REMARK    2  A    between atoms: C_5  and  C_6 
REMARK    3  A    between atoms: C_7  and  C_8 
REMARK    4  A    between atoms: C_17  and  C_18 
REMARK    5  A    between atoms: C_20  and  O_21 
REMARK    6  A    between atoms: C_23  and  O_24 
REMARK    7  A    between atoms: O_24  and  C_25 
REMARK    8  A    between atoms: C_25  and  C_26 
REMARK       I    between atoms: C_26  and  N_27 
ROOT
HETATM    1  C   UNL     1      41.897  -8.433  10.587  1.00  0.00     0.062 A 
HETATM    2  C   UNL     1      41.727  -8.938   9.177  1.00  0.00     0.176 A 
HETATM    3  N   UNL     1      42.926  -9.635   8.737  1.00  0.00    -0.277 N 
HETATM    4  C   UNL     1      44.033  -9.687   9.521  1.00  0.00     0.177 A 
HETATM    5  S   UNL     1      45.335 -10.524   8.728  1.00  0.00    -0.046 SA
HETATM    6  C   UNL     1      44.321 -10.981   7.405  1.00  0.00     0.077 C 
HETATM    7  C   UNL     1      44.765 -11.732   6.386  1.00  0.00     0.036 C 
HETATM    8  C   UNL     1      42.945 -10.431   7.615  1.00  0.00     0.267 C 
HETATM    9  O   UNL     1      41.972 -10.712   6.932  1.00  0.00    -0.266 OA
HETATM   10  N   UNL     1      44.147  -9.221  10.714  1.00  0.00    -0.228 NA
HETATM   11  C   UNL     1      43.053  -8.593  11.266  1.00  0.00     0.047 A 
HETATM   12  C   UNL     1      43.281  -8.125  12.682  1.00  0.00     0.071 C 
ENDROOT
BRANCH   7  13
HETATM   13  C   UNL     1      43.949 -12.196   5.264  1.00  0.00    -0.032 A 
HETATM   14  C   UNL     1      43.224 -13.392   5.359  1.00  0.00     0.051 A 
HETATM   15  C   UNL     1      42.454 -13.836   4.278  1.00  0.00     0.102 A 
HETATM   16  C   UNL     1      42.444 -13.087   3.089  1.00  0.00     0.102 A 
HETATM   17  C   UNL     1      43.139 -11.878   3.007  1.00  0.00     0.040 A 
HETATM   18  C   UNL     1      43.892 -11.435   4.093  1.00  0.00     0.014 A 
BRANCH  15  19
HETATM   19  O   UNL     1      41.717 -14.995   4.266  1.00  0.00    -0.353 OA
HETATM   20  C   UNL     1      42.445 -16.217   4.320  1.00  0.00     0.210 C 
ENDBRANCH  15  19
BRANCH  16  21
HETATM   21  O   UNL     1      41.681 -13.556   2.050  1.00  0.00    -0.339 OA
BRANCH  21  22
HETATM   22  C   UNL     1      40.646 -12.658   1.646  1.00  0.00     0.278 C 
BRANCH  22  23
HETATM   23  C   UNL     1      39.385 -12.935   2.456  1.00  0.00     0.239 C 
HETATM   24  N   UNL     1      39.089 -14.255   2.642  1.00  0.00    -0.368 N 
HETATM   25  H   UNL     1      39.798 -14.956   2.443  1.00  0.00     0.159 HD
HETATM   26  H   UNL     1      38.303 -14.496   3.230  1.00  0.00     0.159 HD
HETATM   27  O   UNL     1      38.639 -12.052   2.870  1.00  0.00    -0.271 OA
ENDBRANCH  22  23
ENDBRANCH  21  22
ENDBRANCH  16  21
ENDBRANCH   7  13
BRANCH   2  28
HETATM   28  C   UNL     1      41.405  -7.845   8.174  1.00  0.00     0.011 A 
HETATM   29  S   UNL     1      39.876  -7.829   7.389  1.00  0.00    -0.104 SA
HETATM   30  C   UNL     1      40.252  -6.398   6.539  1.00  0.00     0.050 A 
HETATM   31  C   UNL     1      41.509  -5.930   6.844  1.00  0.00     0.008 A 
HETATM   32  C   UNL     1      42.178  -6.765   7.786  1.00  0.00     0.017 A 
ENDBRANCH   2  28
BRANCH   1  33
HETATM   33  C   UNL     1      40.818  -7.566  11.150  1.00  0.00     0.256 C 
HETATM   34  N   UNL     1      41.159  -6.233  11.257  1.00  0.00    -0.323 N 
HETATM   35  H   UNL     1      42.057  -5.946  10.899  1.00  0.00     0.169 HD
HETATM   36  O   UNL     1      39.764  -8.085  11.497  1.00  0.00    -0.267 OA
BRANCH  34  37
HETATM   37  C   UNL     1      40.394  -5.200  11.861  1.00  0.00     0.041 A 
HETATM   38  C   UNL     1      39.468  -4.484  11.068  1.00  0.00    -0.035 A 
HETATM   39  C   UNL     1      39.260  -4.770   9.605  1.00  0.00     0.050 C 
HETATM   40  C   UNL     1      38.710  -3.451  11.653  1.00  0.00     0.009 A 
HETATM   41  C   UNL     1      38.862  -3.124  12.998  1.00  0.00     0.001 A 
HETATM   42  C   UNL     1      39.772  -3.826  13.776  1.00  0.00     0.002 A 
HETATM   43  C   UNL     1      40.531  -4.854  13.211  1.00  0.00     0.030 A 
ENDBRANCH  34  37
ENDBRANCH   1  33
TORSDOF 8
ENDMDL
MODEL 6
REMARK VINA RESULT:      -7.1      4.354      8.011
REMARK  8 active torsions:
REMARK  status: ('A' for Active; 'I' for Inactive)
REMARK    1  A    between atoms: C_3  and  N_4 
REMARK       I    between atoms: N_4  and  C_5 
REMARK    2  A    between atoms: C_5  and  C_6 
REMARK    3  A    between atoms: C_7  and  C_8 
REMARK    4  A    between atoms: C_17  and  C_18 
REMARK    5  A    between atoms: C_20  and  O_21 
REMARK    6  A    between atoms: C_23  and  O_24 
REMARK    7  A    between atoms: O_24  and  C_25 
REMARK    8  A    between atoms: C_25  and  C_26 
REMARK       I    between atoms: C_26  and  N_27 
ROOT
HETATM    1  C   UNL     1      41.072  -4.743  15.096  1.00  0.00     0.062 A 
HETATM    2  C   UNL     1      41.037  -5.721  13.950  1.00  0.00     0.176 A 
HETATM    3  N   UNL     1      41.667  -5.147  12.771  1.00  0.00    -0.277 N 
HETATM    4  C   UNL     1      42.108  -3.862  12.768  1.00  0.00     0.177 A 
HETATM    5  S   UNL     1      42.758  -3.417  11.219  1.00  0.00    -0.046 SA
HETATM    6  C   UNL     1      42.616  -5.033  10.621  1.00  0.00     0.077 C 
HETATM    7  C   UNL     1      43.014  -5.381   9.389  1.00  0.00     0.036 C 
HETATM    8  C   UNL     1      42.025  -5.908  11.682  1.00  0.00     0.267 C 
HETATM    9  O   UNL     1      41.943  -7.125  11.614  1.00  0.00    -0.266 OA
HETATM   10  N   UNL     1      42.098  -3.049  13.764  1.00  0.00    -0.228 NA
HETATM   11  C   UNL     1      41.582  -3.502  14.958  1.00  0.00     0.047 A 
HETATM   12  C   UNL     1      41.660  -2.483  16.069  1.00  0.00     0.071 C 
ENDROOT
BRANCH   7  13
HETATM   13  C   UNL     1      42.969  -6.736   8.841  1.00  0.00    -0.032 A 
HETATM   14  C   UNL     1      44.068  -7.596   8.981  1.00  0.00     0.051 A 
HETATM   15  C   UNL     1      44.024  -8.888   8.444  1.00  0.00     0.102 A 
HETATM   16  C   UNL     1      42.881  -9.299   7.739  1.00  0.00     0.102 A 
HETATM   17  C   UNL     1      41.773  -8.455   7.630  1.00  0.00     0.040 A 
HETATM   18  C   UNL     1      41.819  -7.175   8.178  1.00  0.00     0.014 A 
BRANCH  15  19
HETATM   19  O   UNL     1      45.047  -9.802   8.518  1.00  0.00    -0.353 OA
HETATM   20  C   UNL     1      46.300  -9.404   7.973  1.00  0.00     0.210 C 
ENDBRANCH  15  19
BRANCH  16  21
HETATM   21  O   UNL     1      42.875 -10.571   7.224  1.00  0.00    -0.339 OA
BRANCH  21  22
HETATM   22  C   UNL     1      42.986 -10.615   5.800  1.00  0.00     0.278 C 
BRANCH  22  23
HETATM   23  C   UNL     1      44.223 -11.415   5.409  1.00  0.00     0.239 C 
HETATM   24  N   UNL     1      44.739 -12.210   6.392  1.00  0.00    -0.368 N 
HETATM   25  H   UNL     1      44.181 -12.401   7.220  1.00  0.00     0.159 HD
HETATM   26  H   UNL     1      45.517 -12.814   6.166  1.00  0.00     0.159 HD
HETATM   27  O   UNL     1      44.770 -11.321   4.314  1.00  0.00    -0.271 OA
ENDBRANCH  22  23
ENDBRANCH  21  22
ENDBRANCH  16  21
ENDBRANCH   7  13
BRANCH   2  28
HETATM   28  C   UNL     1      39.638  -6.176  13.579  1.00  0.00     0.011 A 
HETATM   29  S   UNL     1      38.502  -5.038  12.970  1.00  0.00    -0.104 SA
HETATM   30  C   UNL     1      37.305  -6.238  12.769  1.00  0.00     0.050 A 
HETATM   31  C   UNL     1      37.752  -7.483  13.149  1.00  0.00     0.008 A 
HETATM   32  C   UNL     1      39.098  -7.450  13.618  1.00  0.00     0.017 A 
ENDBRANCH   2  28
BRANCH   1  33
HETATM   33  C   UNL     1      40.339  -5.111  16.345  1.00  0.00     0.256 C 
HETATM   34  N   UNL     1      41.031  -5.967  17.178  1.00  0.00    -0.323 N 
HETATM   35  H   UNL     1      41.972  -6.219  16.918  1.00  0.00     0.169 HD
HETATM   36  O   UNL     1      39.207  -4.675  16.517  1.00  0.00    -0.267 OA
BRANCH  34  37
HETATM   37  C   UNL     1      40.550  -6.583  18.364  1.00  0.00     0.041 A 
HETATM   38  C   UNL     1      40.746  -5.926  19.601  1.00  0.00    -0.035 A 
HETATM   39  C   UNL     1      41.448  -4.600  19.713  1.00  0.00     0.050 C 
HETATM   40  C   UNL     1      40.282  -6.530  20.786  1.00  0.00     0.009 A 
HETATM   41  C   UNL     1      39.636  -7.763  20.756  1.00  0.00     0.001 A 
HETATM   42  C   UNL     1      39.444  -8.408  19.542  1.00  0.00     0.002 A 
HETATM   43  C   UNL     1      39.898  -7.822  18.358  1.00  0.00     0.030 A 
ENDBRANCH  34  37
ENDBRANCH   1  33
TORSDOF 8
ENDMDL
MODEL 7
REMARK VINA RESULT:      -7.1      1.514      2.254
REMARK  8 active torsions:
REMARK  status: ('A' for Active; 'I' for Inactive)
REMARK    1  A    between atoms: C_3  and  N_4 
REMARK       I    between atoms: N_4  and  C_5 
REMARK    2  A    between atoms: C_5  and  C_6 
REMARK    3  A    between atoms: C_7  and  C_8 
REMARK    4  A    between atoms: C_17  and  C_18 
REMARK    5  A    between atoms: C_20  and  O_21 
REMARK    6  A    between atoms: C_23  and  O_24 
REMARK    7  A    between atoms: O_24  and  C_25 
REMARK    8  A    between atoms: C_25  and  C_26 
REMARK       I    between atoms: C_26  and  N_27 
ROOT
HETATM    1  C   UNL     1      42.073  -9.315   9.751  1.00  0.00     0.062 A 
HETATM    2  C   UNL     1      41.564  -9.708   8.387  1.00  0.00     0.176 A 
HETATM    3  N   UNL     1      42.650 -10.224   7.567  1.00  0.00    -0.277 N 
HETATM    4  C   UNL     1      43.931 -10.221   8.019  1.00  0.00     0.177 A 
HETATM    5  S   UNL     1      45.029 -10.832   6.818  1.00  0.00    -0.046 SA
HETATM    6  C   UNL     1      43.732 -11.281   5.766  1.00  0.00     0.077 C 
HETATM    7  C   UNL     1      43.940 -11.883   4.586  1.00  0.00     0.036 C 
HETATM    8  C   UNL     1      42.426 -10.910   6.396  1.00  0.00     0.267 C 
HETATM    9  O   UNL     1      41.330 -11.236   5.967  1.00  0.00    -0.266 OA
HETATM   10  N   UNL     1      44.328  -9.853   9.185  1.00  0.00    -0.228 NA
HETATM   11  C   UNL     1      43.380  -9.404  10.076  1.00  0.00     0.047 A 
HETATM   12  C   UNL     1      43.949  -9.042  11.426  1.00  0.00     0.071 C 
ENDROOT
BRANCH   7  13
HETATM   13  C   UNL     1      42.889 -12.333   3.674  1.00  0.00    -0.032 A 
HETATM   14  C   UNL     1      42.415 -11.486   2.662  1.00  0.00     0.051 A 
HETATM   15  C   UNL     1      41.402 -11.917   1.799  1.00  0.00     0.102 A 
HETATM   16  C   UNL     1      40.846 -13.195   1.979  1.00  0.00     0.102 A 
HETATM   17  C   UNL     1      41.342 -14.052   2.964  1.00  0.00     0.040 A 
HETATM   18  C   UNL     1      42.361 -13.619   3.811  1.00  0.00     0.014 A 
BRANCH  15  19
HETATM   19  O   UNL     1      40.862 -11.163   0.785  1.00  0.00    -0.353 OA
HETATM   20  C   UNL     1      41.645 -10.072   0.314  1.00  0.00     0.210 C 
ENDBRANCH  15  19
BRANCH  16  21
HETATM   21  O   UNL     1      39.852 -13.582   1.116  1.00  0.00    -0.339 OA
BRANCH  21  22
HETATM   22  C   UNL     1      40.262 -14.579   0.179  1.00  0.00     0.278 C 
BRANCH  22  23
HETATM   23  C   UNL     1      40.058 -14.060  -1.240  1.00  0.00     0.239 C 
HETATM   24  N   UNL     1      40.940 -13.098  -1.642  1.00  0.00    -0.368 N 
HETATM   25  H   UNL     1      41.784 -12.940  -1.098  1.00  0.00     0.159 HD
HETATM   26  H   UNL     1      40.894 -12.770  -2.597  1.00  0.00     0.159 HD
HETATM   27  O   UNL     1      39.137 -14.423  -1.967  1.00  0.00    -0.271 OA
ENDBRANCH  22  23
ENDBRANCH  21  22
ENDBRANCH  16  21
ENDBRANCH   7  13
BRANCH   2  28
HETATM   28  C   UNL     1      40.888  -8.574   7.639  1.00  0.00     0.011 A 
HETATM   29  S   UNL     1      41.804  -7.204   7.153  1.00  0.00    -0.104 SA
HETATM   30  C   UNL     1      40.453  -6.481   6.402  1.00  0.00     0.050 A 
HETATM   31  C   UNL     1      39.325  -7.261   6.507  1.00  0.00     0.008 A 
HETATM   32  C   UNL     1      39.572  -8.469   7.223  1.00  0.00     0.017 A 
ENDBRANCH   2  28
BRANCH   1  33
HETATM   33  C   UNL     1      41.121  -8.629  10.676  1.00  0.00     0.256 C 
HETATM   34  N   UNL     1      41.340  -7.274  10.812  1.00  0.00    -0.323 N 
HETATM   35  H   UNL     1      42.061  -6.853  10.246  1.00  0.00     0.169 HD
HETATM   36  O   UNL     1      40.273  -9.298  11.253  1.00  0.00    -0.267 OA
BRANCH  34  37
HETATM   37  C   UNL     1      40.683  -6.385  11.705  1.00  0.00     0.041 A 
HETATM   38  C   UNL     1      39.547  -5.677  11.249  1.00  0.00    -0.035 A 
HETATM   39  C   UNL     1      39.006  -5.823   9.853  1.00  0.00     0.050 C 
HETATM   40  C   UNL     1      38.892  -4.786  12.122  1.00  0.00     0.009 A 
HETATM   41  C   UNL     1      39.347  -4.593  13.423  1.00  0.00     0.001 A 
HETATM   42  C   UNL     1      40.463  -5.287  13.870  1.00  0.00     0.002 A 
HETATM   43  C   UNL     1      41.124  -6.174  13.017  1.00  0.00     0.030 A 
ENDBRANCH  34  37
ENDBRANCH   1  33
TORSDOF 8
ENDMDL
MODEL 8
REMARK VINA RESULT:      -6.9      1.942      2.686
REMARK  8 active torsions:
REMARK  status: ('A' for Active; 'I' for Inactive)
REMARK    1  A    between atoms: C_3  and  N_4 
REMARK       I    between atoms: N_4  and  C_5 
REMARK    2  A    between atoms: C_5  and  C_6 
REMARK    3  A    between atoms: C_7  and  C_8 
REMARK    4  A    between atoms: C_17  and  C_18 
REMARK    5  A    between atoms: C_20  and  O_21 
REMARK    6  A    between atoms: C_23  and  O_24 
REMARK    7  A    between atoms: O_24  and  C_25 
REMARK    8  A    between atoms: C_25  and  C_26 
REMARK       I    between atoms: C_26  and  N_27 
ROOT
HETATM    1  C   UNL     1      42.552  -9.357   9.242  1.00  0.00     0.062 A 
HETATM    2  C   UNL     1      41.969  -9.463   7.857  1.00  0.00     0.176 A 
HETATM    3  N   UNL     1      42.871 -10.192   6.978  1.00  0.00    -0.277 N 
HETATM    4  C   UNL     1      44.094 -10.596   7.409  1.00  0.00     0.177 A 
HETATM    5  S   UNL     1      44.985 -11.385   6.142  1.00  0.00    -0.046 SA
HETATM    6  C   UNL     1      43.627 -11.347   5.073  1.00  0.00     0.077 C 
HETATM    7  C   UNL     1      43.668 -11.875   3.841  1.00  0.00     0.036 C 
HETATM    8  C   UNL     1      42.474 -10.677   5.753  1.00  0.00     0.267 C 
HETATM    9  O   UNL     1      41.335 -10.635   5.312  1.00  0.00    -0.266 OA
HETATM   10  N   UNL     1      44.566 -10.464   8.598  1.00  0.00    -0.228 NA
HETATM   11  C   UNL     1      43.775  -9.845   9.539  1.00  0.00     0.047 A 
HETATM   12  C   UNL     1      44.408  -9.784  10.908  1.00  0.00     0.071 C 
ENDROOT
BRANCH   7  13
HETATM   13  C   UNL     1      42.543 -11.921   2.908  1.00  0.00    -0.032 A 
HETATM   14  C   UNL     1      42.183 -10.784   2.172  1.00  0.00     0.051 A 
HETATM   15  C   UNL     1      41.099 -10.831   1.288  1.00  0.00     0.102 A 
HETATM   16  C   UNL     1      40.359 -12.019   1.173  1.00  0.00     0.102 A 
HETATM   17  C   UNL     1      40.740 -13.163   1.879  1.00  0.00     0.040 A 
HETATM   18  C   UNL     1      41.829 -13.112   2.747  1.00  0.00     0.014 A 
BRANCH  15  19
HETATM   19  O   UNL     1      40.660  -9.772   0.530  1.00  0.00    -0.353 OA
HETATM   20  C   UNL     1      41.557  -9.277  -0.457  1.00  0.00     0.210 C 
ENDBRANCH  15  19
BRANCH  16  21
HETATM   21  O   UNL     1      39.302 -12.027   0.299  1.00  0.00    -0.339 OA
BRANCH  21  22
HETATM   22  C   UNL     1      39.647 -12.462  -1.018  1.00  0.00     0.278 C 
BRANCH  22  23
HETATM   23  C   UNL     1      38.850 -13.715  -1.366  1.00  0.00     0.239 C 
HETATM   24  N   UNL     1      37.583 -13.493  -1.823  1.00  0.00    -0.368 N 
HETATM   25  H   UNL     1      37.317 -12.555  -2.113  1.00  0.00     0.159 HD
HETATM   26  H   UNL     1      37.037 -14.284  -2.134  1.00  0.00     0.159 HD
HETATM   27  O   UNL     1      39.275 -14.854  -1.197  1.00  0.00    -0.271 OA
ENDBRANCH  22  23
ENDBRANCH  21  22
ENDBRANCH  16  21
ENDBRANCH   7  13
BRANCH   2  28
HETATM   28  C   UNL     1      41.654  -8.121   7.224  1.00  0.00     0.011 A 
HETATM   29  S   UNL     1      40.055  -7.779   6.693  1.00  0.00    -0.104 SA
HETATM   30  C   UNL     1      40.484  -6.204   6.195  1.00  0.00     0.050 A 
HETATM   31  C   UNL     1      41.811  -5.931   6.430  1.00  0.00     0.008 A 
HETATM   32  C   UNL     1      42.490  -7.036   7.022  1.00  0.00     0.017 A 
ENDBRANCH   2  28
BRANCH   1  33
HETATM   33  C   UNL     1      41.826  -8.514  10.239  1.00  0.00     0.256 C 
HETATM   34  N   UNL     1      40.542  -8.939  10.514  1.00  0.00    -0.323 N 
HETATM   35  H   UNL     1      40.226  -9.794  10.083  1.00  0.00     0.169 HD
HETATM   36  O   UNL     1      42.385  -7.524  10.695  1.00  0.00    -0.267 OA
BRANCH  34  37
HETATM   37  C   UNL     1      39.575  -8.279  11.318  1.00  0.00     0.041 A 
HETATM   38  C   UNL     1      39.460  -8.639  12.680  1.00  0.00    -0.035 A 
HETATM   39  C   UNL     1      40.320  -9.698  13.315  1.00  0.00     0.050 C 
HETATM   40  C   UNL     1      38.499  -7.999  13.486  1.00  0.00     0.009 A 
HETATM   41  C   UNL     1      37.660  -7.019  12.961  1.00  0.00     0.001 A 
HETATM   42  C   UNL     1      37.773  -6.666  11.623  1.00  0.00     0.002 A 
HETATM   43  C   UNL     1      38.721  -7.292  10.810  1.00  0.00     0.030 A 
ENDBRANCH  34  37
ENDBRANCH   1  33
TORSDOF 8
ENDMDL
MODEL 9
REMARK VINA RESULT:      -6.9     20.683     23.553
REMARK  8 active torsions:
REMARK  status: ('A' for Active; 'I' for Inactive)
REMARK    1  A    between atoms: C_3  and  N_4 
REMARK       I    between atoms: N_4  and  C_5 
REMARK    2  A    between atoms: C_5  and  C_6 
REMARK    3  A    between atoms: C_7  and  C_8 
REMARK    4  A    between atoms: C_17  and  C_18 
REMARK    5  A    between atoms: C_20  and  O_21 
REMARK    6  A    between atoms: C_23  and  O_24 
REMARK    7  A    between atoms: O_24  and  C_25 
REMARK    8  A    between atoms: C_25  and  C_26 
REMARK       I    between atoms: C_26  and  N_27 
ROOT
HETATM    1  C   UNL     1      48.084 -30.155   3.606  1.00  0.00     0.062 A 
HETATM    2  C   UNL     1      47.018 -30.805   4.450  1.00  0.00     0.176 A 
HETATM    3  N   UNL     1      47.609 -31.775   5.359  1.00  0.00    -0.277 N 
HETATM    4  C   UNL     1      48.936 -32.061   5.312  1.00  0.00     0.177 A 
HETATM    5  S   UNL     1      49.360 -33.295   6.460  1.00  0.00    -0.046 SA
HETATM    6  C   UNL     1      47.775 -33.292   7.150  1.00  0.00     0.077 C 
HETATM    7  C   UNL     1      47.441 -34.072   8.188  1.00  0.00     0.036 C 
HETATM    8  C   UNL     1      46.917 -32.302   6.425  1.00  0.00     0.267 C 
HETATM    9  O   UNL     1      45.797 -31.964   6.777  1.00  0.00    -0.266 OA
HETATM   10  N   UNL     1      49.812 -31.499   4.557  1.00  0.00    -0.228 NA
HETATM   11  C   UNL     1      49.381 -30.516   3.695  1.00  0.00     0.047 A 
HETATM   12  C   UNL     1      50.496 -29.894   2.890  1.00  0.00     0.071 C 
ENDROOT
BRANCH   7  13
HETATM   13  C   UNL     1      46.137 -34.081   8.849  1.00  0.00    -0.032 A 
HETATM   14  C   UNL     1      45.944 -33.384  10.050  1.00  0.00     0.051 A 
HETATM   15  C   UNL     1      44.697 -33.405  10.685  1.00  0.00     0.102 A 
HETATM   16  C   UNL     1      43.654 -34.159  10.122  1.00  0.00     0.102 A 
HETATM   17  C   UNL     1      43.836 -34.825   8.907  1.00  0.00     0.040 A 
HETATM   18  C   UNL     1      45.077 -34.787   8.274  1.00  0.00     0.014 A 
BRANCH  15  19
HETATM   19  O   UNL     1      44.409 -32.766  11.866  1.00  0.00    -0.353 OA
HETATM   20  C   UNL     1      45.422 -32.778  12.864  1.00  0.00     0.210 C 
ENDBRANCH  15  19
BRANCH  16  21
HETATM   21  O   UNL     1      42.447 -34.159  10.774  1.00  0.00    -0.339 OA
BRANCH  21  22
HETATM   22  C   UNL     1      41.379 -33.599  10.007  1.00  0.00     0.278 C 
BRANCH  22  23
HETATM   23  C   UNL     1      41.484 -32.078  10.022  1.00  0.00     0.239 C 
HETATM   24  N   UNL     1      41.585 -31.511  11.260  1.00  0.00    -0.368 N 
HETATM   25  H   UNL     1      41.803 -32.101  12.059  1.00  0.00     0.159 HD
HETATM   26  H   UNL     1      41.726 -30.513  11.324  1.00  0.00     0.159 HD
HETATM   27  O   UNL     1      41.422 -31.386   9.009  1.00  0.00    -0.271 OA
ENDBRANCH  22  23
ENDBRANCH  21  22
ENDBRANCH  16  21
ENDBRANCH   7  13
BRANCH   2  28
HETATM   28  C   UNL     1      45.936 -31.495   3.640  1.00  0.00     0.011 A 
HETATM   29  S   UNL     1      46.273 -32.989   2.859  1.00  0.00    -0.104 SA
HETATM   30  C   UNL     1      44.680 -33.114   2.262  1.00  0.00     0.050 A 
HETATM   31  C   UNL     1      43.897 -32.051   2.649  1.00  0.00     0.008 A 
HETATM   32  C   UNL     1      44.620 -31.114   3.443  1.00  0.00     0.017 A 
ENDBRANCH   2  28
BRANCH   1  33
HETATM   33  C   UNL     1      47.641 -29.237   2.514  1.00  0.00     0.256 C 
HETATM   34  N   UNL     1      47.260 -29.877   1.353  1.00  0.00    -0.323 N 
HETATM   35  H   UNL     1      47.250 -30.886   1.352  1.00  0.00     0.169 HD
HETATM   36  O   UNL     1      47.681 -28.027   2.706  1.00  0.00    -0.267 OA
BRANCH  34  37
HETATM   37  C   UNL     1      46.911 -29.273   0.115  1.00  0.00     0.041 A 
HETATM   38  C   UNL     1      47.895 -29.171  -0.895  1.00  0.00    -0.035 A 
HETATM   39  C   UNL     1      49.301 -29.675  -0.712  1.00  0.00     0.050 C 
HETATM   40  C   UNL     1      47.565 -28.567  -2.123  1.00  0.00     0.009 A 
HETATM   41  C   UNL     1      46.286 -28.066  -2.355  1.00  0.00     0.001 A 
HETATM   42  C   UNL     1      45.321 -28.165  -1.363  1.00  0.00     0.002 A 
HETATM   43  C   UNL     1      45.632 -28.763  -0.139  1.00  0.00     0.030 A 
ENDBRANCH  34  37
ENDBRANCH   1  33
TORSDOF 8
ENDMDL
MODEL 10
REMARK VINA RESULT:      -6.9     21.025     23.724
REMARK  8 active torsions:
REMARK  status: ('A' for Active; 'I' for Inactive)
REMARK    1  A    between atoms: C_3  and  N_4 
REMARK       I    between atoms: N_4  and  C_5 
REMARK    2  A    between atoms: C_5  and  C_6 
REMARK    3  A    between atoms: C_7  and  C_8 
REMARK    4  A    between atoms: C_17  and  C_18 
REMARK    5  A    between atoms: C_20  and  O_21 
REMARK    6  A    between atoms: C_23  and  O_24 
REMARK    7  A    between atoms: O_24  and  C_25 
REMARK    8  A    between atoms: C_25  and  C_26 
REMARK       I    between atoms: C_26  and  N_27 
ROOT
HETATM    1  C   UNL     1      47.808 -30.537   0.004  1.00  0.00     0.062 A 
HETATM    2  C   UNL     1      46.819 -31.054   1.017  1.00  0.00     0.176 A 
HETATM    3  N   UNL     1      45.516 -30.436   0.820  1.00  0.00    -0.277 N 
HETATM    4  C   UNL     1      45.336 -29.464  -0.111  1.00  0.00     0.177 A 
HETATM    5  S   UNL     1      43.706 -28.860  -0.091  1.00  0.00    -0.046 SA
HETATM    6  C   UNL     1      43.205 -30.061   1.047  1.00  0.00     0.077 C 
HETATM    7  C   UNL     1      41.940 -30.156   1.481  1.00  0.00     0.036 C 
HETATM    8  C   UNL     1      44.373 -30.924   1.410  1.00  0.00     0.267 C 
HETATM    9  O   UNL     1      44.302 -31.949   2.072  1.00  0.00    -0.266 OA
HETATM   10  N   UNL     1      46.215 -29.032  -0.944  1.00  0.00    -0.228 NA
HETATM   11  C   UNL     1      47.474 -29.588  -0.897  1.00  0.00     0.047 A 
HETATM   12  C   UNL     1      48.411 -29.041  -1.945  1.00  0.00     0.071 C 
ENDROOT
BRANCH   7  13
HETATM   13  C   UNL     1      41.440 -31.177   2.401  1.00  0.00    -0.032 A 
HETATM   14  C   UNL     1      41.413 -30.936   3.782  1.00  0.00     0.051 A 
HETATM   15  C   UNL     1      40.944 -31.921   4.660  1.00  0.00     0.102 A 
HETATM   16  C   UNL     1      40.532 -33.160   4.142  1.00  0.00     0.102 A 
HETATM   17  C   UNL     1      40.526 -33.387   2.764  1.00  0.00     0.040 A 
HETATM   18  C   UNL     1      40.982 -32.397   1.896  1.00  0.00     0.014 A 
BRANCH  15  19
HETATM   19  O   UNL     1      40.885 -31.789   6.026  1.00  0.00    -0.353 OA
HETATM   20  C   UNL     1      42.127 -31.669   6.710  1.00  0.00     0.210 C 
ENDBRANCH  15  19
BRANCH  16  21
HETATM   21  O   UNL     1      40.082 -34.102   5.033  1.00  0.00    -0.339 OA
BRANCH  21  22
HETATM   22  C   UNL     1      38.687 -34.387   4.911  1.00  0.00     0.278 C 
BRANCH  22  23
HETATM   23  C   UNL     1      37.913 -33.615   5.974  1.00  0.00     0.239 C 
HETATM   24  N   UNL     1      38.590 -33.386   7.138  1.00  0.00    -0.368 N 
HETATM   25  H   UNL     1      39.596 -33.530   7.164  1.00  0.00     0.159 HD
HETATM   26  H   UNL     1      38.149 -32.819   7.849  1.00  0.00     0.159 HD
HETATM   27  O   UNL     1      36.744 -33.266   5.839  1.00  0.00    -0.271 OA
ENDBRANCH  22  23
ENDBRANCH  21  22
ENDBRANCH  16  21
ENDBRANCH   7  13
BRANCH   2  28
HETATM   28  C   UNL     1      47.249 -30.832   2.456  1.00  0.00     0.011 A 
HETATM   29  S   UNL     1      47.693 -32.174   3.432  1.00  0.00    -0.104 SA
HETATM   30  C   UNL     1      48.058 -31.172   4.764  1.00  0.00     0.050 A 
HETATM   31  C   UNL     1      47.856 -29.841   4.480  1.00  0.00     0.008 A 
HETATM   32  C   UNL     1      47.387 -29.642   3.148  1.00  0.00     0.017 A 
ENDBRANCH   2  28
BRANCH   1  33
HETATM   33  C   UNL     1      49.235 -30.954   0.149  1.00  0.00     0.256 C 
HETATM   34  N   UNL     1      49.618 -31.972  -0.700  1.00  0.00    -0.323 N 
HETATM   35  H   UNL     1      48.945 -32.301  -1.376  1.00  0.00     0.169 HD
HETATM   36  O   UNL     1      49.925 -30.412   1.004  1.00  0.00    -0.267 OA
BRANCH  34  37
HETATM   37  C   UNL     1      50.862 -32.656  -0.711  1.00  0.00     0.041 A 
HETATM   38  C   UNL     1      51.930 -32.118  -1.466  1.00  0.00    -0.035 A 
HETATM   39  C   UNL     1      51.801 -30.849  -2.263  1.00  0.00     0.050 C 
HETATM   40  C   UNL     1      53.167 -32.792  -1.491  1.00  0.00     0.009 A 
HETATM   41  C   UNL     1      53.351 -33.979  -0.787  1.00  0.00     0.001 A 
HETATM   42  C   UNL     1      52.303 -34.508  -0.048  1.00  0.00     0.002 A 
HETATM   43  C   UNL     1      51.070 -33.852  -0.011  1.00  0.00     0.030 A 
ENDBRANCH  34  37
ENDBRANCH   1  33
TORSDOF 8
ENDMDL
