MODEL 1
REMARK VINA RESULT:      -9.0      0.000      0.000
REMARK  6 active torsions:
REMARK  status: ('A' for Active; 'I' for Inactive)
REMARK    1  A    between atoms: C_9  and  C_10 
REMARK    2  A    between atoms: C_10  and  N_11 
REMARK       I    between atoms: N_11  and  C_12 
REMARK    3  A    between atoms: N_11  and  C_22 
REMARK    4  A    between atoms: C_12  and  C_13 
REMARK    5  A    between atoms: C_16  and  O_17 
REMARK    6  A    between atoms: C_22  and  C_23 
ROOT
HETATM    1  N   UNL     1      42.230 -14.369   3.294  1.00  0.00    -0.341 N 
HETATM    2  C   UNL     1      43.193 -15.115   2.604  1.00  0.00     0.254 C 
HETATM    3  O   UNL     1      43.929 -14.645   1.738  1.00  0.00    -0.267 OA
ENDROOT
BRANCH   1   4
HETATM    4  C   UNL     1      42.089 -12.960   2.927  1.00  0.00     0.170 C 
BRANCH   4   5
HETATM    5  C   UNL     1      41.035 -12.740   1.881  1.00  0.00     0.029 A 
HETATM    6  C   UNL     1      40.029 -11.662   2.124  1.00  0.00     0.253 A 
HETATM    7  N   UNL     1      39.048 -11.501   1.179  1.00  0.00    -0.322 N 
HETATM    8  O   UNL     1      40.055 -10.954   3.128  1.00  0.00    -0.268 OA
HETATM    9  C   UNL     1      38.910 -12.321   0.053  1.00  0.00     0.045 A 
HETATM   10  H   UNL     1      38.379 -10.766   1.358  1.00  0.00     0.169 HD
HETATM   11  C   UNL     1      39.832 -13.350  -0.158  1.00  0.00    -0.008 A 
HETATM   12  C   UNL     1      37.852 -12.124  -0.833  1.00  0.00     0.031 A 
HETATM   13  C   UNL     1      39.676 -14.202  -1.256  1.00  0.00     0.020 A 
HETATM   14  C   UNL     1      40.925 -13.525   0.794  1.00  0.00     0.028 A 
HETATM   15  C   UNL     1      38.596 -14.038  -2.135  1.00  0.00    -0.061 A 
HETATM   16  C   UNL     1      38.436 -14.953  -3.313  1.00  0.00     0.048 C 
HETATM   17  C   UNL     1      37.700 -12.979  -1.927  1.00  0.00     0.009 A 
ENDBRANCH   4   5
ENDBRANCH   1   4
BRANCH   1  18
HETATM   18  C   UNL     1      41.032 -14.979   3.901  1.00  0.00     0.158 C 
BRANCH  18  19
HETATM   19  C   UNL     1      40.812 -14.531   5.363  1.00  0.00     0.139 C 
HETATM   20  O   UNL     1      42.056 -14.047   5.916  1.00  0.00    -0.384 OA
HETATM   21  C   UNL     1      42.487 -14.941   6.950  1.00  0.00     0.168 C 
HETATM   22  C   UNL     1      41.684 -16.209   6.790  1.00  0.00     0.029 C 
HETATM   23  C   UNL     1      40.374 -15.682   6.259  1.00  0.00     0.035 C 
ENDBRANCH  18  19
ENDBRANCH   1  18
BRANCH   2  24
HETATM   24  C   UNL     1      43.331 -16.563   2.896  1.00  0.00     0.032 A 
HETATM   25  C   UNL     1      43.892 -16.946   4.116  1.00  0.00     0.020 A 
HETATM   26  C   UNL     1      44.060 -18.300   4.406  1.00  0.00     0.038 A 
HETATM   27  C   UNL     1      43.669 -19.278   3.485  1.00  0.00     0.068 A 
HETATM   28  C   UNL     1      43.059 -18.893   2.289  1.00  0.00     0.038 A 
HETATM   29  C   UNL     1      42.877 -17.535   2.000  1.00  0.00     0.020 A 
BRANCH  27  30
HETATM   30  O   UNL     1      43.916 -20.564   3.880  1.00  0.00    -0.356 OA
HETATM   31  C   UNL     1      44.184 -20.765   5.263  1.00  0.00     0.210 C 
ENDBRANCH  27  30
ENDBRANCH   2  24
TORSDOF 6
ENDMDL
MODEL 2
REMARK VINA RESULT:      -8.7      1.915      2.440
REMARK  6 active torsions:
REMARK  status: ('A' for Active; 'I' for Inactive)
REMARK    1  A    between atoms: C_9  and  C_10 
REMARK    2  A    between atoms: C_10  and  N_11 
REMARK       I    between atoms: N_11  and  C_12 
REMARK    3  A    between atoms: N_11  and  C_22 
REMARK    4  A    between atoms: C_12  and  C_13 
REMARK    5  A    between atoms: C_16  and  O_17 
REMARK    6  A    between atoms: C_22  and  C_23 
ROOT
HETATM    1  N   UNL     1      41.873 -14.158   3.423  1.00  0.00    -0.341 N 
HETATM    2  C   UNL     1      41.345 -15.433   3.657  1.00  0.00     0.254 C 
HETATM    3  O   UNL     1      40.146 -15.699   3.585  1.00  0.00    -0.267 OA
ENDROOT
BRANCH   1   4
HETATM    4  C   UNL     1      40.925 -13.091   3.104  1.00  0.00     0.170 C 
BRANCH   4   5
HETATM    5  C   UNL     1      40.807 -12.846   1.628  1.00  0.00     0.029 A 
HETATM    6  C   UNL     1      41.411 -11.595   1.080  1.00  0.00     0.253 A 
HETATM    7  N   UNL     1      41.258 -11.366  -0.264  1.00  0.00    -0.322 N 
HETATM    8  O   UNL     1      42.008 -10.788   1.790  1.00  0.00    -0.268 OA
HETATM    9  C   UNL     1      40.526 -12.198  -1.117  1.00  0.00     0.045 A 
HETATM   10  H   UNL     1      41.677 -10.517  -0.617  1.00  0.00     0.169 HD
HETATM   11  C   UNL     1      39.931 -13.352  -0.599  1.00  0.00    -0.008 A 
HETATM   12  C   UNL     1      40.373 -11.866  -2.462  1.00  0.00     0.031 A 
HETATM   13  C   UNL     1      39.160 -14.166  -1.433  1.00  0.00     0.020 A 
HETATM   14  C   UNL     1      40.113 -13.665   0.816  1.00  0.00     0.028 A 
HETATM   15  C   UNL     1      38.969 -13.825  -2.780  1.00  0.00    -0.061 A 
HETATM   16  C   UNL     1      38.143 -14.704  -3.672  1.00  0.00     0.048 C 
HETATM   17  C   UNL     1      39.599 -12.681  -3.291  1.00  0.00     0.009 A 
ENDBRANCH   4   5
ENDBRANCH   1   4
BRANCH   1  18
HETATM   18  C   UNL     1      43.151 -13.705   4.003  1.00  0.00     0.158 C 
BRANCH  18  19
HETATM   19  C   UNL     1      42.997 -12.425   4.854  1.00  0.00     0.139 C 
HETATM   20  O   UNL     1      44.148 -11.574   4.666  1.00  0.00    -0.384 OA
HETATM   21  C   UNL     1      44.886 -11.506   5.893  1.00  0.00     0.168 C 
HETATM   22  C   UNL     1      44.384 -12.634   6.763  1.00  0.00     0.029 C 
HETATM   23  C   UNL     1      42.937 -12.728   6.346  1.00  0.00     0.035 C 
ENDBRANCH  18  19
ENDBRANCH   1  18
BRANCH   2  24
HETATM   24  C   UNL     1      42.259 -16.535   4.045  1.00  0.00     0.032 A 
HETATM   25  C   UNL     1      42.884 -17.269   3.034  1.00  0.00     0.020 A 
HETATM   26  C   UNL     1      43.728 -18.328   3.370  1.00  0.00     0.038 A 
HETATM   27  C   UNL     1      43.955 -18.660   4.709  1.00  0.00     0.068 A 
HETATM   28  C   UNL     1      43.372 -17.889   5.718  1.00  0.00     0.038 A 
HETATM   29  C   UNL     1      42.534 -16.817   5.386  1.00  0.00     0.020 A 
BRANCH  27  30
HETATM   30  O   UNL     1      44.778 -19.736   4.898  1.00  0.00    -0.356 OA
HETATM   31  C   UNL     1      44.149 -20.962   5.257  1.00  0.00     0.210 C 
ENDBRANCH  27  30
ENDBRANCH   2  24
TORSDOF 6
ENDMDL
MODEL 3
REMARK VINA RESULT:      -8.6      2.168      7.292
REMARK  6 active torsions:
REMARK  status: ('A' for Active; 'I' for Inactive)
REMARK    1  A    between atoms: C_9  and  C_10 
REMARK    2  A    between atoms: C_10  and  N_11 
REMARK       I    between atoms: N_11  and  C_12 
REMARK    3  A    between atoms: N_11  and  C_22 
REMARK    4  A    between atoms: C_12  and  C_13 
REMARK    5  A    between atoms: C_16  and  O_17 
REMARK    6  A    between atoms: C_22  and  C_23 
ROOT
HETATM    1  N   UNL     1      41.904 -13.635   4.141  1.00  0.00    -0.341 N 
HETATM    2  C   UNL     1      42.417 -13.033   2.986  1.00  0.00     0.254 C 
HETATM    3  O   UNL     1      43.619 -12.864   2.780  1.00  0.00    -0.267 OA
ENDROOT
BRANCH   1   4
HETATM    4  C   UNL     1      42.867 -14.052   5.161  1.00  0.00     0.170 C 
BRANCH   4   5
HETATM    5  C   UNL     1      43.087 -15.536   5.173  1.00  0.00     0.029 A 
HETATM    6  C   UNL     1      43.422 -16.179   6.479  1.00  0.00     0.253 A 
HETATM    7  N   UNL     1      43.662 -17.529   6.466  1.00  0.00    -0.322 N 
HETATM    8  O   UNL     1      43.500 -15.538   7.525  1.00  0.00    -0.268 OA
HETATM    9  C   UNL     1      43.668 -18.308   5.303  1.00  0.00     0.045 A 
HETATM   10  H   UNL     1      43.882 -17.947   7.359  1.00  0.00     0.169 HD
HETATM   11  C   UNL     1      43.388 -17.701   4.076  1.00  0.00    -0.008 A 
HETATM   12  C   UNL     1      43.974 -19.665   5.369  1.00  0.00     0.031 A 
HETATM   13  C   UNL     1      43.437 -18.461   2.903  1.00  0.00     0.020 A 
HETATM   14  C   UNL     1      43.074 -16.275   4.048  1.00  0.00     0.028 A 
HETATM   15  C   UNL     1      43.778 -19.820   2.951  1.00  0.00    -0.061 A 
HETATM   16  C   UNL     1      43.825 -20.631   1.690  1.00  0.00     0.048 C 
HETATM   17  C   UNL     1      44.024 -20.419   4.195  1.00  0.00     0.009 A 
ENDBRANCH   4   5
ENDBRANCH   1   4
BRANCH   1  18
HETATM   18  C   UNL     1      40.542 -13.371   4.640  1.00  0.00     0.158 C 
BRANCH  18  19
HETATM   19  C   UNL     1      40.531 -12.445   5.876  1.00  0.00     0.139 C 
HETATM   20  O   UNL     1      39.201 -12.399   6.438  1.00  0.00    -0.384 OA
HETATM   21  C   UNL     1      38.666 -11.081   6.268  1.00  0.00     0.168 C 
HETATM   22  C   UNL     1      39.539 -10.386   5.250  1.00  0.00     0.029 C 
HETATM   23  C   UNL     1      40.887 -11.006   5.524  1.00  0.00     0.035 C 
ENDBRANCH  18  19
ENDBRANCH   1  18
BRANCH   2  24
HETATM   24  C   UNL     1      41.479 -12.537   1.951  1.00  0.00     0.032 A 
HETATM   25  C   UNL     1      40.798 -13.470   1.166  1.00  0.00     0.020 A 
HETATM   26  C   UNL     1      39.929 -13.031   0.167  1.00  0.00     0.038 A 
HETATM   27  C   UNL     1      39.732 -11.665  -0.055  1.00  0.00     0.068 A 
HETATM   28  C   UNL     1      40.373 -10.734   0.767  1.00  0.00     0.038 A 
HETATM   29  C   UNL     1      41.236 -11.170   1.780  1.00  0.00     0.020 A 
BRANCH  27  30
HETATM   30  O   UNL     1      38.879 -11.370  -1.083  1.00  0.00    -0.356 OA
HETATM   31  C   UNL     1      37.982 -12.401  -1.480  1.00  0.00     0.210 C 
ENDBRANCH  27  30
ENDBRANCH   2  24
TORSDOF 6
ENDMDL
MODEL 4
REMARK VINA RESULT:      -8.2      3.778      7.168
REMARK  6 active torsions:
REMARK  status: ('A' for Active; 'I' for Inactive)
REMARK    1  A    between atoms: C_9  and  C_10 
REMARK    2  A    between atoms: C_10  and  N_11 
REMARK       I    between atoms: N_11  and  C_12 
REMARK    3  A    between atoms: N_11  and  C_22 
REMARK    4  A    between atoms: C_12  and  C_13 
REMARK    5  A    between atoms: C_16  and  O_17 
REMARK    6  A    between atoms: C_22  and  C_23 
ROOT
HETATM    1  N   UNL     1      42.068 -12.771   4.608  1.00  0.00    -0.341 N 
HETATM    2  C   UNL     1      42.236 -13.133   3.267  1.00  0.00     0.254 C 
HETATM    3  O   UNL     1      42.317 -12.322   2.346  1.00  0.00    -0.267 OA
ENDROOT
BRANCH   1   4
HETATM    4  C   UNL     1      41.955 -11.342   4.905  1.00  0.00     0.170 C 
BRANCH   4   5
HETATM    5  C   UNL     1      42.908 -10.899   5.976  1.00  0.00     0.029 A 
HETATM    6  C   UNL     1      44.371 -11.030   5.702  1.00  0.00     0.253 A 
HETATM    7  N   UNL     1      45.229 -10.659   6.706  1.00  0.00    -0.322 N 
HETATM    8  O   UNL     1      44.803 -11.463   4.636  1.00  0.00    -0.268 OA
HETATM    9  C   UNL     1      44.809 -10.233   7.970  1.00  0.00     0.045 A 
HETATM   10  H   UNL     1      46.214 -10.751   6.501  1.00  0.00     0.169 HD
HETATM   11  C   UNL     1      43.440 -10.142   8.239  1.00  0.00    -0.008 A 
HETATM   12  C   UNL     1      45.746  -9.925   8.955  1.00  0.00     0.031 A 
HETATM   13  C   UNL     1      43.011  -9.760   9.514  1.00  0.00     0.020 A 
HETATM   14  C   UNL     1      42.490 -10.474   7.182  1.00  0.00     0.028 A 
HETATM   15  C   UNL     1      43.943  -9.482  10.524  1.00  0.00    -0.061 A 
HETATM   16  C   UNL     1      43.477  -9.070  11.889  1.00  0.00     0.048 C 
HETATM   17  C   UNL     1      45.312  -9.547  10.227  1.00  0.00     0.009 A 
ENDBRANCH   4   5
ENDBRANCH   1   4
BRANCH   1  18
HETATM   18  C   UNL     1      41.452 -13.666   5.605  1.00  0.00     0.158 C 
BRANCH  18  19
HETATM   19  C   UNL     1      42.479 -14.238   6.607  1.00  0.00     0.139 C 
HETATM   20  O   UNL     1      43.722 -14.515   5.925  1.00  0.00    -0.384 OA
HETATM   21  C   UNL     1      43.940 -15.931   5.907  1.00  0.00     0.168 C 
HETATM   22  C   UNL     1      42.623 -16.578   6.264  1.00  0.00     0.029 C 
HETATM   23  C   UNL     1      42.025 -15.563   7.206  1.00  0.00     0.035 C 
ENDBRANCH  18  19
ENDBRANCH   1  18
BRANCH   2  24
HETATM   24  C   UNL     1      42.293 -14.571   2.908  1.00  0.00     0.032 A 
HETATM   25  C   UNL     1      41.157 -15.356   3.116  1.00  0.00     0.020 A 
HETATM   26  C   UNL     1      41.191 -16.717   2.813  1.00  0.00     0.038 A 
HETATM   27  C   UNL     1      42.352 -17.303   2.299  1.00  0.00     0.068 A 
HETATM   28  C   UNL     1      43.470 -16.504   2.042  1.00  0.00     0.038 A 
HETATM   29  C   UNL     1      43.436 -15.135   2.333  1.00  0.00     0.020 A 
BRANCH  27  30
HETATM   30  O   UNL     1      42.261 -18.648   2.074  1.00  0.00    -0.356 OA
HETATM   31  C   UNL     1      43.437 -19.415   2.313  1.00  0.00     0.210 C 
ENDBRANCH  27  30
ENDBRANCH   2  24
TORSDOF 6
ENDMDL
MODEL 5
REMARK VINA RESULT:      -8.1      3.548      7.597
REMARK  6 active torsions:
REMARK  status: ('A' for Active; 'I' for Inactive)
REMARK    1  A    between atoms: C_9  and  C_10 
REMARK    2  A    between atoms: C_10  and  N_11 
REMARK       I    between atoms: N_11  and  C_12 
REMARK    3  A    between atoms: N_11  and  C_22 
REMARK    4  A    between atoms: C_12  and  C_13 
REMARK    5  A    between atoms: C_16  and  O_17 
REMARK    6  A    between atoms: C_22  and  C_23 
ROOT
HETATM    1  N   UNL     1      41.515 -13.856   3.985  1.00  0.00    -0.341 N 
HETATM    2  C   UNL     1      40.404 -13.372   3.284  1.00  0.00     0.254 C 
HETATM    3  O   UNL     1      39.394 -12.930   3.829  1.00  0.00    -0.267 OA
ENDROOT
BRANCH   1   4
HETATM    4  C   UNL     1      41.436 -13.853   5.447  1.00  0.00     0.170 C 
BRANCH   4   5
HETATM    5  C   UNL     1      42.286 -12.784   6.067  1.00  0.00     0.029 A 
HETATM    6  C   UNL     1      43.623 -13.182   6.602  1.00  0.00     0.253 A 
HETATM    7  N   UNL     1      44.371 -12.202   7.205  1.00  0.00    -0.322 N 
HETATM    8  O   UNL     1      44.043 -14.335   6.529  1.00  0.00    -0.268 OA
HETATM    9  C   UNL     1      43.926 -10.889   7.393  1.00  0.00     0.045 A 
HETATM   10  H   UNL     1      45.273 -12.489   7.556  1.00  0.00     0.169 HD
HETATM   11  C   UNL     1      42.661 -10.524   6.923  1.00  0.00    -0.008 A 
HETATM   12  C   UNL     1      44.726  -9.966   8.063  1.00  0.00     0.031 A 
HETATM   13  C   UNL     1      42.189  -9.227   7.147  1.00  0.00     0.020 A 
HETATM   14  C   UNL     1      41.852 -11.520   6.228  1.00  0.00     0.028 A 
HETATM   15  C   UNL     1      42.970  -8.298   7.851  1.00  0.00    -0.061 A 
HETATM   16  C   UNL     1      42.460  -6.907   8.085  1.00  0.00     0.048 C 
HETATM   17  C   UNL     1      44.249  -8.672   8.286  1.00  0.00     0.009 A 
ENDBRANCH   4   5
ENDBRANCH   1   4
BRANCH   1  18
HETATM   18  C   UNL     1      42.453 -14.840   3.414  1.00  0.00     0.158 C 
BRANCH  18  19
HETATM   19  C   UNL     1      42.048 -16.298   3.724  1.00  0.00     0.139 C 
HETATM   20  O   UNL     1      43.004 -16.886   4.633  1.00  0.00    -0.384 OA
HETATM   21  C   UNL     1      43.717 -17.926   3.954  1.00  0.00     0.168 C 
HETATM   22  C   UNL     1      43.456 -17.739   2.478  1.00  0.00     0.029 C 
HETATM   23  C   UNL     1      42.056 -17.177   2.480  1.00  0.00     0.035 C 
ENDBRANCH  18  19
ENDBRANCH   1  18
BRANCH   2  24
HETATM   24  C   UNL     1      40.411 -13.413   1.802  1.00  0.00     0.032 A 
HETATM   25  C   UNL     1      40.930 -12.317   1.108  1.00  0.00     0.020 A 
HETATM   26  C   UNL     1      40.924 -12.316  -0.287  1.00  0.00     0.038 A 
HETATM   27  C   UNL     1      40.405 -13.403  -0.997  1.00  0.00     0.068 A 
HETATM   28  C   UNL     1      39.936 -14.520  -0.300  1.00  0.00     0.038 A 
HETATM   29  C   UNL     1      39.952 -14.531   1.100  1.00  0.00     0.020 A 
BRANCH  27  30
HETATM   30  O   UNL     1      40.431 -13.262  -2.357  1.00  0.00    -0.356 OA
HETATM   31  C   UNL     1      41.192 -12.173  -2.869  1.00  0.00     0.210 C 
ENDBRANCH  27  30
ENDBRANCH   2  24
TORSDOF 6
ENDMDL
MODEL 6
REMARK VINA RESULT:      -8.0      5.798      9.328
REMARK  6 active torsions:
REMARK  status: ('A' for Active; 'I' for Inactive)
REMARK    1  A    between atoms: C_9  and  C_10 
REMARK    2  A    between atoms: C_10  and  N_11 
REMARK       I    between atoms: N_11  and  C_12 
REMARK    3  A    between atoms: N_11  and  C_22 
REMARK    4  A    between atoms: C_12  and  C_13 
REMARK    5  A    between atoms: C_16  and  O_17 
REMARK    6  A    between atoms: C_22  and  C_23 
ROOT
HETATM    1  N   UNL     1      44.065  -9.944   8.005  1.00  0.00    -0.341 N 
HETATM    2  C   UNL     1      44.720 -10.246   9.204  1.00  0.00     0.254 C 
HETATM    3  O   UNL     1      45.817 -10.801   9.261  1.00  0.00    -0.267 OA
ENDROOT
BRANCH   1   4
HETATM    4  C   UNL     1      44.725 -10.347   6.763  1.00  0.00     0.170 C 
BRANCH   4   5
HETATM    5  C   UNL     1      44.137 -11.597   6.177  1.00  0.00     0.029 A 
HETATM    6  C   UNL     1      43.248 -11.456   4.986  1.00  0.00     0.253 A 
HETATM    7  N   UNL     1      42.685 -12.603   4.488  1.00  0.00    -0.322 N 
HETATM    8  O   UNL     1      43.007 -10.365   4.472  1.00  0.00    -0.268 OA
HETATM    9  C   UNL     1      42.851 -13.866   5.068  1.00  0.00     0.045 A 
HETATM   10  H   UNL     1      42.090 -12.489   3.680  1.00  0.00     0.169 HD
HETATM   11  C   UNL     1      43.656 -13.994   6.203  1.00  0.00    -0.008 A 
HETATM   12  C   UNL     1      42.200 -14.976   4.531  1.00  0.00     0.031 A 
HETATM   13  C   UNL     1      43.791 -15.244   6.816  1.00  0.00     0.020 A 
HETATM   14  C   UNL     1      44.319 -12.808   6.736  1.00  0.00     0.028 A 
HETATM   15  C   UNL     1      43.114 -16.362   6.307  1.00  0.00    -0.061 A 
HETATM   16  C   UNL     1      43.265 -17.701   6.967  1.00  0.00     0.048 C 
HETATM   17  C   UNL     1      42.336 -16.221   5.148  1.00  0.00     0.009 A 
ENDBRANCH   4   5
ENDBRANCH   1   4
BRANCH   1  18
HETATM   18  C   UNL     1      42.601  -9.793   7.913  1.00  0.00     0.158 C 
BRANCH  18  19
HETATM   19  C   UNL     1      42.180  -8.445   7.286  1.00  0.00     0.139 C 
HETATM   20  O   UNL     1      43.094  -7.408   7.703  1.00  0.00    -0.384 OA
HETATM   21  C   UNL     1      42.397  -6.480   8.543  1.00  0.00     0.168 C 
HETATM   22  C   UNL     1      41.111  -7.153   8.958  1.00  0.00     0.029 C 
HETATM   23  C   UNL     1      40.799  -7.999   7.750  1.00  0.00     0.035 C 
ENDBRANCH  18  19
ENDBRANCH   1  18
BRANCH   2  24
HETATM   24  C   UNL     1      44.063  -9.914  10.491  1.00  0.00     0.032 A 
HETATM   25  C   UNL     1      43.560 -10.959  11.271  1.00  0.00     0.020 A 
HETATM   26  C   UNL     1      42.913 -10.674  12.474  1.00  0.00     0.038 A 
HETATM   27  C   UNL     1      42.766  -9.353  12.907  1.00  0.00     0.068 A 
HETATM   28  C   UNL     1      43.318  -8.315  12.152  1.00  0.00     0.038 A 
HETATM   29  C   UNL     1      43.980  -8.597  10.951  1.00  0.00     0.020 A 
BRANCH  27  30
HETATM   30  O   UNL     1      42.087  -9.211  14.086  1.00  0.00    -0.356 OA
HETATM   31  C   UNL     1      40.876  -8.465  14.037  1.00  0.00     0.210 C 
ENDBRANCH  27  30
ENDBRANCH   2  24
TORSDOF 6
ENDMDL
MODEL 7
REMARK VINA RESULT:      -8.0      2.624      8.261
REMARK  6 active torsions:
REMARK  status: ('A' for Active; 'I' for Inactive)
REMARK    1  A    between atoms: C_9  and  C_10 
REMARK    2  A    between atoms: C_10  and  N_11 
REMARK       I    between atoms: N_11  and  C_12 
REMARK    3  A    between atoms: N_11  and  C_22 
REMARK    4  A    between atoms: C_12  and  C_13 
REMARK    5  A    between atoms: C_16  and  O_17 
REMARK    6  A    between atoms: C_22  and  C_23 
ROOT
HETATM    1  N   UNL     1      40.074 -13.001   1.527  1.00  0.00    -0.341 N 
HETATM    2  C   UNL     1      39.749 -11.684   1.873  1.00  0.00     0.254 C 
HETATM    3  O   UNL     1      39.091 -11.382   2.867  1.00  0.00    -0.267 OA
ENDROOT
BRANCH   1   4
HETATM    4  C   UNL     1      39.565 -14.064   2.395  1.00  0.00     0.170 C 
BRANCH   4   5
HETATM    5  C   UNL     1      40.655 -14.958   2.910  1.00  0.00     0.029 A 
HETATM    6  C   UNL     1      41.517 -14.439   4.014  1.00  0.00     0.253 A 
HETATM    7  N   UNL     1      42.535 -15.251   4.445  1.00  0.00    -0.322 N 
HETATM    8  O   UNL     1      41.346 -13.329   4.515  1.00  0.00    -0.268 OA
HETATM    9  C   UNL     1      42.838 -16.491   3.870  1.00  0.00     0.045 A 
HETATM   10  H   UNL     1      43.104 -14.886   5.195  1.00  0.00     0.169 HD
HETATM   11  C   UNL     1      42.053 -16.962   2.814  1.00  0.00    -0.008 A 
HETATM   12  C   UNL     1      43.924 -17.232   4.332  1.00  0.00     0.031 A 
HETATM   13  C   UNL     1      42.375 -18.178   2.203  1.00  0.00     0.020 A 
HETATM   14  C   UNL     1      40.925 -16.155   2.358  1.00  0.00     0.028 A 
HETATM   15  C   UNL     1      43.486 -18.917   2.635  1.00  0.00    -0.061 A 
HETATM   16  C   UNL     1      43.826 -20.222   1.978  1.00  0.00     0.048 C 
HETATM   17  C   UNL     1      44.243 -18.444   3.717  1.00  0.00     0.009 A 
ENDBRANCH   4   5
ENDBRANCH   1   4
BRANCH   1  18
HETATM   18  C   UNL     1      40.366 -13.413   0.142  1.00  0.00     0.158 C 
BRANCH  18  19
HETATM   19  C   UNL     1      39.088 -13.601  -0.705  1.00  0.00     0.139 C 
HETATM   20  O   UNL     1      39.138 -14.873  -1.388  1.00  0.00    -0.384 OA
HETATM   21  C   UNL     1      39.244 -14.643  -2.798  1.00  0.00     0.168 C 
HETATM   22  C   UNL     1      39.637 -13.196  -2.974  1.00  0.00     0.029 C 
HETATM   23  C   UNL     1      38.958 -12.544  -1.795  1.00  0.00     0.035 C 
ENDBRANCH  18  19
ENDBRANCH   1  18
BRANCH   2  24
HETATM   24  C   UNL     1      40.188 -10.576   0.990  1.00  0.00     0.032 A 
HETATM   25  C   UNL     1      39.221  -9.703   0.487  1.00  0.00     0.020 A 
HETATM   26  C   UNL     1      39.602  -8.667  -0.368  1.00  0.00     0.038 A 
HETATM   27  C   UNL     1      40.944  -8.494  -0.722  1.00  0.00     0.068 A 
HETATM   28  C   UNL     1      41.914  -9.336  -0.173  1.00  0.00     0.038 A 
HETATM   29  C   UNL     1      41.539 -10.369   0.694  1.00  0.00     0.020 A 
BRANCH  27  30
HETATM   30  O   UNL     1      41.176  -7.462  -1.588  1.00  0.00    -0.356 OA
HETATM   31  C   UNL     1      42.164  -6.515  -1.199  1.00  0.00     0.210 C 
ENDBRANCH  27  30
ENDBRANCH   2  24
TORSDOF 6
ENDMDL
MODEL 8
REMARK VINA RESULT:      -7.9      2.751      3.594
REMARK  6 active torsions:
REMARK  status: ('A' for Active; 'I' for Inactive)
REMARK    1  A    between atoms: C_9  and  C_10 
REMARK    2  A    between atoms: C_10  and  N_11 
REMARK       I    between atoms: N_11  and  C_12 
REMARK    3  A    between atoms: N_11  and  C_22 
REMARK    4  A    between atoms: C_12  and  C_13 
REMARK    5  A    between atoms: C_16  and  O_17 
REMARK    6  A    between atoms: C_22  and  C_23 
ROOT
HETATM    1  N   UNL     1      40.901 -14.222   2.363  1.00  0.00    -0.341 N 
HETATM    2  C   UNL     1      40.610 -15.540   2.735  1.00  0.00     0.254 C 
HETATM    3  O   UNL     1      39.478 -16.021   2.714  1.00  0.00    -0.267 OA
ENDROOT
BRANCH   1   4
HETATM    4  C   UNL     1      39.775 -13.379   1.958  1.00  0.00     0.170 C 
BRANCH   4   5
HETATM    5  C   UNL     1      39.961 -12.788   0.591  1.00  0.00     0.029 A 
HETATM    6  C   UNL     1      39.854 -13.704  -0.584  1.00  0.00     0.253 A 
HETATM    7  N   UNL     1      40.068 -13.157  -1.823  1.00  0.00    -0.322 N 
HETATM    8  O   UNL     1      39.602 -14.901  -0.462  1.00  0.00    -0.268 OA
HETATM    9  C   UNL     1      40.435 -11.823  -2.032  1.00  0.00     0.045 A 
HETATM   10  H   UNL     1      39.986 -13.791  -2.606  1.00  0.00     0.169 HD
HETATM   11  C   UNL     1      40.569 -10.973  -0.931  1.00  0.00    -0.008 A 
HETATM   12  C   UNL     1      40.686 -11.358  -3.321  1.00  0.00     0.031 A 
HETATM   13  C   UNL     1      40.979  -9.650  -1.126  1.00  0.00     0.020 A 
HETATM   14  C   UNL     1      40.298 -11.498   0.404  1.00  0.00     0.028 A 
HETATM   15  C   UNL     1      41.270  -9.179  -2.414  1.00  0.00    -0.061 A 
HETATM   16  C   UNL     1      41.707  -7.759  -2.617  1.00  0.00     0.048 C 
HETATM   17  C   UNL     1      41.099 -10.037  -3.510  1.00  0.00     0.009 A 
ENDBRANCH   4   5
ENDBRANCH   1   4
BRANCH   1  18
HETATM   18  C   UNL     1      42.077 -13.491   2.869  1.00  0.00     0.158 C 
BRANCH  18  19
HETATM   19  C   UNL     1      41.806 -12.790   4.219  1.00  0.00     0.139 C 
HETATM   20  O   UNL     1      41.710 -11.363   4.015  1.00  0.00    -0.384 OA
HETATM   21  C   UNL     1      42.819 -10.723   4.658  1.00  0.00     0.168 C 
HETATM   22  C   UNL     1      43.829 -11.804   4.959  1.00  0.00     0.029 C 
HETATM   23  C   UNL     1      42.941 -12.996   5.214  1.00  0.00     0.035 C 
ENDBRANCH  18  19
ENDBRANCH   1  18
BRANCH   2  24
HETATM   24  C   UNL     1      41.708 -16.415   3.213  1.00  0.00     0.032 A 
HETATM   25  C   UNL     1      42.480 -17.092   2.266  1.00  0.00     0.020 A 
HETATM   26  C   UNL     1      43.502 -17.944   2.689  1.00  0.00     0.038 A 
HETATM   27  C   UNL     1      43.762 -18.122   4.051  1.00  0.00     0.068 A 
HETATM   28  C   UNL     1      43.023 -17.401   4.993  1.00  0.00     0.038 A 
HETATM   29  C   UNL     1      42.005 -16.537   4.574  1.00  0.00     0.020 A 
BRANCH  27  30
HETATM   30  O   UNL     1      44.768 -19.005   4.329  1.00  0.00    -0.356 OA
HETATM   31  C   UNL     1      44.400 -20.192   5.023  1.00  0.00     0.210 C 
ENDBRANCH  27  30
ENDBRANCH   2  24
TORSDOF 6
ENDMDL
MODEL 9
REMARK VINA RESULT:      -7.6     14.886     17.014
REMARK  6 active torsions:
REMARK  status: ('A' for Active; 'I' for Inactive)
REMARK    1  A    between atoms: C_9  and  C_10 
REMARK    2  A    between atoms: C_10  and  N_11 
REMARK       I    between atoms: N_11  and  C_12 
REMARK    3  A    between atoms: N_11  and  C_22 
REMARK    4  A    between atoms: C_12  and  C_13 
REMARK    5  A    between atoms: C_16  and  O_17 
REMARK    6  A    between atoms: C_22  and  C_23 
ROOT
HETATM    1  N   UNL     1      45.885 -28.957  -0.353  1.00  0.00    -0.341 N 
HETATM    2  C   UNL     1      45.606 -29.228   0.991  1.00  0.00     0.254 C 
HETATM    3  O   UNL     1      44.472 -29.212   1.469  1.00  0.00    -0.267 OA
ENDROOT
BRANCH   1   4
HETATM    4  C   UNL     1      44.754 -28.608  -1.213  1.00  0.00     0.170 C 
BRANCH   4   5
HETATM    5  C   UNL     1      44.751 -29.377  -2.502  1.00  0.00     0.029 A 
HETATM    6  C   UNL     1      44.961 -28.612  -3.768  1.00  0.00     0.253 A 
HETATM    7  N   UNL     1      44.914 -29.322  -4.941  1.00  0.00    -0.322 N 
HETATM    8  O   UNL     1      45.153 -27.398  -3.777  1.00  0.00    -0.268 OA
HETATM    9  C   UNL     1      44.623 -30.689  -5.011  1.00  0.00     0.045 A 
HETATM   10  H   UNL     1      45.063 -28.789  -5.786  1.00  0.00     0.169 HD
HETATM   11  C   UNL     1      44.393 -31.399  -3.829  1.00  0.00    -0.008 A 
HETATM   12  C   UNL     1      44.542 -31.326  -6.248  1.00  0.00     0.031 A 
HETATM   13  C   UNL     1      44.057 -32.754  -3.893  1.00  0.00     0.020 A 
HETATM   14  C   UNL     1      44.486 -30.695  -2.554  1.00  0.00     0.028 A 
HETATM   15  C   UNL     1      43.937 -33.399  -5.132  1.00  0.00    -0.061 A 
HETATM   16  C   UNL     1      43.579 -34.855  -5.194  1.00  0.00     0.048 C 
HETATM   17  C   UNL     1      44.203 -32.680  -6.306  1.00  0.00     0.009 A 
ENDBRANCH   4   5
ENDBRANCH   1   4
BRANCH   1  18
HETATM   18  C   UNL     1      47.194 -28.456  -0.811  1.00  0.00     0.158 C 
BRANCH  18  19
HETATM   19  C   UNL     1      47.984 -29.506  -1.622  1.00  0.00     0.139 C 
HETATM   20  O   UNL     1      47.615 -30.834  -1.189  1.00  0.00    -0.384 OA
HETATM   21  C   UNL     1      48.741 -31.448  -0.551  1.00  0.00     0.168 C 
HETATM   22  C   UNL     1      49.726 -30.343  -0.252  1.00  0.00     0.029 C 
HETATM   23  C   UNL     1      49.487 -29.395  -1.402  1.00  0.00     0.035 C 
ENDBRANCH  18  19
ENDBRANCH   1  18
BRANCH   2  24
HETATM   24  C   UNL     1      46.726 -29.526   1.917  1.00  0.00     0.032 A 
HETATM   25  C   UNL     1      47.491 -28.462   2.400  1.00  0.00     0.020 A 
HETATM   26  C   UNL     1      48.568 -28.715   3.251  1.00  0.00     0.038 A 
HETATM   27  C   UNL     1      48.885 -30.024   3.627  1.00  0.00     0.068 A 
HETATM   28  C   UNL     1      48.085 -31.080   3.185  1.00  0.00     0.038 A 
HETATM   29  C   UNL     1      46.996 -30.830   2.341  1.00  0.00     0.020 A 
BRANCH  27  30
HETATM   30  O   UNL     1      49.980 -30.135   4.439  1.00  0.00    -0.356 OA
HETATM   31  C   UNL     1      50.239 -31.423   4.986  1.00  0.00     0.210 C 
ENDBRANCH  27  30
ENDBRANCH   2  24
TORSDOF 6
ENDMDL
MODEL 10
REMARK VINA RESULT:      -7.6     14.600     16.454
REMARK  6 active torsions:
REMARK  status: ('A' for Active; 'I' for Inactive)
REMARK    1  A    between atoms: C_9  and  C_10 
REMARK    2  A    between atoms: C_10  and  N_11 
REMARK       I    between atoms: N_11  and  C_12 
REMARK    3  A    between atoms: N_11  and  C_22 
REMARK    4  A    between atoms: C_12  and  C_13 
REMARK    5  A    between atoms: C_16  and  O_17 
REMARK    6  A    between atoms: C_22  and  C_23 
ROOT
HETATM    1  N   UNL     1      45.557 -28.613  -0.098  1.00  0.00    -0.341 N 
HETATM    2  C   UNL     1      46.927 -28.329  -0.110  1.00  0.00     0.254 C 
HETATM    3  O   UNL     1      47.481 -27.677  -0.994  1.00  0.00    -0.267 OA
ENDROOT
BRANCH   1   4
HETATM    4  C   UNL     1      44.763 -28.120  -1.224  1.00  0.00     0.170 C 
BRANCH   4   5
HETATM    5  C   UNL     1      44.763 -29.068  -2.387  1.00  0.00     0.029 A 
HETATM    6  C   UNL     1      45.007 -28.499  -3.747  1.00  0.00     0.253 A 
HETATM    7  N   UNL     1      44.963 -29.371  -4.805  1.00  0.00    -0.322 N 
HETATM    8  O   UNL     1      45.222 -27.303  -3.929  1.00  0.00    -0.268 OA
HETATM    9  C   UNL     1      44.646 -30.729  -4.682  1.00  0.00     0.045 A 
HETATM   10  H   UNL     1      45.134 -28.969  -5.716  1.00  0.00     0.169 HD
HETATM   11  C   UNL     1      44.385 -31.255  -3.413  1.00  0.00    -0.008 A 
HETATM   12  C   UNL     1      44.570 -31.537  -5.814  1.00  0.00     0.031 A 
HETATM   13  C   UNL     1      44.023 -32.599  -3.285  1.00  0.00     0.020 A 
HETATM   14  C   UNL     1      44.474 -30.375  -2.252  1.00  0.00     0.028 A 
HETATM   15  C   UNL     1      43.909 -33.416  -4.420  1.00  0.00    -0.061 A 
HETATM   16  C   UNL     1      43.523 -34.858  -4.276  1.00  0.00     0.048 C 
HETATM   17  C   UNL     1      44.206 -32.879  -5.681  1.00  0.00     0.009 A 
ENDBRANCH   4   5
ENDBRANCH   1   4
BRANCH   1  18
HETATM   18  C   UNL     1      44.990 -29.780   0.602  1.00  0.00     0.158 C 
BRANCH  18  19
HETATM   19  C   UNL     1      44.008 -29.382   1.725  1.00  0.00     0.139 C 
HETATM   20  O   UNL     1      44.140 -30.298   2.834  1.00  0.00    -0.384 OA
HETATM   21  C   UNL     1      42.934 -31.063   2.956  1.00  0.00     0.168 C 
HETATM   22  C   UNL     1      42.171 -30.877   1.667  1.00  0.00     0.029 C 
HETATM   23  C   UNL     1      42.554 -29.471   1.279  1.00  0.00     0.035 C 
ENDBRANCH  18  19
ENDBRANCH   1  18
BRANCH   2  24
HETATM   24  C   UNL     1      47.786 -28.860   0.976  1.00  0.00     0.032 A 
HETATM   25  C   UNL     1      47.680 -28.290   2.247  1.00  0.00     0.020 A 
HETATM   26  C   UNL     1      48.494 -28.751   3.282  1.00  0.00     0.038 A 
HETATM   27  C   UNL     1      49.414 -29.780   3.058  1.00  0.00     0.068 A 
HETATM   28  C   UNL     1      49.480 -30.384   1.800  1.00  0.00     0.038 A 
HETATM   29  C   UNL     1      48.655 -29.933   0.762  1.00  0.00     0.020 A 
BRANCH  27  30
HETATM   30  O   UNL     1      50.171 -30.116   4.147  1.00  0.00    -0.356 OA
HETATM   31  C   UNL     1      49.857 -31.349   4.785  1.00  0.00     0.210 C 
ENDBRANCH  27  30
ENDBRANCH   2  24
TORSDOF 6
ENDMDL
