MODEL 1
REMARK VINA RESULT:      -8.8      0.000      0.000
REMARK  8 active torsions:
REMARK  status: ('A' for Active; 'I' for Inactive)
REMARK    1  A    between atoms: C_4  and  C_5 
REMARK    2  A    between atoms: C_5  and  C_6 
REMARK    3  A    between atoms: C_10  and  S_11 
REMARK    4  A    between atoms: S_11  and  C_12 
REMARK    5  A    between atoms: C_12  and  C_13 
REMARK       I    between atoms: C_13  and  N_14 
REMARK    6  A    between atoms: N_14  and  N_15 
REMARK       I    between atoms: N_15  and  C_16 
REMARK       I    between atoms: C_16  and  N_17 
REMARK    7  A    between atoms: N_17  and  C_18 
REMARK    8  A    between atoms: C_18  and  C_19 
ROOT
HETATM    1  C   UNL     1      42.357 -11.291   4.651  1.00  0.00     0.245 C 
HETATM    2  N   UNL     1      43.426 -12.110   4.955  1.00  0.00    -0.265 N 
HETATM    3  O   UNL     1      42.480 -10.076   4.474  1.00  0.00    -0.271 OA
HETATM    4  H   UNL     1      43.262 -12.980   5.471  1.00  0.00     0.190 HD
ENDROOT
BRANCH   1   5
HETATM    5  C   UNL     1      41.005 -11.966   4.613  1.00  0.00     0.187 C 
BRANCH   5   6
HETATM    6  S   UNL     1      41.058 -13.523   5.525  1.00  0.00    -0.081 SA
BRANCH   6   7
HETATM    7  C   UNL     1      41.310 -14.749   4.335  1.00  0.00     0.185 A 
HETATM    8  N   UNL     1      40.425 -15.732   4.005  1.00  0.00    -0.254 N 
HETATM    9  N   UNL     1      40.962 -16.597   3.123  1.00  0.00    -0.157 NA
HETATM   10  H   UNL     1      39.486 -15.900   4.356  1.00  0.00     0.191 HD
HETATM   11  C   UNL     1      42.206 -16.108   2.999  1.00  0.00     0.153 A 
HETATM   12  N   UNL     1      42.434 -14.939   3.688  1.00  0.00    -0.206 NA
BRANCH  11  13
HETATM   13  C   UNL     1      43.259 -16.780   2.191  1.00  0.00     0.120 C 
BRANCH  13  14
HETATM   14  C   UNL     1      43.496 -18.118   2.854  1.00  0.00    -0.051 A 
HETATM   15  C   UNL     1      43.958 -18.193   4.178  1.00  0.00     0.007 A 
HETATM   16  C   UNL     1      44.206 -19.431   4.773  1.00  0.00     0.001 A 
HETATM   17  C   UNL     1      43.995 -20.607   4.054  1.00  0.00     0.000 A 
HETATM   18  C   UNL     1      43.539 -20.546   2.739  1.00  0.00     0.001 A 
HETATM   19  C   UNL     1      43.293 -19.310   2.140  1.00  0.00     0.007 A 
ENDBRANCH  13  14
ENDBRANCH  11  13
ENDBRANCH   6   7
ENDBRANCH   5   6
ENDBRANCH   1   5
BRANCH   2  20
HETATM   20  N   UNL     1      44.627 -11.448   5.324  1.00  0.00    -0.249 N 
HETATM   21  C   UNL     1      44.897 -11.410   6.678  1.00  0.00     0.335 C 
HETATM   22  N   UNL     1      45.876 -10.508   6.984  1.00  0.00    -0.338 N 
HETATM   23  O   UNL     1      44.297 -12.103   7.494  1.00  0.00    -0.246 OA
HETATM   24  H   UNL     1      46.517 -10.250   6.249  1.00  0.00     0.164 HD
HETATM   25  H   UNL     1      44.792 -10.582   4.812  1.00  0.00     0.192 HD
BRANCH  22  26
HETATM   26  C   UNL     1      46.339 -10.346   8.342  1.00  0.00     0.162 C 
BRANCH  26  27
HETATM   27  C   UNL     1      45.358  -9.525   9.135  1.00  0.00    -0.040 A 
HETATM   28  C   UNL     1      44.986  -9.932  10.425  1.00  0.00     0.009 A 
HETATM   29  C   UNL     1      44.058  -9.193  11.162  1.00  0.00     0.001 A 
HETATM   30  C   UNL     1      43.489  -8.046  10.615  1.00  0.00     0.000 A 
HETATM   31  C   UNL     1      43.843  -7.637   9.329  1.00  0.00     0.001 A 
HETATM   32  C   UNL     1      44.771  -8.375   8.590  1.00  0.00     0.009 A 
ENDBRANCH  26  27
ENDBRANCH  22  26
ENDBRANCH   2  20
TORSDOF 8
ENDMDL
MODEL 2
REMARK VINA RESULT:      -8.8      1.876      9.456
REMARK  8 active torsions:
REMARK  status: ('A' for Active; 'I' for Inactive)
REMARK    1  A    between atoms: C_4  and  C_5 
REMARK    2  A    between atoms: C_5  and  C_6 
REMARK    3  A    between atoms: C_10  and  S_11 
REMARK    4  A    between atoms: S_11  and  C_12 
REMARK    5  A    between atoms: C_12  and  C_13 
REMARK       I    between atoms: C_13  and  N_14 
REMARK    6  A    between atoms: N_14  and  N_15 
REMARK       I    between atoms: N_15  and  C_16 
REMARK       I    between atoms: C_16  and  N_17 
REMARK    7  A    between atoms: N_17  and  C_18 
REMARK    8  A    between atoms: C_18  and  C_19 
ROOT
HETATM    1  C   UNL     1      39.832 -12.869   5.475  1.00  0.00     0.245 C 
HETATM    2  N   UNL     1      40.150 -14.065   6.089  1.00  0.00    -0.265 N 
HETATM    3  O   UNL     1      39.576 -12.788   4.271  1.00  0.00    -0.271 OA
HETATM    4  H   UNL     1      40.724 -14.057   6.937  1.00  0.00     0.190 HD
ENDROOT
BRANCH   1   5
HETATM    5  C   UNL     1      39.880 -11.646   6.361  1.00  0.00     0.187 C 
BRANCH   5   6
HETATM    6  S   UNL     1      41.149 -10.502   5.777  1.00  0.00    -0.081 SA
BRANCH   6   7
HETATM    7  C   UNL     1      42.565 -10.874   6.693  1.00  0.00     0.185 A 
HETATM    8  N   UNL     1      43.051 -12.123   6.937  1.00  0.00    -0.254 N 
HETATM    9  N   UNL     1      44.105 -12.083   7.774  1.00  0.00    -0.157 NA
HETATM   10  H   UNL     1      42.707 -13.024   6.615  1.00  0.00     0.191 HD
HETATM   11  C   UNL     1      44.174 -10.770   8.047  1.00  0.00     0.153 A 
HETATM   12  N   UNL     1      43.277  -9.992   7.353  1.00  0.00    -0.206 NA
BRANCH  11  13
HETATM   13  C   UNL     1      45.136 -10.201   9.029  1.00  0.00     0.120 C 
BRANCH  13  14
HETATM   14  C   UNL     1      44.322  -9.867  10.259  1.00  0.00    -0.051 A 
HETATM   15  C   UNL     1      43.852 -10.882  11.107  1.00  0.00     0.007 A 
HETATM   16  C   UNL     1      43.073 -10.570  12.223  1.00  0.00     0.001 A 
HETATM   17  C   UNL     1      42.756  -9.241  12.504  1.00  0.00     0.000 A 
HETATM   18  C   UNL     1      43.215  -8.225  11.669  1.00  0.00     0.001 A 
HETATM   19  C   UNL     1      43.992  -8.535  10.551  1.00  0.00     0.007 A 
ENDBRANCH  13  14
ENDBRANCH  11  13
ENDBRANCH   6   7
ENDBRANCH   5   6
ENDBRANCH   1   5
BRANCH   2  20
HETATM   20  N   UNL     1      40.439 -15.149   5.218  1.00  0.00    -0.249 N 
HETATM   21  C   UNL     1      41.767 -15.299   4.869  1.00  0.00     0.335 C 
HETATM   22  N   UNL     1      41.929 -16.142   3.807  1.00  0.00    -0.338 N 
HETATM   23  O   UNL     1      42.675 -14.713   5.449  1.00  0.00    -0.246 OA
HETATM   24  H   UNL     1      41.195 -16.809   3.625  1.00  0.00     0.164 HD
HETATM   25  H   UNL     1      39.763 -15.259   4.462  1.00  0.00     0.192 HD
BRANCH  22  26
HETATM   26  C   UNL     1      43.246 -16.468   3.311  1.00  0.00     0.162 C 
BRANCH  26  27
HETATM   27  C   UNL     1      43.452 -17.959   3.314  1.00  0.00    -0.040 A 
HETATM   28  C   UNL     1      43.107 -18.716   2.185  1.00  0.00     0.009 A 
HETATM   29  C   UNL     1      43.270 -20.102   2.183  1.00  0.00     0.001 A 
HETATM   30  C   UNL     1      43.774 -20.745   3.311  1.00  0.00     0.000 A 
HETATM   31  C   UNL     1      44.111 -20.005   4.443  1.00  0.00     0.001 A 
HETATM   32  C   UNL     1      43.948 -18.617   4.447  1.00  0.00     0.009 A 
ENDBRANCH  26  27
ENDBRANCH  22  26
ENDBRANCH   2  20
TORSDOF 8
ENDMDL
MODEL 3
REMARK VINA RESULT:      -8.8      1.773      9.303
REMARK  8 active torsions:
REMARK  status: ('A' for Active; 'I' for Inactive)
REMARK    1  A    between atoms: C_4  and  C_5 
REMARK    2  A    between atoms: C_5  and  C_6 
REMARK    3  A    between atoms: C_10  and  S_11 
REMARK    4  A    between atoms: S_11  and  C_12 
REMARK    5  A    between atoms: C_12  and  C_13 
REMARK       I    between atoms: C_13  and  N_14 
REMARK    6  A    between atoms: N_14  and  N_15 
REMARK       I    between atoms: N_15  and  C_16 
REMARK       I    between atoms: C_16  and  N_17 
REMARK    7  A    between atoms: N_17  and  C_18 
REMARK    8  A    between atoms: C_18  and  C_19 
ROOT
HETATM    1  C   UNL     1      42.457 -11.338   3.615  1.00  0.00     0.245 C 
HETATM    2  N   UNL     1      41.612 -12.424   3.737  1.00  0.00    -0.265 N 
HETATM    3  O   UNL     1      43.514 -11.387   2.981  1.00  0.00    -0.271 OA
HETATM    4  H   UNL     1      40.993 -12.490   4.550  1.00  0.00     0.190 HD
ENDROOT
BRANCH   1   5
HETATM    5  C   UNL     1      42.039 -10.096   4.368  1.00  0.00     0.187 C 
BRANCH   5   6
HETATM    6  S   UNL     1      41.419 -10.537   6.005  1.00  0.00    -0.081 SA
BRANCH   6   7
HETATM    7  C   UNL     1      42.821 -10.855   6.963  1.00  0.00     0.185 A 
HETATM    8  N   UNL     1      43.397 -12.076   7.151  1.00  0.00    -0.254 N 
HETATM    9  N   UNL     1      44.407 -12.008   8.039  1.00  0.00    -0.157 NA
HETATM   10  H   UNL     1      43.142 -12.978   6.757  1.00  0.00     0.191 HD
HETATM   11  C   UNL     1      44.357 -10.716   8.396  1.00  0.00     0.153 A 
HETATM   12  N   UNL     1      43.430  -9.966   7.710  1.00  0.00    -0.206 NA
BRANCH  11  13
HETATM   13  C   UNL     1      45.226 -10.139   9.457  1.00  0.00     0.120 C 
BRANCH  13  14
HETATM   14  C   UNL     1      44.307  -9.814  10.612  1.00  0.00    -0.051 A 
HETATM   15  C   UNL     1      43.986  -8.482  10.924  1.00  0.00     0.007 A 
HETATM   16  C   UNL     1      43.163  -8.188  12.011  1.00  0.00     0.001 A 
HETATM   17  C   UNL     1      42.650  -9.217  12.799  1.00  0.00     0.000 A 
HETATM   18  C   UNL     1      42.961 -10.542  12.502  1.00  0.00     0.001 A 
HETATM   19  C   UNL     1      43.787 -10.840  11.416  1.00  0.00     0.007 A 
ENDBRANCH  13  14
ENDBRANCH  11  13
ENDBRANCH   6   7
ENDBRANCH   5   6
ENDBRANCH   1   5
BRANCH   2  20
HETATM   20  N   UNL     1      42.149 -13.674   3.329  1.00  0.00    -0.249 N 
HETATM   21  C   UNL     1      42.505 -14.534   4.349  1.00  0.00     0.335 C 
HETATM   22  N   UNL     1      43.288 -15.562   3.908  1.00  0.00    -0.338 N 
HETATM   23  O   UNL     1      42.161 -14.359   5.514  1.00  0.00    -0.246 OA
HETATM   24  H   UNL     1      43.235 -15.801   2.929  1.00  0.00     0.164 HD
HETATM   25  H   UNL     1      42.808 -13.603   2.554  1.00  0.00     0.192 HD
BRANCH  22  26
HETATM   26  C   UNL     1      43.733 -16.598   4.810  1.00  0.00     0.162 C 
BRANCH  26  27
HETATM   27  C   UNL     1      43.681 -17.941   4.133  1.00  0.00    -0.040 A 
HETATM   28  C   UNL     1      44.076 -19.092   4.829  1.00  0.00     0.009 A 
HETATM   29  C   UNL     1      44.056 -20.341   4.205  1.00  0.00     0.001 A 
HETATM   30  C   UNL     1      43.647 -20.449   2.878  1.00  0.00     0.000 A 
HETATM   31  C   UNL     1      43.262 -19.310   2.172  1.00  0.00     0.001 A 
HETATM   32  C   UNL     1      43.281 -18.060   2.795  1.00  0.00     0.009 A 
ENDBRANCH  26  27
ENDBRANCH  22  26
ENDBRANCH   2  20
TORSDOF 8
ENDMDL
MODEL 4
REMARK VINA RESULT:      -8.8      2.305      2.999
REMARK  8 active torsions:
REMARK  status: ('A' for Active; 'I' for Inactive)
REMARK    1  A    between atoms: C_4  and  C_5 
REMARK    2  A    between atoms: C_5  and  C_6 
REMARK    3  A    between atoms: C_10  and  S_11 
REMARK    4  A    between atoms: S_11  and  C_12 
REMARK    5  A    between atoms: C_12  and  C_13 
REMARK       I    between atoms: C_13  and  N_14 
REMARK    6  A    between atoms: N_14  and  N_15 
REMARK       I    between atoms: N_15  and  C_16 
REMARK       I    between atoms: C_16  and  N_17 
REMARK    7  A    between atoms: N_17  and  C_18 
REMARK    8  A    between atoms: C_18  and  C_19 
ROOT
HETATM    1  C   UNL     1      43.192 -11.618   6.634  1.00  0.00     0.245 C 
HETATM    2  N   UNL     1      43.432 -11.605   7.994  1.00  0.00    -0.265 N 
HETATM    3  O   UNL     1      42.925 -10.595   5.997  1.00  0.00    -0.271 OA
HETATM    4  H   UNL     1      43.255 -12.452   8.543  1.00  0.00     0.190 HD
ENDROOT
BRANCH   1   5
HETATM    5  C   UNL     1      43.211 -12.979   5.977  1.00  0.00     0.187 C 
BRANCH   5   6
HETATM    6  S   UNL     1      41.528 -13.608   5.797  1.00  0.00    -0.081 SA
BRANCH   6   7
HETATM    7  C   UNL     1      41.601 -14.772   4.523  1.00  0.00     0.185 A 
HETATM    8  N   UNL     1      40.596 -15.615   4.155  1.00  0.00    -0.254 N 
HETATM    9  N   UNL     1      41.004 -16.476   3.204  1.00  0.00    -0.157 NA
HETATM   10  H   UNL     1      39.650 -15.691   4.522  1.00  0.00     0.191 HD
HETATM   11  C   UNL     1      42.295 -16.135   3.076  1.00  0.00     0.153 A 
HETATM   12  N   UNL     1      42.680 -15.052   3.832  1.00  0.00    -0.206 NA
BRANCH  11  13
HETATM   13  C   UNL     1      43.240 -16.873   2.195  1.00  0.00     0.120 C 
BRANCH  13  14
HETATM   14  C   UNL     1      43.483 -18.202   2.873  1.00  0.00    -0.051 A 
HETATM   15  C   UNL     1      43.950 -18.260   4.196  1.00  0.00     0.007 A 
HETATM   16  C   UNL     1      44.203 -19.490   4.805  1.00  0.00     0.001 A 
HETATM   17  C   UNL     1      43.992 -20.675   4.101  1.00  0.00     0.000 A 
HETATM   18  C   UNL     1      43.530 -20.632   2.788  1.00  0.00     0.001 A 
HETATM   19  C   UNL     1      43.279 -19.403   2.175  1.00  0.00     0.007 A 
ENDBRANCH  13  14
ENDBRANCH  11  13
ENDBRANCH   6   7
ENDBRANCH   5   6
ENDBRANCH   1   5
BRANCH   2  20
HETATM   20  N   UNL     1      43.088 -10.406   8.671  1.00  0.00    -0.249 N 
HETATM   21  C   UNL     1      43.854 -10.105   9.781  1.00  0.00     0.335 C 
HETATM   22  N   UNL     1      43.284  -9.132  10.552  1.00  0.00    -0.338 N 
HETATM   23  O   UNL     1      44.910 -10.676  10.033  1.00  0.00    -0.246 OA
HETATM   24  H   UNL     1      42.624  -8.512  10.107  1.00  0.00     0.164 HD
HETATM   25  H   UNL     1      42.083 -10.265   8.770  1.00  0.00     0.192 HD
BRANCH  22  26
HETATM   26  C   UNL     1      43.947  -8.640  11.737  1.00  0.00     0.162 C 
BRANCH  26  27
HETATM   27  C   UNL     1      42.962  -8.495  12.866  1.00  0.00    -0.040 A 
HETATM   28  C   UNL     1      43.137  -7.485  13.822  1.00  0.00     0.009 A 
HETATM   29  C   UNL     1      42.245  -7.354  14.888  1.00  0.00     0.001 A 
HETATM   30  C   UNL     1      41.174  -8.236  15.011  1.00  0.00     0.000 A 
HETATM   31  C   UNL     1      40.995  -9.252  14.073  1.00  0.00     0.001 A 
HETATM   32  C   UNL     1      41.887  -9.384  13.005  1.00  0.00     0.009 A 
ENDBRANCH  26  27
ENDBRANCH  22  26
ENDBRANCH   2  20
TORSDOF 8
ENDMDL
MODEL 5
REMARK VINA RESULT:      -8.5      1.678      2.318
REMARK  8 active torsions:
REMARK  status: ('A' for Active; 'I' for Inactive)
REMARK    1  A    between atoms: C_4  and  C_5 
REMARK    2  A    between atoms: C_5  and  C_6 
REMARK    3  A    between atoms: C_10  and  S_11 
REMARK    4  A    between atoms: S_11  and  C_12 
REMARK    5  A    between atoms: C_12  and  C_13 
REMARK       I    between atoms: C_13  and  N_14 
REMARK    6  A    between atoms: N_14  and  N_15 
REMARK       I    between atoms: N_15  and  C_16 
REMARK       I    between atoms: C_16  and  N_17 
REMARK    7  A    between atoms: N_17  and  C_18 
REMARK    8  A    between atoms: C_18  and  C_19 
ROOT
HETATM    1  C   UNL     1      40.168 -12.421   5.475  1.00  0.00     0.245 C 
HETATM    2  N   UNL     1      41.355 -11.720   5.558  1.00  0.00    -0.265 N 
HETATM    3  O   UNL     1      39.726 -13.091   6.412  1.00  0.00    -0.271 OA
HETATM    4  H   UNL     1      41.882 -11.522   4.703  1.00  0.00     0.190 HD
ENDROOT
BRANCH   1   5
HETATM    5  C   UNL     1      39.472 -12.374   4.135  1.00  0.00     0.187 C 
BRANCH   5   6
HETATM    6  S   UNL     1      40.492 -13.163   2.872  1.00  0.00    -0.081 SA
BRANCH   6   7
HETATM    7  C   UNL     1      41.120 -14.594   3.609  1.00  0.00     0.185 A 
HETATM    8  N   UNL     1      40.399 -15.506   4.320  1.00  0.00    -0.254 N 
HETATM    9  N   UNL     1      41.197 -16.447   4.858  1.00  0.00    -0.157 NA
HETATM   10  H   UNL     1      39.401 -15.531   4.513  1.00  0.00     0.191 HD
HETATM   11  C   UNL     1      42.409 -16.015   4.477  1.00  0.00     0.153 A 
HETATM   12  N   UNL     1      42.392 -14.908   3.659  1.00  0.00    -0.206 NA
BRANCH  11  13
HETATM   13  C   UNL     1      43.672 -16.670   4.910  1.00  0.00     0.120 C 
BRANCH  13  14
HETATM   14  C   UNL     1      43.700 -18.011   4.212  1.00  0.00    -0.051 A 
HETATM   15  C   UNL     1      43.364 -18.122   2.853  1.00  0.00     0.007 A 
HETATM   16  C   UNL     1      43.362 -19.367   2.223  1.00  0.00     0.001 A 
HETATM   17  C   UNL     1      43.695 -20.515   2.941  1.00  0.00     0.000 A 
HETATM   18  C   UNL     1      44.029 -20.419   4.290  1.00  0.00     0.001 A 
HETATM   19  C   UNL     1      44.031 -19.176   4.924  1.00  0.00     0.007 A 
ENDBRANCH  13  14
ENDBRANCH  11  13
ENDBRANCH   6   7
ENDBRANCH   5   6
ENDBRANCH   1   5
BRANCH   2  20
HETATM   20  N   UNL     1      42.177 -12.026   6.675  1.00  0.00    -0.249 N 
HETATM   21  C   UNL     1      42.901 -10.970   7.192  1.00  0.00     0.335 C 
HETATM   22  N   UNL     1      43.887 -11.386   8.041  1.00  0.00    -0.338 N 
HETATM   23  O   UNL     1      42.677  -9.802   6.891  1.00  0.00    -0.246 OA
HETATM   24  H   UNL     1      43.778 -12.292   8.472  1.00  0.00     0.164 HD
HETATM   25  H   UNL     1      42.678 -12.909   6.584  1.00  0.00     0.192 HD
BRANCH  22  26
HETATM   26  C   UNL     1      44.731 -10.434   8.723  1.00  0.00     0.162 C 
BRANCH  26  27
HETATM   27  C   UNL     1      44.076  -9.970   9.996  1.00  0.00    -0.040 A 
HETATM   28  C   UNL     1      43.847  -8.603  10.208  1.00  0.00     0.009 A 
HETATM   29  C   UNL     1      43.262  -8.157  11.394  1.00  0.00     0.001 A 
HETATM   30  C   UNL     1      42.906  -9.072  12.382  1.00  0.00     0.000 A 
HETATM   31  C   UNL     1      43.137 -10.433  12.187  1.00  0.00     0.001 A 
HETATM   32  C   UNL     1      43.723 -10.882  11.000  1.00  0.00     0.009 A 
ENDBRANCH  26  27
ENDBRANCH  22  26
ENDBRANCH   2  20
TORSDOF 8
ENDMDL
MODEL 6
REMARK VINA RESULT:      -8.4      3.064      7.728
REMARK  8 active torsions:
REMARK  status: ('A' for Active; 'I' for Inactive)
REMARK    1  A    between atoms: C_4  and  C_5 
REMARK    2  A    between atoms: C_5  and  C_6 
REMARK    3  A    between atoms: C_10  and  S_11 
REMARK    4  A    between atoms: S_11  and  C_12 
REMARK    5  A    between atoms: C_12  and  C_13 
REMARK       I    between atoms: C_13  and  N_14 
REMARK    6  A    between atoms: N_14  and  N_15 
REMARK       I    between atoms: N_15  and  C_16 
REMARK       I    between atoms: C_16  and  N_17 
REMARK    7  A    between atoms: N_17  and  C_18 
REMARK    8  A    between atoms: C_18  and  C_19 
ROOT
HETATM    1  C   UNL     1      39.533 -13.052   2.743  1.00  0.00     0.245 C 
HETATM    2  N   UNL     1      39.797 -13.988   3.724  1.00  0.00    -0.265 N 
HETATM    3  O   UNL     1      39.384 -13.357   1.557  1.00  0.00    -0.271 OA
HETATM    4  H   UNL     1      40.295 -13.701   4.572  1.00  0.00     0.190 HD
ENDROOT
BRANCH   1   5
HETATM    5  C   UNL     1      39.504 -11.613   3.203  1.00  0.00     0.187 C 
BRANCH   5   6
HETATM    6  S   UNL     1      40.976 -10.742   2.625  1.00  0.00    -0.081 SA
BRANCH   6   7
HETATM    7  C   UNL     1      42.245 -11.211   3.700  1.00  0.00     0.185 A 
HETATM    8  N   UNL     1      43.511 -11.557   3.334  1.00  0.00    -0.254 N 
HETATM    9  N   UNL     1      44.227 -11.979   4.394  1.00  0.00    -0.157 NA
HETATM   10  H   UNL     1      43.935 -11.572   2.410  1.00  0.00     0.191 HD
HETATM   11  C   UNL     1      43.311 -11.916   5.373  1.00  0.00     0.153 A 
HETATM   12  N   UNL     1      42.098 -11.393   4.990  1.00  0.00    -0.206 NA
BRANCH  11  13
HETATM   13  C   UNL     1      43.581 -12.382   6.760  1.00  0.00     0.120 C 
BRANCH  13  14
HETATM   14  C   UNL     1      43.212 -13.849   6.780  1.00  0.00    -0.051 A 
HETATM   15  C   UNL     1      44.206 -14.840   6.768  1.00  0.00     0.007 A 
HETATM   16  C   UNL     1      43.858 -16.192   6.755  1.00  0.00     0.001 A 
HETATM   17  C   UNL     1      42.515 -16.568   6.754  1.00  0.00     0.000 A 
HETATM   18  C   UNL     1      41.520 -15.594   6.765  1.00  0.00     0.001 A 
HETATM   19  C   UNL     1      41.864 -14.242   6.775  1.00  0.00     0.007 A 
ENDBRANCH  13  14
ENDBRANCH  11  13
ENDBRANCH   6   7
ENDBRANCH   5   6
ENDBRANCH   1   5
BRANCH   2  20
HETATM   20  N   UNL     1      40.161 -15.281   3.262  1.00  0.00    -0.249 N 
HETATM   21  C   UNL     1      41.509 -15.478   3.037  1.00  0.00     0.335 C 
HETATM   22  N   UNL     1      41.750 -16.610   2.311  1.00  0.00    -0.338 N 
HETATM   23  O   UNL     1      42.369 -14.700   3.435  1.00  0.00    -0.246 OA
HETATM   24  H   UNL     1      41.045 -17.331   2.324  1.00  0.00     0.164 HD
HETATM   25  H   UNL     1      39.530 -15.656   2.555  1.00  0.00     0.192 HD
BRANCH  22  26
HETATM   26  C   UNL     1      43.100 -17.022   2.003  1.00  0.00     0.162 C 
BRANCH  26  27
HETATM   27  C   UNL     1      43.427 -18.311   2.706  1.00  0.00    -0.040 A 
HETATM   28  C   UNL     1      43.974 -18.286   3.997  1.00  0.00     0.009 A 
HETATM   29  C   UNL     1      44.305 -19.473   4.652  1.00  0.00     0.001 A 
HETATM   30  C   UNL     1      44.099 -20.697   4.020  1.00  0.00     0.000 A 
HETATM   31  C   UNL     1      43.566 -20.736   2.732  1.00  0.00     0.001 A 
HETATM   32  C   UNL     1      43.234 -19.548   2.075  1.00  0.00     0.009 A 
ENDBRANCH  26  27
ENDBRANCH  22  26
ENDBRANCH   2  20
TORSDOF 8
ENDMDL
MODEL 7
REMARK VINA RESULT:      -8.4      3.826      8.065
REMARK  8 active torsions:
REMARK  status: ('A' for Active; 'I' for Inactive)
REMARK    1  A    between atoms: C_4  and  C_5 
REMARK    2  A    between atoms: C_5  and  C_6 
REMARK    3  A    between atoms: C_10  and  S_11 
REMARK    4  A    between atoms: S_11  and  C_12 
REMARK    5  A    between atoms: C_12  and  C_13 
REMARK       I    between atoms: C_13  and  N_14 
REMARK    6  A    between atoms: N_14  and  N_15 
REMARK       I    between atoms: N_15  and  C_16 
REMARK       I    between atoms: C_16  and  N_17 
REMARK    7  A    between atoms: N_17  and  C_18 
REMARK    8  A    between atoms: C_18  and  C_19 
ROOT
HETATM    1  C   UNL     1      39.679 -13.691   0.639  1.00  0.00     0.245 C 
HETATM    2  N   UNL     1      39.564 -14.198   1.918  1.00  0.00    -0.265 N 
HETATM    3  O   UNL     1      40.038 -14.380  -0.319  1.00  0.00    -0.271 OA
HETATM    4  H   UNL     1      39.661 -13.568   2.720  1.00  0.00     0.190 HD
ENDROOT
BRANCH   1   5
HETATM    5  C   UNL     1      39.402 -12.212   0.493  1.00  0.00     0.187 C 
BRANCH   5   6
HETATM    6  S   UNL     1      40.946 -11.278   0.552  1.00  0.00    -0.081 SA
BRANCH   6   7
HETATM    7  C   UNL     1      41.302 -11.075   2.230  1.00  0.00     0.185 A 
HETATM    8  N   UNL     1      42.449 -10.546   2.742  1.00  0.00    -0.254 N 
HETATM    9  N   UNL     1      42.467 -10.628   4.086  1.00  0.00    -0.157 NA
HETATM   10  H   UNL     1      43.256 -10.161   2.257  1.00  0.00     0.191 HD
HETATM   11  C   UNL     1      41.314 -11.272   4.326  1.00  0.00     0.153 A 
HETATM   12  N   UNL     1      40.547 -11.510   3.209  1.00  0.00    -0.206 NA
BRANCH  11  13
HETATM   13  C   UNL     1      40.901 -11.704   5.688  1.00  0.00     0.120 C 
BRANCH  13  14
HETATM   14  C   UNL     1      41.308 -13.156   5.802  1.00  0.00    -0.051 A 
HETATM   15  C   UNL     1      40.342 -14.176   5.803  1.00  0.00     0.007 A 
HETATM   16  C   UNL     1      40.722 -15.511   5.940  1.00  0.00     0.001 A 
HETATM   17  C   UNL     1      42.069 -15.844   6.077  1.00  0.00     0.000 A 
HETATM   18  C   UNL     1      43.037 -14.843   6.078  1.00  0.00     0.001 A 
HETATM   19  C   UNL     1      42.660 -13.505   5.944  1.00  0.00     0.007 A 
ENDBRANCH  13  14
ENDBRANCH  11  13
ENDBRANCH   6   7
ENDBRANCH   5   6
ENDBRANCH   1   5
BRANCH   2  20
HETATM   20  N   UNL     1      40.140 -15.479   2.130  1.00  0.00    -0.249 N 
HETATM   21  C   UNL     1      41.497 -15.489   2.385  1.00  0.00     0.335 C 
HETATM   22  N   UNL     1      42.035 -16.739   2.267  1.00  0.00    -0.338 N 
HETATM   23  O   UNL     1      42.128 -14.474   2.662  1.00  0.00    -0.246 OA
HETATM   24  H   UNL     1      41.411 -17.525   2.370  1.00  0.00     0.164 HD
HETATM   25  H   UNL     1      39.801 -16.192   1.485  1.00  0.00     0.192 HD
BRANCH  22  26
HETATM   26  C   UNL     1      43.434 -16.975   2.536  1.00  0.00     0.162 C 
BRANCH  26  27
HETATM   27  C   UNL     1      43.635 -18.360   3.088  1.00  0.00    -0.040 A 
HETATM   28  C   UNL     1      43.415 -19.478   2.271  1.00  0.00     0.009 A 
HETATM   29  C   UNL     1      43.574 -20.769   2.777  1.00  0.00     0.001 A 
HETATM   30  C   UNL     1      43.949 -20.955   4.105  1.00  0.00     0.000 A 
HETATM   31  C   UNL     1      44.162 -19.852   4.931  1.00  0.00     0.001 A 
HETATM   32  C   UNL     1      44.003 -18.558   4.426  1.00  0.00     0.009 A 
ENDBRANCH  26  27
ENDBRANCH  22  26
ENDBRANCH   2  20
TORSDOF 8
ENDMDL
MODEL 8
REMARK VINA RESULT:      -8.3      1.955      9.774
REMARK  8 active torsions:
REMARK  status: ('A' for Active; 'I' for Inactive)
REMARK    1  A    between atoms: C_4  and  C_5 
REMARK    2  A    between atoms: C_5  and  C_6 
REMARK    3  A    between atoms: C_10  and  S_11 
REMARK    4  A    between atoms: S_11  and  C_12 
REMARK    5  A    between atoms: C_12  and  C_13 
REMARK       I    between atoms: C_13  and  N_14 
REMARK    6  A    between atoms: N_14  and  N_15 
REMARK       I    between atoms: N_15  and  C_16 
REMARK       I    between atoms: C_16  and  N_17 
REMARK    7  A    between atoms: N_17  and  C_18 
REMARK    8  A    between atoms: C_18  and  C_19 
ROOT
HETATM    1  C   UNL     1      41.530 -13.134   5.751  1.00  0.00     0.245 C 
HETATM    2  N   UNL     1      42.055 -13.855   6.806  1.00  0.00    -0.265 N 
HETATM    3  O   UNL     1      40.798 -13.642   4.898  1.00  0.00    -0.271 OA
HETATM    4  H   UNL     1      42.930 -13.547   7.239  1.00  0.00     0.190 HD
ENDROOT
BRANCH   1   5
HETATM    5  C   UNL     1      41.965 -11.689   5.665  1.00  0.00     0.187 C 
BRANCH   5   6
HETATM    6  S   UNL     1      43.644 -11.580   5.010  1.00  0.00    -0.081 SA
BRANCH   6   7
HETATM    7  C   UNL     1      44.626 -11.061   6.333  1.00  0.00     0.185 A 
HETATM    8  N   UNL     1      45.987 -10.998   6.338  1.00  0.00    -0.254 N 
HETATM    9  N   UNL     1      46.456 -10.662   7.555  1.00  0.00    -0.157 NA
HETATM   10  H   UNL     1      46.646 -11.203   5.592  1.00  0.00     0.191 HD
HETATM   11  C   UNL     1      45.319 -10.587   8.264  1.00  0.00     0.153 A 
HETATM   12  N   UNL     1      44.171 -10.771   7.528  1.00  0.00    -0.206 NA
BRANCH  11  13
HETATM   13  C   UNL     1      45.299 -10.335   9.730  1.00  0.00     0.120 C 
BRANCH  13  14
HETATM   14  C   UNL     1      44.472  -9.083   9.922  1.00  0.00    -0.051 A 
HETATM   15  C   UNL     1      43.705  -8.899  11.084  1.00  0.00     0.007 A 
HETATM   16  C   UNL     1      42.919  -7.756  11.240  1.00  0.00     0.001 A 
HETATM   17  C   UNL     1      42.889  -6.786  10.240  1.00  0.00     0.000 A 
HETATM   18  C   UNL     1      43.644  -6.957   9.082  1.00  0.00     0.001 A 
HETATM   19  C   UNL     1      44.429  -8.100   8.921  1.00  0.00     0.007 A 
ENDBRANCH  13  14
ENDBRANCH  11  13
ENDBRANCH   6   7
ENDBRANCH   5   6
ENDBRANCH   1   5
BRANCH   2  20
HETATM   20  N   UNL     1      41.934 -15.266   6.710  1.00  0.00    -0.249 N 
HETATM   21  C   UNL     1      43.110 -15.952   6.475  1.00  0.00     0.335 C 
HETATM   22  N   UNL     1      42.885 -17.243   6.087  1.00  0.00    -0.338 N 
HETATM   23  O   UNL     1      44.215 -15.432   6.587  1.00  0.00    -0.246 OA
HETATM   24  H   UNL     1      42.003 -17.659   6.343  1.00  0.00     0.164 HD
HETATM   25  H   UNL     1      41.123 -15.573   6.174  1.00  0.00     0.192 HD
BRANCH  22  26
HETATM   26  C   UNL     1      43.985 -18.144   5.834  1.00  0.00     0.162 C 
BRANCH  26  27
HETATM   27  C   UNL     1      43.799 -18.837   4.511  1.00  0.00    -0.040 A 
HETATM   28  C   UNL     1      43.346 -18.114   3.398  1.00  0.00     0.009 A 
HETATM   29  C   UNL     1      43.146 -18.748   2.172  1.00  0.00     0.001 A 
HETATM   30  C   UNL     1      43.392 -20.114   2.046  1.00  0.00     0.000 A 
HETATM   31  C   UNL     1      43.833 -20.847   3.148  1.00  0.00     0.001 A 
HETATM   32  C   UNL     1      44.034 -20.213   4.376  1.00  0.00     0.009 A 
ENDBRANCH  26  27
ENDBRANCH  22  26
ENDBRANCH   2  20
TORSDOF 8
ENDMDL
MODEL 9
REMARK VINA RESULT:      -8.1      3.135      4.274
REMARK  8 active torsions:
REMARK  status: ('A' for Active; 'I' for Inactive)
REMARK    1  A    between atoms: C_4  and  C_5 
REMARK    2  A    between atoms: C_5  and  C_6 
REMARK    3  A    between atoms: C_10  and  S_11 
REMARK    4  A    between atoms: S_11  and  C_12 
REMARK    5  A    between atoms: C_12  and  C_13 
REMARK       I    between atoms: C_13  and  N_14 
REMARK    6  A    between atoms: N_14  and  N_15 
REMARK       I    between atoms: N_15  and  C_16 
REMARK       I    between atoms: C_16  and  N_17 
REMARK    7  A    between atoms: N_17  and  C_18 
REMARK    8  A    between atoms: C_18  and  C_19 
ROOT
HETATM    1  C   UNL     1      40.961 -10.111   6.807  1.00  0.00     0.245 C 
HETATM    2  N   UNL     1      41.692  -9.394   7.733  1.00  0.00    -0.265 N 
HETATM    3  O   UNL     1      39.868 -10.619   7.073  1.00  0.00    -0.271 OA
HETATM    4  H   UNL     1      42.710  -9.336   7.634  1.00  0.00     0.190 HD
ENDROOT
BRANCH   1   5
HETATM    5  C   UNL     1      41.615 -10.296   5.457  1.00  0.00     0.187 C 
BRANCH   5   6
HETATM    6  S   UNL     1      43.176 -11.185   5.635  1.00  0.00    -0.081 SA
BRANCH   6   7
HETATM    7  C   UNL     1      42.755 -12.748   6.238  1.00  0.00     0.185 A 
HETATM    8  N   UNL     1      43.396 -13.415   7.238  1.00  0.00    -0.254 N 
HETATM    9  N   UNL     1      42.895 -14.655   7.397  1.00  0.00    -0.157 NA
HETATM   10  H   UNL     1      44.182 -13.120   7.811  1.00  0.00     0.191 HD
HETATM   11  C   UNL     1      41.980 -14.698   6.416  1.00  0.00     0.153 A 
HETATM   12  N   UNL     1      41.829 -13.520   5.721  1.00  0.00    -0.206 NA
BRANCH  11  13
HETATM   13  C   UNL     1      41.198 -15.922   6.096  1.00  0.00     0.120 C 
BRANCH  13  14
HETATM   14  C   UNL     1      41.774 -16.454   4.803  1.00  0.00    -0.051 A 
HETATM   15  C   UNL     1      43.010 -17.120   4.787  1.00  0.00     0.007 A 
HETATM   16  C   UNL     1      43.552 -17.580   3.586  1.00  0.00     0.001 A 
HETATM   17  C   UNL     1      42.866 -17.381   2.388  1.00  0.00     0.000 A 
HETATM   18  C   UNL     1      41.640 -16.720   2.390  1.00  0.00     0.001 A 
HETATM   19  C   UNL     1      41.097 -16.257   3.589  1.00  0.00     0.007 A 
ENDBRANCH  13  14
ENDBRANCH  11  13
ENDBRANCH   6   7
ENDBRANCH   5   6
ENDBRANCH   1   5
BRANCH   2  20
HETATM   20  N   UNL     1      41.257  -9.500   9.080  1.00  0.00    -0.249 N 
HETATM   21  C   UNL     1      42.257  -9.653  10.021  1.00  0.00     0.335 C 
HETATM   22  N   UNL     1      41.770 -10.058  11.231  1.00  0.00    -0.338 N 
HETATM   23  O   UNL     1      43.442  -9.461   9.767  1.00  0.00    -0.246 OA
HETATM   24  H   UNL     1      40.800  -9.865  11.430  1.00  0.00     0.164 HD
HETATM   25  H   UNL     1      40.436 -10.093   9.201  1.00  0.00     0.192 HD
BRANCH  22  26
HETATM   26  C   UNL     1      42.647 -10.234  12.365  1.00  0.00     0.162 C 
BRANCH  26  27
HETATM   27  C   UNL     1      42.508  -9.080  13.320  1.00  0.00    -0.040 A 
HETATM   28  C   UNL     1      43.348  -7.963  13.196  1.00  0.00     0.009 A 
HETATM   29  C   UNL     1      43.246  -6.896  14.090  1.00  0.00     0.001 A 
HETATM   30  C   UNL     1      42.308  -6.937  15.119  1.00  0.00     0.000 A 
HETATM   31  C   UNL     1      41.474  -8.046  15.259  1.00  0.00     0.001 A 
HETATM   32  C   UNL     1      41.575  -9.115  14.365  1.00  0.00     0.009 A 
ENDBRANCH  26  27
ENDBRANCH  22  26
ENDBRANCH   2  20
TORSDOF 8
ENDMDL
MODEL 10
REMARK VINA RESULT:      -8.0      2.499      9.423
REMARK  8 active torsions:
REMARK  status: ('A' for Active; 'I' for Inactive)
REMARK    1  A    between atoms: C_4  and  C_5 
REMARK    2  A    between atoms: C_5  and  C_6 
REMARK    3  A    between atoms: C_10  and  S_11 
REMARK    4  A    between atoms: S_11  and  C_12 
REMARK    5  A    between atoms: C_12  and  C_13 
REMARK       I    between atoms: C_13  and  N_14 
REMARK    6  A    between atoms: N_14  and  N_15 
REMARK       I    between atoms: N_15  and  C_16 
REMARK       I    between atoms: C_16  and  N_17 
REMARK    7  A    between atoms: N_17  and  C_18 
REMARK    8  A    between atoms: C_18  and  C_19 
ROOT
HETATM    1  C   UNL     1      39.835 -11.507   6.448  1.00  0.00     0.245 C 
HETATM    2  N   UNL     1      41.089 -12.055   6.630  1.00  0.00    -0.265 N 
HETATM    3  O   UNL     1      38.809 -12.192   6.414  1.00  0.00    -0.271 OA
HETATM    4  H   UNL     1      41.911 -11.563   6.268  1.00  0.00     0.190 HD
ENDROOT
BRANCH   1   5
HETATM    5  C   UNL     1      39.799 -10.013   6.225  1.00  0.00     0.187 C 
BRANCH   5   6
HETATM    6  S   UNL     1      41.364  -9.449   5.523  1.00  0.00    -0.081 SA
BRANCH   6   7
HETATM    7  C   UNL     1      42.263  -8.802   6.848  1.00  0.00     0.185 A 
HETATM    8  N   UNL     1      42.349  -7.484   7.185  1.00  0.00    -0.254 N 
HETATM    9  N   UNL     1      43.215  -7.295   8.198  1.00  0.00    -0.157 NA
HETATM   10  H   UNL     1      41.897  -6.678   6.760  1.00  0.00     0.191 HD
HETATM   11  C   UNL     1      43.666  -8.543   8.396  1.00  0.00     0.153 A 
HETATM   12  N   UNL     1      43.058  -9.502   7.621  1.00  0.00    -0.206 NA
BRANCH  11  13
HETATM   13  C   UNL     1      44.744  -8.865   9.369  1.00  0.00     0.120 C 
BRANCH  13  14
HETATM   14  C   UNL     1      44.042  -9.211  10.663  1.00  0.00    -0.051 A 
HETATM   15  C   UNL     1      43.864 -10.549  11.049  1.00  0.00     0.007 A 
HETATM   16  C   UNL     1      43.187 -10.862  12.229  1.00  0.00     0.001 A 
HETATM   17  C   UNL     1      42.682  -9.843  13.036  1.00  0.00     0.000 A 
HETATM   18  C   UNL     1      42.851  -8.512  12.664  1.00  0.00     0.001 A 
HETATM   19  C   UNL     1      43.525  -8.196  11.484  1.00  0.00     0.007 A 
ENDBRANCH  13  14
ENDBRANCH  11  13
ENDBRANCH   6   7
ENDBRANCH   5   6
ENDBRANCH   1   5
BRANCH   2  20
HETATM   20  N   UNL     1      41.171 -13.467   6.501  1.00  0.00    -0.249 N 
HETATM   21  C   UNL     1      42.442 -13.979   6.326  1.00  0.00     0.335 C 
HETATM   22  N   UNL     1      42.421 -15.277   5.902  1.00  0.00    -0.338 N 
HETATM   23  O   UNL     1      43.456 -13.316   6.516  1.00  0.00    -0.246 OA
HETATM   24  H   UNL     1      41.591 -15.817   6.095  1.00  0.00     0.164 HD
HETATM   25  H   UNL     1      40.443 -13.868   5.910  1.00  0.00     0.192 HD
BRANCH  22  26
HETATM   26  C   UNL     1      43.648 -16.013   5.700  1.00  0.00     0.162 C 
BRANCH  26  27
HETATM   27  C   UNL     1      43.515 -16.939   4.521  1.00  0.00    -0.040 A 
HETATM   28  C   UNL     1      42.615 -16.635   3.490  1.00  0.00     0.009 A 
HETATM   29  C   UNL     1      42.464 -17.497   2.403  1.00  0.00     0.001 A 
HETATM   30  C   UNL     1      43.207 -18.674   2.339  1.00  0.00     0.000 A 
HETATM   31  C   UNL     1      44.099 -18.992   3.363  1.00  0.00     0.001 A 
HETATM   32  C   UNL     1      44.251 -18.130   4.452  1.00  0.00     0.009 A 
ENDBRANCH  26  27
ENDBRANCH  22  26
ENDBRANCH   2  20
TORSDOF 8
ENDMDL
