MODEL 1
REMARK VINA RESULT:      -7.8      0.000      0.000
REMARK  5 active torsions:
REMARK  status: ('A' for Active; 'I' for Inactive)
REMARK    1  A    between atoms: C_2  and  N_3 
REMARK    2  A    between atoms: C_2  and  C_19 
REMARK       I    between atoms: N_3  and  C_4 
REMARK    3  A    between atoms: C_4  and  C_5 
REMARK    4  A    between atoms: C_6  and  O_7 
REMARK    5  A    between atoms: O_7  and  C_8 
ROOT
HETATM    1  C   UNL     1      43.372 -17.618   2.727  1.00  0.00     0.065 A 
HETATM    2  C   UNL     1      43.752 -17.503   4.073  1.00  0.00     0.091 A 
HETATM    3  C   UNL     1      44.030 -18.663   4.811  1.00  0.00     0.038 A 
HETATM    4  C   UNL     1      43.982 -19.918   4.201  1.00  0.00     0.003 A 
HETATM    5  C   UNL     1      43.627 -20.030   2.859  1.00  0.00     0.001 A 
HETATM    6  C   UNL     1      43.313 -18.886   2.124  1.00  0.00     0.020 A 
ENDROOT
BRANCH   1   7
HETATM    7  C   UNL     1      42.985 -16.418   1.936  1.00  0.00     0.255 C 
HETATM    8  N   UNL     1      41.642 -16.097   1.962  1.00  0.00    -0.348 N 
HETATM    9  H   UNL     1      40.984 -16.742   2.375  1.00  0.00     0.163 HD
HETATM   10  O   UNL     1      43.817 -15.763   1.322  1.00  0.00    -0.268 OA
BRANCH   8  11
HETATM   11  C   UNL     1      41.117 -14.973   1.203  1.00  0.00     0.115 C 
HETATM   12  C   UNL     1      39.885 -15.392   0.396  1.00  0.00     0.037 C 
BRANCH  11  13
HETATM   13  C   UNL     1      40.846 -13.815   2.136  1.00  0.00    -0.018 A 
HETATM   14  C   UNL     1      41.849 -12.883   2.396  1.00  0.00     0.125 A 
HETATM   15  N   UNL     1      41.714 -11.824   3.226  1.00  0.00    -0.273 NA
HETATM   16  C   UNL     1      40.520 -11.682   3.838  1.00  0.00     0.116 A 
HETATM   17  C   UNL     1      39.460 -12.554   3.663  1.00  0.00     0.020 A 
HETATM   18  C   UNL     1      39.628 -13.636   2.802  1.00  0.00     0.012 A 
ENDBRANCH  11  13
ENDBRANCH   8  11
ENDBRANCH   1   7
BRANCH   2  19
HETATM   19  O   UNL     1      43.774 -16.249   4.646  1.00  0.00    -0.310 OA
BRANCH  19  20
HETATM   20  C   UNL     1      42.633 -15.762   5.237  1.00  0.00     0.076 A 
HETATM   21  C   UNL     1      41.493 -16.541   5.455  1.00  0.00     0.037 A 
HETATM   22  C   UNL     1      40.385 -15.980   6.094  1.00  0.00     0.003 A 
HETATM   23  C   UNL     1      40.426 -14.656   6.533  1.00  0.00     0.000 A 
HETATM   24  C   UNL     1      41.577 -13.892   6.342  1.00  0.00     0.003 A 
HETATM   25  C   UNL     1      42.683 -14.447   5.700  1.00  0.00     0.037 A 
ENDBRANCH  19  20
ENDBRANCH   2  19
TORSDOF 5
ENDMDL
MODEL 2
REMARK VINA RESULT:      -7.7      2.021      4.107
REMARK  5 active torsions:
REMARK  status: ('A' for Active; 'I' for Inactive)
REMARK    1  A    between atoms: C_2  and  N_3 
REMARK    2  A    between atoms: C_2  and  C_19 
REMARK       I    between atoms: N_3  and  C_4 
REMARK    3  A    between atoms: C_4  and  C_5 
REMARK    4  A    between atoms: C_6  and  O_7 
REMARK    5  A    between atoms: O_7  and  C_8 
ROOT
HETATM    1  C   UNL     1      43.752 -18.141   4.766  1.00  0.00     0.065 A 
HETATM    2  C   UNL     1      43.625 -17.923   3.386  1.00  0.00     0.091 A 
HETATM    3  C   UNL     1      43.676 -19.018   2.510  1.00  0.00     0.038 A 
HETATM    4  C   UNL     1      43.798 -20.316   3.006  1.00  0.00     0.003 A 
HETATM    5  C   UNL     1      43.900 -20.534   4.378  1.00  0.00     0.001 A 
HETATM    6  C   UNL     1      43.887 -19.451   5.257  1.00  0.00     0.020 A 
ENDROOT
BRANCH   1   7
HETATM    7  C   UNL     1      43.790 -17.000   5.721  1.00  0.00     0.255 C 
HETATM    8  N   UNL     1      42.564 -16.452   6.041  1.00  0.00    -0.348 N 
HETATM    9  H   UNL     1      41.743 -16.734   5.526  1.00  0.00     0.163 HD
HETATM   10  O   UNL     1      44.845 -16.599   6.194  1.00  0.00    -0.268 OA
BRANCH   8  11
HETATM   11  C   UNL     1      42.454 -15.308   6.932  1.00  0.00     0.115 C 
HETATM   12  C   UNL     1      43.181 -15.576   8.253  1.00  0.00     0.037 C 
BRANCH  11  13
HETATM   13  C   UNL     1      42.950 -14.067   6.226  1.00  0.00    -0.018 A 
HETATM   14  C   UNL     1      43.886 -13.242   6.847  1.00  0.00     0.125 A 
HETATM   15  N   UNL     1      44.379 -12.103   6.308  1.00  0.00    -0.273 NA
HETATM   16  C   UNL     1      43.916 -11.758   5.089  1.00  0.00     0.116 A 
HETATM   17  C   UNL     1      42.979 -12.497   4.388  1.00  0.00     0.020 A 
HETATM   18  C   UNL     1      42.488 -13.665   4.967  1.00  0.00     0.012 A 
ENDBRANCH  11  13
ENDBRANCH   8  11
ENDBRANCH   1   7
BRANCH   2  19
HETATM   19  O   UNL     1      43.521 -16.627   2.931  1.00  0.00    -0.310 OA
BRANCH  19  20
HETATM   20  C   UNL     1      42.327 -16.194   2.408  1.00  0.00     0.076 A 
HETATM   21  C   UNL     1      41.089 -16.479   2.990  1.00  0.00     0.037 A 
HETATM   22  C   UNL     1      39.921 -15.973   2.415  1.00  0.00     0.003 A 
HETATM   23  C   UNL     1      39.993 -15.167   1.278  1.00  0.00     0.000 A 
HETATM   24  C   UNL     1      41.233 -14.858   0.718  1.00  0.00     0.003 A 
HETATM   25  C   UNL     1      42.400 -15.366   1.287  1.00  0.00     0.037 A 
ENDBRANCH  19  20
ENDBRANCH   2  19
TORSDOF 5
ENDMDL
MODEL 3
REMARK VINA RESULT:      -7.5      1.883      4.185
REMARK  5 active torsions:
REMARK  status: ('A' for Active; 'I' for Inactive)
REMARK    1  A    between atoms: C_2  and  N_3 
REMARK    2  A    between atoms: C_2  and  C_19 
REMARK       I    between atoms: N_3  and  C_4 
REMARK    3  A    between atoms: C_4  and  C_5 
REMARK    4  A    between atoms: C_6  and  O_7 
REMARK    5  A    between atoms: O_7  and  C_8 
ROOT
HETATM    1  C   UNL     1      43.016 -17.040   4.629  1.00  0.00     0.065 A 
HETATM    2  C   UNL     1      42.198 -17.083   3.489  1.00  0.00     0.091 A 
HETATM    3  C   UNL     1      42.535 -17.943   2.433  1.00  0.00     0.038 A 
HETATM    4  C   UNL     1      43.643 -18.786   2.533  1.00  0.00     0.003 A 
HETATM    5  C   UNL     1      44.441 -18.759   3.674  1.00  0.00     0.001 A 
HETATM    6  C   UNL     1      44.136 -17.883   4.716  1.00  0.00     0.020 A 
ENDROOT
BRANCH   1   7
HETATM    7  C   UNL     1      42.741 -16.080   5.732  1.00  0.00     0.255 C 
HETATM    8  N   UNL     1      42.957 -14.750   5.431  1.00  0.00    -0.348 N 
HETATM    9  H   UNL     1      43.414 -14.504   4.564  1.00  0.00     0.163 HD
HETATM   10  O   UNL     1      42.334 -16.460   6.823  1.00  0.00    -0.268 OA
BRANCH   8  11
HETATM   11  C   UNL     1      42.766 -13.706   6.425  1.00  0.00     0.115 C 
HETATM   12  C   UNL     1      44.051 -12.896   6.615  1.00  0.00     0.037 C 
BRANCH  11  13
HETATM   13  C   UNL     1      41.580 -12.852   6.041  1.00  0.00    -0.018 A 
HETATM   14  C   UNL     1      40.289 -13.363   6.160  1.00  0.00     0.125 A 
HETATM   15  N   UNL     1      39.165 -12.687   5.828  1.00  0.00    -0.273 NA
HETATM   16  C   UNL     1      39.328 -11.438   5.345  1.00  0.00     0.116 A 
HETATM   17  C   UNL     1      40.564 -10.838   5.174  1.00  0.00     0.020 A 
HETATM   18  C   UNL     1      41.704 -11.557   5.524  1.00  0.00     0.012 A 
ENDBRANCH  11  13
ENDBRANCH   8  11
ENDBRANCH   1   7
BRANCH   2  19
HETATM   19  O   UNL     1      41.121 -16.226   3.419  1.00  0.00    -0.310 OA
BRANCH  19  20
HETATM   20  C   UNL     1      40.955 -15.450   2.297  1.00  0.00     0.076 A 
HETATM   21  C   UNL     1      40.050 -15.761   1.279  1.00  0.00     0.037 A 
HETATM   22  C   UNL     1      39.916 -14.901   0.187  1.00  0.00     0.003 A 
HETATM   23  C   UNL     1      40.665 -13.725   0.125  1.00  0.00     0.000 A 
HETATM   24  C   UNL     1      41.544 -13.401   1.159  1.00  0.00     0.003 A 
HETATM   25  C   UNL     1      41.684 -14.261   2.248  1.00  0.00     0.037 A 
ENDBRANCH  19  20
ENDBRANCH   2  19
TORSDOF 5
ENDMDL
MODEL 4
REMARK VINA RESULT:      -7.4      2.542      3.664
REMARK  5 active torsions:
REMARK  status: ('A' for Active; 'I' for Inactive)
REMARK    1  A    between atoms: C_2  and  N_3 
REMARK    2  A    between atoms: C_2  and  C_19 
REMARK       I    between atoms: N_3  and  C_4 
REMARK    3  A    between atoms: C_4  and  C_5 
REMARK    4  A    between atoms: C_6  and  O_7 
REMARK    5  A    between atoms: O_7  and  C_8 
ROOT
HETATM    1  C   UNL     1      41.867 -16.237   2.957  1.00  0.00     0.065 A 
HETATM    2  C   UNL     1      42.454 -15.838   4.167  1.00  0.00     0.091 A 
HETATM    3  C   UNL     1      43.467 -16.628   4.733  1.00  0.00     0.038 A 
HETATM    4  C   UNL     1      43.924 -17.771   4.074  1.00  0.00     0.003 A 
HETATM    5  C   UNL     1      43.356 -18.153   2.861  1.00  0.00     0.001 A 
HETATM    6  C   UNL     1      42.324 -17.395   2.307  1.00  0.00     0.020 A 
ENDROOT
BRANCH   1   7
HETATM    7  C   UNL     1      40.732 -15.474   2.369  1.00  0.00     0.255 C 
HETATM    8  N   UNL     1      41.059 -14.250   1.820  1.00  0.00    -0.348 N 
HETATM    9  H   UNL     1      41.985 -13.872   1.963  1.00  0.00     0.163 HD
HETATM   10  O   UNL     1      39.593 -15.924   2.368  1.00  0.00    -0.268 OA
BRANCH   8  11
HETATM   11  C   UNL     1      40.045 -13.381   1.245  1.00  0.00     0.115 C 
HETATM   12  C   UNL     1      40.019 -12.029   1.963  1.00  0.00     0.037 C 
BRANCH  11  13
HETATM   13  C   UNL     1      40.271 -13.255  -0.244  1.00  0.00    -0.018 A 
HETATM   14  C   UNL     1      40.941 -12.145  -0.754  1.00  0.00     0.125 A 
HETATM   15  N   UNL     1      41.178 -11.930  -2.069  1.00  0.00    -0.273 NA
HETATM   16  C   UNL     1      40.721 -12.865  -2.927  1.00  0.00     0.116 A 
HETATM   17  C   UNL     1      40.034 -13.999  -2.531  1.00  0.00     0.020 A 
HETATM   18  C   UNL     1      39.804 -14.194  -1.172  1.00  0.00     0.012 A 
ENDBRANCH  11  13
ENDBRANCH   8  11
ENDBRANCH   1   7
BRANCH   2  19
HETATM   19  O   UNL     1      41.968 -14.713   4.796  1.00  0.00    -0.310 OA
BRANCH  19  20
HETATM   20  C   UNL     1      42.820 -13.665   5.048  1.00  0.00     0.076 A 
HETATM   21  C   UNL     1      43.137 -12.692   4.097  1.00  0.00     0.037 A 
HETATM   22  C   UNL     1      43.985 -11.638   4.442  1.00  0.00     0.003 A 
HETATM   23  C   UNL     1      44.494 -11.544   5.739  1.00  0.00     0.000 A 
HETATM   24  C   UNL     1      44.149 -12.499   6.695  1.00  0.00     0.003 A 
HETATM   25  C   UNL     1      43.306 -13.556   6.352  1.00  0.00     0.037 A 
ENDBRANCH  19  20
ENDBRANCH   2  19
TORSDOF 5
ENDMDL
MODEL 5
REMARK VINA RESULT:      -7.0     14.161     16.326
REMARK  5 active torsions:
REMARK  status: ('A' for Active; 'I' for Inactive)
REMARK    1  A    between atoms: C_2  and  N_3 
REMARK    2  A    between atoms: C_2  and  C_19 
REMARK       I    between atoms: N_3  and  C_4 
REMARK    3  A    between atoms: C_4  and  C_5 
REMARK    4  A    between atoms: C_6  and  O_7 
REMARK    5  A    between atoms: O_7  and  C_8 
ROOT
HETATM    1  C   UNL     1      44.956 -29.469   1.653  1.00  0.00     0.065 A 
HETATM    2  C   UNL     1      44.502 -30.185   0.534  1.00  0.00     0.091 A 
HETATM    3  C   UNL     1      43.186 -30.671   0.518  1.00  0.00     0.038 A 
HETATM    4  C   UNL     1      42.319 -30.403   1.578  1.00  0.00     0.003 A 
HETATM    5  C   UNL     1      42.764 -29.673   2.677  1.00  0.00     0.001 A 
HETATM    6  C   UNL     1      44.081 -29.215   2.722  1.00  0.00     0.020 A 
ENDROOT
BRANCH   1   7
HETATM    7  C   UNL     1      46.370 -29.012   1.746  1.00  0.00     0.255 C 
HETATM    8  N   UNL     1      47.324 -30.007   1.660  1.00  0.00    -0.348 N 
HETATM    9  H   UNL     1      47.037 -30.975   1.685  1.00  0.00     0.163 HD
HETATM   10  O   UNL     1      46.650 -27.827   1.875  1.00  0.00    -0.268 OA
BRANCH   8  11
HETATM   11  C   UNL     1      48.742 -29.709   1.774  1.00  0.00     0.115 C 
HETATM   12  C   UNL     1      49.364 -30.473   2.947  1.00  0.00     0.037 C 
BRANCH  11  13
HETATM   13  C   UNL     1      49.426 -29.990   0.456  1.00  0.00    -0.018 A 
HETATM   14  C   UNL     1      50.693 -30.571   0.441  1.00  0.00     0.125 A 
HETATM   15  N   UNL     1      51.396 -30.846  -0.682  1.00  0.00    -0.273 NA
HETATM   16  C   UNL     1      50.814 -30.524  -1.856  1.00  0.00     0.116 A 
HETATM   17  C   UNL     1      49.566 -29.934  -1.956  1.00  0.00     0.020 A 
HETATM   18  C   UNL     1      48.866 -29.661  -0.784  1.00  0.00     0.012 A 
ENDBRANCH  11  13
ENDBRANCH   8  11
ENDBRANCH   1   7
BRANCH   2  19
HETATM   19  O   UNL     1      45.391 -30.443  -0.487  1.00  0.00    -0.310 OA
BRANCH  19  20
HETATM   20  C   UNL     1      45.176 -29.878  -1.721  1.00  0.00     0.076 A 
HETATM   21  C   UNL     1      44.529 -30.544  -2.765  1.00  0.00     0.037 A 
HETATM   22  C   UNL     1      44.319 -29.887  -3.979  1.00  0.00     0.003 A 
HETATM   23  C   UNL     1      44.731 -28.563  -4.139  1.00  0.00     0.000 A 
HETATM   24  C   UNL     1      45.347 -27.890  -3.084  1.00  0.00     0.003 A 
HETATM   25  C   UNL     1      45.563 -28.546  -1.872  1.00  0.00     0.037 A 
ENDBRANCH  19  20
ENDBRANCH   2  19
TORSDOF 5
ENDMDL
MODEL 6
REMARK VINA RESULT:      -6.9      1.377      2.042
REMARK  5 active torsions:
REMARK  status: ('A' for Active; 'I' for Inactive)
REMARK    1  A    between atoms: C_2  and  N_3 
REMARK    2  A    between atoms: C_2  and  C_19 
REMARK       I    between atoms: N_3  and  C_4 
REMARK    3  A    between atoms: C_4  and  C_5 
REMARK    4  A    between atoms: C_6  and  O_7 
REMARK    5  A    between atoms: O_7  and  C_8 
ROOT
HETATM    1  C   UNL     1      43.209 -16.912   3.364  1.00  0.00     0.065 A 
HETATM    2  C   UNL     1      42.848 -16.609   4.686  1.00  0.00     0.091 A 
HETATM    3  C   UNL     1      43.165 -17.516   5.709  1.00  0.00     0.038 A 
HETATM    4  C   UNL     1      43.877 -18.682   5.426  1.00  0.00     0.003 A 
HETATM    5  C   UNL     1      44.255 -18.970   4.117  1.00  0.00     0.001 A 
HETATM    6  C   UNL     1      43.915 -18.095   3.086  1.00  0.00     0.020 A 
ENDROOT
BRANCH   1   7
HETATM    7  C   UNL     1      42.815 -16.020   2.239  1.00  0.00     0.255 C 
HETATM    8  N   UNL     1      41.463 -15.760   2.132  1.00  0.00    -0.348 N 
HETATM    9  H   UNL     1      40.810 -16.279   2.702  1.00  0.00     0.163 HD
HETATM   10  O   UNL     1      43.649 -15.544   1.480  1.00  0.00    -0.268 OA
BRANCH   8  11
HETATM   11  C   UNL     1      40.932 -14.935   1.059  1.00  0.00     0.115 C 
HETATM   12  C   UNL     1      39.729 -15.613   0.398  1.00  0.00     0.037 C 
BRANCH  11  13
HETATM   13  C   UNL     1      40.616 -13.556   1.589  1.00  0.00    -0.018 A 
HETATM   14  C   UNL     1      41.322 -12.451   1.116  1.00  0.00     0.125 A 
HETATM   15  N   UNL     1      41.127 -11.180   1.537  1.00  0.00    -0.273 NA
HETATM   16  C   UNL     1      40.185 -10.993   2.484  1.00  0.00     0.116 A 
HETATM   17  C   UNL     1      39.435 -12.019   3.033  1.00  0.00     0.020 A 
HETATM   18  C   UNL     1      39.657 -13.317   2.580  1.00  0.00     0.012 A 
ENDBRANCH  11  13
ENDBRANCH   8  11
ENDBRANCH   1   7
BRANCH   2  19
HETATM   19  O   UNL     1      42.132 -15.457   4.925  1.00  0.00    -0.310 OA
BRANCH  19  20
HETATM   20  C   UNL     1      42.808 -14.304   5.246  1.00  0.00     0.076 A 
HETATM   21  C   UNL     1      42.950 -13.230   4.363  1.00  0.00     0.037 A 
HETATM   22  C   UNL     1      43.622 -12.078   4.778  1.00  0.00     0.003 A 
HETATM   23  C   UNL     1      44.127 -11.991   6.077  1.00  0.00     0.000 A 
HETATM   24  C   UNL     1      43.954 -13.052   6.966  1.00  0.00     0.003 A 
HETATM   25  C   UNL     1      43.288 -14.205   6.553  1.00  0.00     0.037 A 
ENDBRANCH  19  20
ENDBRANCH   2  19
TORSDOF 5
ENDMDL
MODEL 7
REMARK VINA RESULT:      -6.9      2.032      4.290
REMARK  5 active torsions:
REMARK  status: ('A' for Active; 'I' for Inactive)
REMARK    1  A    between atoms: C_2  and  N_3 
REMARK    2  A    between atoms: C_2  and  C_19 
REMARK       I    between atoms: N_3  and  C_4 
REMARK    3  A    between atoms: C_4  and  C_5 
REMARK    4  A    between atoms: C_6  and  O_7 
REMARK    5  A    between atoms: O_7  and  C_8 
ROOT
HETATM    1  C   UNL     1      43.086 -16.376   5.832  1.00  0.00     0.065 A 
HETATM    2  C   UNL     1      43.448 -16.630   4.500  1.00  0.00     0.091 A 
HETATM    3  C   UNL     1      43.867 -17.918   4.135  1.00  0.00     0.038 A 
HETATM    4  C   UNL     1      43.875 -18.952   5.073  1.00  0.00     0.003 A 
HETATM    5  C   UNL     1      43.493 -18.704   6.390  1.00  0.00     0.001 A 
HETATM    6  C   UNL     1      43.109 -17.419   6.773  1.00  0.00     0.020 A 
ENDROOT
BRANCH   1   7
HETATM    7  C   UNL     1      42.720 -15.003   6.277  1.00  0.00     0.255 C 
HETATM    8  N   UNL     1      43.674 -14.031   6.050  1.00  0.00    -0.348 N 
HETATM    9  H   UNL     1      44.597 -14.301   5.742  1.00  0.00     0.163 HD
HETATM   10  O   UNL     1      41.635 -14.768   6.793  1.00  0.00    -0.268 OA
BRANCH   8  11
HETATM   11  C   UNL     1      43.466 -12.653   6.468  1.00  0.00     0.115 C 
HETATM   12  C   UNL     1      44.773 -12.038   6.975  1.00  0.00     0.037 C 
BRANCH  11  13
HETATM   13  C   UNL     1      42.844 -11.869   5.336  1.00  0.00    -0.018 A 
HETATM   14  C   UNL     1      41.680 -11.135   5.557  1.00  0.00     0.125 A 
HETATM   15  N   UNL     1      41.037 -10.415   4.609  1.00  0.00    -0.273 NA
HETATM   16  C   UNL     1      41.573 -10.428   3.371  1.00  0.00     0.116 A 
HETATM   17  C   UNL     1      42.717 -11.131   3.038  1.00  0.00     0.020 A 
HETATM   18  C   UNL     1      43.358 -11.863   4.034  1.00  0.00     0.012 A 
ENDBRANCH  11  13
ENDBRANCH   8  11
ENDBRANCH   1   7
BRANCH   2  19
HETATM   19  O   UNL     1      43.443 -15.582   3.605  1.00  0.00    -0.310 OA
BRANCH  19  20
HETATM   20  C   UNL     1      42.347 -15.395   2.798  1.00  0.00     0.076 A 
HETATM   21  C   UNL     1      42.379 -14.629   1.630  1.00  0.00     0.037 A 
HETATM   22  C   UNL     1      41.229 -14.517   0.846  1.00  0.00     0.003 A 
HETATM   23  C   UNL     1      40.061 -15.186   1.215  1.00  0.00     0.000 A 
HETATM   24  C   UNL     1      40.042 -15.977   2.364  1.00  0.00     0.003 A 
HETATM   25  C   UNL     1      41.187 -16.087   3.152  1.00  0.00     0.037 A 
ENDBRANCH  19  20
ENDBRANCH   2  19
TORSDOF 5
ENDMDL
MODEL 8
REMARK VINA RESULT:      -6.8      2.010      6.494
REMARK  5 active torsions:
REMARK  status: ('A' for Active; 'I' for Inactive)
REMARK    1  A    between atoms: C_2  and  N_3 
REMARK    2  A    between atoms: C_2  and  C_19 
REMARK       I    between atoms: N_3  and  C_4 
REMARK    3  A    between atoms: C_4  and  C_5 
REMARK    4  A    between atoms: C_6  and  O_7 
REMARK    5  A    between atoms: O_7  and  C_8 
ROOT
HETATM    1  C   UNL     1      41.380 -12.636   5.200  1.00  0.00     0.065 A 
HETATM    2  C   UNL     1      41.029 -12.432   3.857  1.00  0.00     0.091 A 
HETATM    3  C   UNL     1      39.875 -11.694   3.553  1.00  0.00     0.038 A 
HETATM    4  C   UNL     1      39.111 -11.123   4.572  1.00  0.00     0.003 A 
HETATM    5  C   UNL     1      39.474 -11.306   5.904  1.00  0.00     0.001 A 
HETATM    6  C   UNL     1      40.599 -12.068   6.220  1.00  0.00     0.020 A 
ENDROOT
BRANCH   1   7
HETATM    7  C   UNL     1      42.546 -13.486   5.566  1.00  0.00     0.255 C 
HETATM    8  N   UNL     1      42.370 -14.844   5.393  1.00  0.00    -0.348 N 
HETATM    9  H   UNL     1      41.451 -15.203   5.177  1.00  0.00     0.163 HD
HETATM   10  O   UNL     1      43.590 -12.994   5.975  1.00  0.00    -0.268 OA
BRANCH   8  11
HETATM   11  C   UNL     1      43.412 -15.795   5.745  1.00  0.00     0.115 C 
HETATM   12  C   UNL     1      43.158 -16.388   7.134  1.00  0.00     0.037 C 
BRANCH  11  13
HETATM   13  C   UNL     1      43.524 -16.847   4.665  1.00  0.00    -0.018 A 
HETATM   14  C   UNL     1      44.128 -18.070   4.948  1.00  0.00     0.125 A 
HETATM   15  N   UNL     1      44.292 -19.069   4.049  1.00  0.00    -0.273 NA
HETATM   16  C   UNL     1      43.838 -18.840   2.799  1.00  0.00     0.116 A 
HETATM   17  C   UNL     1      43.235 -17.658   2.407  1.00  0.00     0.020 A 
HETATM   18  C   UNL     1      43.079 -16.648   3.353  1.00  0.00     0.012 A 
ENDBRANCH  11  13
ENDBRANCH   8  11
ENDBRANCH   1   7
BRANCH   2  19
HETATM   19  O   UNL     1      41.797 -13.024   2.878  1.00  0.00    -0.310 OA
BRANCH  19  20
HETATM   20  C   UNL     1      41.175 -13.661   1.831  1.00  0.00     0.076 A 
HETATM   21  C   UNL     1      40.530 -14.894   1.961  1.00  0.00     0.037 A 
HETATM   22  C   UNL     1      39.891 -15.459   0.856  1.00  0.00     0.003 A 
HETATM   23  C   UNL     1      39.875 -14.784  -0.366  1.00  0.00     0.000 A 
HETATM   24  C   UNL     1      40.492 -13.538  -0.483  1.00  0.00     0.003 A 
HETATM   25  C   UNL     1      41.136 -12.973   0.618  1.00  0.00     0.037 A 
ENDBRANCH  19  20
ENDBRANCH   2  19
TORSDOF 5
ENDMDL
MODEL 9
REMARK VINA RESULT:      -6.8      2.096      5.060
REMARK  5 active torsions:
REMARK  status: ('A' for Active; 'I' for Inactive)
REMARK    1  A    between atoms: C_2  and  N_3 
REMARK    2  A    between atoms: C_2  and  C_19 
REMARK       I    between atoms: N_3  and  C_4 
REMARK    3  A    between atoms: C_4  and  C_5 
REMARK    4  A    between atoms: C_6  and  O_7 
REMARK    5  A    between atoms: O_7  and  C_8 
ROOT
HETATM    1  C   UNL     1      40.594 -14.436   0.913  1.00  0.00     0.065 A 
HETATM    2  C   UNL     1      41.260 -13.230   1.182  1.00  0.00     0.091 A 
HETATM    3  C   UNL     1      41.226 -12.200   0.230  1.00  0.00     0.038 A 
HETATM    4  C   UNL     1      40.495 -12.349  -0.950  1.00  0.00     0.003 A 
HETATM    5  C   UNL     1      39.815 -13.538  -1.205  1.00  0.00     0.001 A 
HETATM    6  C   UNL     1      39.870 -14.583  -0.282  1.00  0.00     0.020 A 
ENDROOT
BRANCH   1   7
HETATM    7  C   UNL     1      40.677 -15.583   1.858  1.00  0.00     0.255 C 
HETATM    8  N   UNL     1      41.953 -15.941   2.246  1.00  0.00    -0.348 N 
HETATM    9  H   UNL     1      42.749 -15.528   1.782  1.00  0.00     0.163 HD
HETATM   10  O   UNL     1      39.671 -16.149   2.265  1.00  0.00    -0.268 OA
BRANCH   8  11
HETATM   11  C   UNL     1      42.187 -17.068   3.135  1.00  0.00     0.115 C 
HETATM   12  C   UNL     1      43.386 -17.893   2.662  1.00  0.00     0.037 C 
BRANCH  11  13
HETATM   13  C   UNL     1      42.335 -16.571   4.555  1.00  0.00    -0.018 A 
HETATM   14  C   UNL     1      43.603 -16.319   5.073  1.00  0.00     0.125 A 
HETATM   15  N   UNL     1      43.844 -15.889   6.334  1.00  0.00    -0.273 NA
HETATM   16  C   UNL     1      42.768 -15.703   7.127  1.00  0.00     0.116 A 
HETATM   17  C   UNL     1      41.466 -15.935   6.719  1.00  0.00     0.020 A 
HETATM   18  C   UNL     1      41.248 -16.377   5.416  1.00  0.00     0.012 A 
ENDBRANCH  11  13
ENDBRANCH   8  11
ENDBRANCH   1   7
BRANCH   2  19
HETATM   19  O   UNL     1      41.984 -13.124   2.349  1.00  0.00    -0.310 OA
BRANCH  19  20
HETATM   20  C   UNL     1      41.339 -12.758   3.506  1.00  0.00     0.076 A 
HETATM   21  C   UNL     1      39.963 -12.520   3.572  1.00  0.00     0.037 A 
HETATM   22  C   UNL     1      39.378 -12.185   4.795  1.00  0.00     0.003 A 
HETATM   23  C   UNL     1      40.159 -12.114   5.950  1.00  0.00     0.000 A 
HETATM   24  C   UNL     1      41.526 -12.385   5.886  1.00  0.00     0.003 A 
HETATM   25  C   UNL     1      42.115 -12.714   4.665  1.00  0.00     0.037 A 
ENDBRANCH  19  20
ENDBRANCH   2  19
TORSDOF 5
ENDMDL
MODEL 10
REMARK VINA RESULT:      -6.6      2.750      5.368
REMARK  5 active torsions:
REMARK  status: ('A' for Active; 'I' for Inactive)
REMARK    1  A    between atoms: C_2  and  N_3 
REMARK    2  A    between atoms: C_2  and  C_19 
REMARK       I    between atoms: N_3  and  C_4 
REMARK    3  A    between atoms: C_4  and  C_5 
REMARK    4  A    between atoms: C_6  and  O_7 
REMARK    5  A    between atoms: O_7  and  C_8 
ROOT
HETATM    1  C   UNL     1      42.272 -14.755   4.608  1.00  0.00     0.065 A 
HETATM    2  C   UNL     1      42.776 -15.931   4.034  1.00  0.00     0.091 A 
HETATM    3  C   UNL     1      42.066 -16.547   2.993  1.00  0.00     0.038 A 
HETATM    4  C   UNL     1      40.897 -15.969   2.495  1.00  0.00     0.003 A 
HETATM    5  C   UNL     1      40.410 -14.788   3.049  1.00  0.00     0.001 A 
HETATM    6  C   UNL     1      41.088 -14.186   4.109  1.00  0.00     0.020 A 
ENDROOT
BRANCH   1   7
HETATM    7  C   UNL     1      42.949 -14.119   5.772  1.00  0.00     0.255 C 
HETATM    8  N   UNL     1      43.448 -12.851   5.549  1.00  0.00    -0.348 N 
HETATM    9  H   UNL     1      43.465 -12.480   4.609  1.00  0.00     0.163 HD
HETATM   10  O   UNL     1      43.035 -14.691   6.851  1.00  0.00    -0.268 OA
BRANCH   8  11
HETATM   11  C   UNL     1      44.167 -12.126   6.584  1.00  0.00     0.115 C 
HETATM   12  C   UNL     1      45.491 -11.579   6.044  1.00  0.00     0.037 C 
BRANCH  11  13
HETATM   13  C   UNL     1      43.275 -11.051   7.162  1.00  0.00    -0.018 A 
HETATM   14  C   UNL     1      42.102 -10.693   6.502  1.00  0.00     0.125 A 
HETATM   15  N   UNL     1      41.246  -9.734   6.926  1.00  0.00    -0.273 NA
HETATM   16  C   UNL     1      41.574  -9.090   8.065  1.00  0.00     0.116 A 
HETATM   17  C   UNL     1      42.720  -9.356   8.794  1.00  0.00     0.020 A 
HETATM   18  C   UNL     1      43.582 -10.348   8.333  1.00  0.00     0.012 A 
ENDBRANCH  11  13
ENDBRANCH   8  11
ENDBRANCH   1   7
BRANCH   2  19
HETATM   19  O   UNL     1      43.924 -16.482   4.562  1.00  0.00    -0.310 OA
BRANCH  19  20
HETATM   20  C   UNL     1      43.906 -17.788   4.988  1.00  0.00     0.076 A 
HETATM   21  C   UNL     1      43.389 -18.181   6.226  1.00  0.00     0.037 A 
HETATM   22  C   UNL     1      43.375 -19.534   6.571  1.00  0.00     0.003 A 
HETATM   23  C   UNL     1      43.854 -20.490   5.674  1.00  0.00     0.000 A 
HETATM   24  C   UNL     1      44.340 -20.097   4.427  1.00  0.00     0.003 A 
HETATM   25  C   UNL     1      44.359 -18.747   4.082  1.00  0.00     0.037 A 
ENDBRANCH  19  20
ENDBRANCH   2  19
TORSDOF 5
ENDMDL
