MODEL 1
REMARK VINA RESULT:      -7.6      0.000      0.000
REMARK  3 active torsions:
REMARK  status: ('A' for Active; 'I' for Inactive)
REMARK    1  A    between atoms: C_2  and  C_3 
REMARK    2  A    between atoms: C_7  and  N_8 
REMARK       I    between atoms: N_8  and  C_9 
REMARK    3  A    between atoms: C_9  and  C_10 
ROOT
HETATM    1  N   UNL     1      43.127 -14.475   6.121  1.00  0.00    -0.311 N 
HETATM    2  C   UNL     1      42.845 -15.484   7.029  1.00  0.00     0.234 C 
HETATM    3  O   UNL     1      42.924 -15.349   8.251  1.00  0.00    -0.272 OA
HETATM    4  H   UNL     1      43.040 -14.649   5.124  1.00  0.00     0.170 HD
ENDROOT
BRANCH   2   5
HETATM    5  C   UNL     1      42.451 -16.821   6.422  1.00  0.00     0.138 C 
HETATM    6  C   UNL     1      42.276 -16.798   4.946  1.00  0.00    -0.008 A 
HETATM    7  C   UNL     1      43.349 -17.442   4.348  1.00  0.00     0.076 A 
HETATM    8  C   UNL     1      41.279 -16.216   4.180  1.00  0.00     0.030 A 
HETATM    9  C   UNL     1      43.482 -17.528   2.978  1.00  0.00     0.039 A 
HETATM   10  O   UNL     1      44.266 -17.925   5.243  1.00  0.00    -0.349 OA
HETATM   11  C   UNL     1      42.482 -16.953   2.189  1.00  0.00     0.022 A 
HETATM   12  C   UNL     1      41.391 -16.303   2.789  1.00  0.00     0.011 A 
HETATM   13 BR   UNL     1      40.058 -15.522   1.699  1.00  0.00    -0.051 Br
HETATM   14  C   UNL     1      43.586 -17.845   6.523  1.00  0.00     0.194 C 
ENDBRANCH   2   5
BRANCH   1  15
HETATM   15  C   UNL     1      43.484 -13.206   6.525  1.00  0.00     0.126 A 
HETATM   16  N   UNL     1      42.597 -12.209   6.838  1.00  0.00    -0.262 N 
HETATM   17  N   UNL     1      43.188 -11.056   7.198  1.00  0.00    -0.178 NA
HETATM   18  H   UNL     1      41.582 -12.271   6.816  1.00  0.00     0.191 HD
HETATM   19  C   UNL     1      44.496 -11.325   7.110  1.00  0.00     0.058 A 
HETATM   20  C   UNL     1      44.732 -12.660   6.698  1.00  0.00     0.079 A 
BRANCH  19  21
HETATM   21  C   UNL     1      45.506 -10.273   7.424  1.00  0.00     0.056 C 
HETATM   22  C   UNL     1      45.601  -9.993   8.917  1.00  0.00     0.011 C 
ENDBRANCH  19  21
ENDBRANCH   1  15
TORSDOF 3
ENDMDL
MODEL 2
REMARK VINA RESULT:      -7.5      5.037      7.100
REMARK  3 active torsions:
REMARK  status: ('A' for Active; 'I' for Inactive)
REMARK    1  A    between atoms: C_2  and  C_3 
REMARK    2  A    between atoms: C_7  and  N_8 
REMARK       I    between atoms: N_8  and  C_9 
REMARK    3  A    between atoms: C_9  and  C_10 
ROOT
HETATM    1  N   UNL     1      39.809 -14.621   0.758  1.00  0.00    -0.311 N 
HETATM    2  C   UNL     1      40.940 -14.804   1.538  1.00  0.00     0.234 C 
HETATM    3  O   UNL     1      42.051 -14.353   1.252  1.00  0.00    -0.272 OA
HETATM    4  H   UNL     1      38.920 -15.016   1.051  1.00  0.00     0.170 HD
ENDROOT
BRANCH   2   5
HETATM    5  C   UNL     1      40.744 -15.642   2.792  1.00  0.00     0.138 C 
HETATM    6  C   UNL     1      41.826 -16.629   3.047  1.00  0.00    -0.008 A 
HETATM    7  C   UNL     1      42.608 -16.186   4.104  1.00  0.00     0.076 A 
HETATM    8  C   UNL     1      42.135 -17.800   2.376  1.00  0.00     0.030 A 
HETATM    9  C   UNL     1      43.723 -16.877   4.531  1.00  0.00     0.039 A 
HETATM   10  O   UNL     1      42.193 -14.992   4.631  1.00  0.00    -0.349 OA
HETATM   11  C   UNL     1      44.046 -18.065   3.870  1.00  0.00     0.022 A 
HETATM   12  C   UNL     1      43.256 -18.519   2.802  1.00  0.00     0.011 A 
HETATM   13 BR   UNL     1      43.722 -20.124   1.917  1.00  0.00    -0.051 Br
HETATM   14  C   UNL     1      40.871 -14.796   4.063  1.00  0.00     0.194 C 
ENDBRANCH   2   5
BRANCH   1  15
HETATM   15  C   UNL     1      39.831 -13.873  -0.399  1.00  0.00     0.126 A 
HETATM   16  N   UNL     1      40.604 -14.156  -1.496  1.00  0.00    -0.262 N 
HETATM   17  N   UNL     1      40.457 -13.273  -2.500  1.00  0.00    -0.178 NA
HETATM   18  H   UNL     1      41.246 -14.938  -1.600  1.00  0.00     0.191 HD
HETATM   19  C   UNL     1      39.564 -12.395  -2.028  1.00  0.00     0.058 A 
HETATM   20  C   UNL     1      39.138 -12.731  -0.718  1.00  0.00     0.079 A 
BRANCH  19  21
HETATM   21  C   UNL     1      39.137 -11.232  -2.859  1.00  0.00     0.056 C 
HETATM   22  C   UNL     1      40.314 -10.370  -3.292  1.00  0.00     0.011 C 
ENDBRANCH  19  21
ENDBRANCH   1  15
TORSDOF 3
ENDMDL
MODEL 3
REMARK VINA RESULT:      -7.4      4.033      6.675
REMARK  3 active torsions:
REMARK  status: ('A' for Active; 'I' for Inactive)
REMARK    1  A    between atoms: C_2  and  C_3 
REMARK    2  A    between atoms: C_7  and  N_8 
REMARK       I    between atoms: N_8  and  C_9 
REMARK    3  A    between atoms: C_9  and  C_10 
ROOT
HETATM    1  N   UNL     1      39.965 -14.965   2.696  1.00  0.00    -0.311 N 
HETATM    2  C   UNL     1      40.659 -14.286   3.687  1.00  0.00     0.234 C 
HETATM    3  O   UNL     1      41.215 -13.201   3.514  1.00  0.00    -0.272 OA
HETATM    4  H   UNL     1      39.525 -15.856   2.902  1.00  0.00     0.170 HD
ENDROOT
BRANCH   2   5
HETATM    5  C   UNL     1      40.727 -14.986   5.035  1.00  0.00     0.138 C 
HETATM    6  C   UNL     1      41.989 -15.734   5.276  1.00  0.00    -0.008 A 
HETATM    7  C   UNL     1      42.766 -15.038   6.191  1.00  0.00     0.076 A 
HETATM    8  C   UNL     1      42.448 -16.908   4.702  1.00  0.00     0.030 A 
HETATM    9  C   UNL     1      44.020 -15.471   6.566  1.00  0.00     0.039 A 
HETATM   10  O   UNL     1      42.186 -13.878   6.630  1.00  0.00    -0.349 OA
HETATM   11  C   UNL     1      44.497 -16.657   6.003  1.00  0.00     0.022 A 
HETATM   12  C   UNL     1      43.713 -17.367   5.079  1.00  0.00     0.011 A 
HETATM   13 BR   UNL     1      44.386 -18.964   4.322  1.00  0.00    -0.051 Br
HETATM   14  C   UNL     1      40.807 -13.982   6.190  1.00  0.00     0.194 C 
ENDBRANCH   2   5
BRANCH   1  15
HETATM   15  C   UNL     1      39.808 -14.446   1.428  1.00  0.00     0.126 A 
HETATM   16  N   UNL     1      39.277 -13.214   1.150  1.00  0.00    -0.262 N 
HETATM   17  N   UNL     1      39.220 -12.936  -0.165  1.00  0.00    -0.178 NA
HETATM   18  H   UNL     1      38.937 -12.533   1.825  1.00  0.00     0.191 HD
HETATM   19  C   UNL     1      39.729 -14.029  -0.746  1.00  0.00     0.058 A 
HETATM   20  C   UNL     1      40.117 -15.001   0.210  1.00  0.00     0.079 A 
BRANCH  19  21
HETATM   21  C   UNL     1      39.829 -14.117  -2.232  1.00  0.00     0.056 C 
HETATM   22  C   UNL     1      38.721 -14.969  -2.834  1.00  0.00     0.011 C 
ENDBRANCH  19  21
ENDBRANCH   1  15
TORSDOF 3
ENDMDL
MODEL 4
REMARK VINA RESULT:      -7.2      2.749      3.852
REMARK  3 active torsions:
REMARK  status: ('A' for Active; 'I' for Inactive)
REMARK    1  A    between atoms: C_2  and  C_3 
REMARK    2  A    between atoms: C_7  and  N_8 
REMARK       I    between atoms: N_8  and  C_9 
REMARK    3  A    between atoms: C_9  and  C_10 
ROOT
HETATM    1  N   UNL     1      43.406 -12.125   6.168  1.00  0.00    -0.311 N 
HETATM    2  C   UNL     1      43.534 -12.034   4.790  1.00  0.00     0.234 C 
HETATM    3  O   UNL     1      44.387 -11.349   4.224  1.00  0.00    -0.272 OA
HETATM    4  H   UNL     1      42.683 -12.709   6.575  1.00  0.00     0.170 HD
ENDROOT
BRANCH   2   5
HETATM    5  C   UNL     1      42.513 -12.822   3.985  1.00  0.00     0.138 C 
HETATM    6  C   UNL     1      42.353 -14.237   4.412  1.00  0.00    -0.008 A 
HETATM    7  C   UNL     1      41.147 -14.378   5.084  1.00  0.00     0.076 A 
HETATM    8  C   UNL     1      43.216 -15.310   4.269  1.00  0.00     0.030 A 
HETATM    9  C   UNL     1      40.755 -15.576   5.643  1.00  0.00     0.039 A 
HETATM   10  O   UNL     1      40.431 -13.214   5.174  1.00  0.00    -0.349 OA
HETATM   11  C   UNL     1      41.610 -16.672   5.502  1.00  0.00     0.022 A 
HETATM   12  C   UNL     1      42.830 -16.535   4.820  1.00  0.00     0.011 A 
HETATM   13 BR   UNL     1      43.976 -18.031   4.654  1.00  0.00    -0.051 Br
HETATM   14  C   UNL     1      41.087 -12.322   4.235  1.00  0.00     0.194 C 
ENDBRANCH   2   5
BRANCH   1  15
HETATM   15  C   UNL     1      44.269 -11.475   7.026  1.00  0.00     0.126 A 
HETATM   16  N   UNL     1      45.598 -11.254   6.776  1.00  0.00    -0.262 N 
HETATM   17  N   UNL     1      46.233 -10.606   7.770  1.00  0.00    -0.178 NA
HETATM   18  H   UNL     1      46.113 -11.531   5.944  1.00  0.00     0.191 HD
HETATM   19  C   UNL     1      45.277 -10.410   8.686  1.00  0.00     0.058 A 
HETATM   20  C   UNL     1      44.029 -10.932   8.264  1.00  0.00     0.079 A 
BRANCH  19  21
HETATM   21  C   UNL     1      45.593  -9.718   9.969  1.00  0.00     0.056 C 
HETATM   22  C   UNL     1      44.341  -9.375  10.763  1.00  0.00     0.011 C 
ENDBRANCH  19  21
ENDBRANCH   1  15
TORSDOF 3
ENDMDL
MODEL 5
REMARK VINA RESULT:      -7.2      4.892      7.434
REMARK  3 active torsions:
REMARK  status: ('A' for Active; 'I' for Inactive)
REMARK    1  A    between atoms: C_2  and  C_3 
REMARK    2  A    between atoms: C_7  and  N_8 
REMARK       I    between atoms: N_8  and  C_9 
REMARK    3  A    between atoms: C_9  and  C_10 
ROOT
HETATM    1  N   UNL     1      42.609 -14.472   1.257  1.00  0.00    -0.311 N 
HETATM    2  C   UNL     1      41.587 -13.595   1.585  1.00  0.00     0.234 C 
HETATM    3  O   UNL     1      40.877 -13.712   2.585  1.00  0.00    -0.272 OA
HETATM    4  H   UNL     1      43.162 -14.320   0.419  1.00  0.00     0.170 HD
ENDROOT
BRANCH   2   5
HETATM    5  C   UNL     1      41.356 -12.461   0.599  1.00  0.00     0.138 C 
HETATM    6  C   UNL     1      40.162 -12.634  -0.269  1.00  0.00    -0.008 A 
HETATM    7  C   UNL     1      39.163 -11.768   0.150  1.00  0.00     0.076 A 
HETATM    8  C   UNL     1      39.946 -13.516  -1.315  1.00  0.00     0.030 A 
HETATM    9  C   UNL     1      37.917 -11.747  -0.441  1.00  0.00     0.039 A 
HETATM   10  O   UNL     1      39.522 -10.994   1.220  1.00  0.00    -0.349 OA
HETATM   11  C   UNL     1      37.683 -12.624  -1.503  1.00  0.00     0.022 A 
HETATM   12  C   UNL     1      38.693 -13.500  -1.933  1.00  0.00     0.011 A 
HETATM   13 BR   UNL     1      38.347 -14.687  -3.364  1.00  0.00    -0.051 Br
HETATM   14  C   UNL     1      40.961 -11.164   1.312  1.00  0.00     0.194 C 
ENDBRANCH   2   5
BRANCH   1  15
HETATM   15  C   UNL     1      42.943 -15.540   2.064  1.00  0.00     0.126 A 
HETATM   16  N   UNL     1      43.056 -15.481   3.429  1.00  0.00    -0.262 N 
HETATM   17  N   UNL     1      43.401 -16.653   3.991  1.00  0.00    -0.178 NA
HETATM   18  H   UNL     1      42.911 -14.663   4.015  1.00  0.00     0.191 HD
HETATM   19  C   UNL     1      43.514 -17.488   2.951  1.00  0.00     0.058 A 
HETATM   20  C   UNL     1      43.232 -16.839   1.723  1.00  0.00     0.079 A 
BRANCH  19  21
HETATM   21  C   UNL     1      43.903 -18.912   3.165  1.00  0.00     0.056 C 
HETATM   22  C   UNL     1      43.243 -19.847   2.162  1.00  0.00     0.011 C 
ENDBRANCH  19  21
ENDBRANCH   1  15
TORSDOF 3
ENDMDL
MODEL 6
REMARK VINA RESULT:      -7.1      3.596      7.441
REMARK  3 active torsions:
REMARK  status: ('A' for Active; 'I' for Inactive)
REMARK    1  A    between atoms: C_2  and  C_3 
REMARK    2  A    between atoms: C_7  and  N_8 
REMARK       I    between atoms: N_8  and  C_9 
REMARK    3  A    between atoms: C_9  and  C_10 
ROOT
HETATM    1  N   UNL     1      44.041 -13.238   7.023  1.00  0.00    -0.311 N 
HETATM    2  C   UNL     1      43.321 -12.109   6.665  1.00  0.00     0.234 C 
HETATM    3  O   UNL     1      42.182 -12.142   6.196  1.00  0.00    -0.272 OA
HETATM    4  H   UNL     1      44.976 -13.145   7.408  1.00  0.00     0.170 HD
ENDROOT
BRANCH   2   5
HETATM    5  C   UNL     1      44.042 -10.784   6.858  1.00  0.00     0.138 C 
HETATM    6  C   UNL     1      43.886 -10.191   8.211  1.00  0.00    -0.008 A 
HETATM    7  C   UNL     1      45.075 -10.335   8.913  1.00  0.00     0.076 A 
HETATM    8  C   UNL     1      42.776  -9.612   8.804  1.00  0.00     0.030 A 
HETATM    9  C   UNL     1      45.207  -9.922  10.222  1.00  0.00     0.039 A 
HETATM   10  O   UNL     1      46.060 -10.963   8.199  1.00  0.00    -0.349 OA
HETATM   11  C   UNL     1      44.100  -9.329  10.834  1.00  0.00     0.022 A 
HETATM   12  C   UNL     1      42.897  -9.177  10.127  1.00  0.00     0.011 A 
HETATM   13 BR   UNL     1      41.409  -8.383  10.983  1.00  0.00    -0.051 Br
HETATM   14  C   UNL     1      45.563 -10.960   6.834  1.00  0.00     0.194 C 
ENDBRANCH   2   5
BRANCH   1  15
HETATM   15  C   UNL     1      43.511 -14.507   6.917  1.00  0.00     0.126 A 
HETATM   16  N   UNL     1      42.218 -14.841   7.226  1.00  0.00    -0.262 N 
HETATM   17  N   UNL     1      41.941 -16.145   7.048  1.00  0.00    -0.178 NA
HETATM   18  H   UNL     1      41.494 -14.212   7.565  1.00  0.00     0.191 HD
HETATM   19  C   UNL     1      43.096 -16.662   6.614  1.00  0.00     0.058 A 
HETATM   20  C   UNL     1      44.108 -15.675   6.510  1.00  0.00     0.079 A 
BRANCH  19  21
HETATM   21  C   UNL     1      43.204 -18.118   6.308  1.00  0.00     0.056 C 
HETATM   22  C   UNL     1      43.943 -18.380   5.004  1.00  0.00     0.011 C 
ENDBRANCH  19  21
ENDBRANCH   1  15
TORSDOF 3
ENDMDL
MODEL 7
REMARK VINA RESULT:      -7.1      4.607      7.255
REMARK  3 active torsions:
REMARK  status: ('A' for Active; 'I' for Inactive)
REMARK    1  A    between atoms: C_2  and  C_3 
REMARK    2  A    between atoms: C_7  and  N_8 
REMARK       I    between atoms: N_8  and  C_9 
REMARK    3  A    between atoms: C_9  and  C_10 
ROOT
HETATM    1  N   UNL     1      41.638 -14.367   0.459  1.00  0.00    -0.311 N 
HETATM    2  C   UNL     1      41.578 -15.300   1.483  1.00  0.00     0.234 C 
HETATM    3  O   UNL     1      40.526 -15.761   1.929  1.00  0.00    -0.272 OA
HETATM    4  H   UNL     1      42.538 -14.027   0.132  1.00  0.00     0.170 HD
ENDROOT
BRANCH   2   5
HETATM    5  C   UNL     1      42.917 -15.719   2.068  1.00  0.00     0.138 C 
HETATM    6  C   UNL     1      43.038 -15.515   3.535  1.00  0.00    -0.008 A 
HETATM    7  C   UNL     1      42.972 -16.745   4.174  1.00  0.00     0.076 A 
HETATM    8  C   UNL     1      43.148 -14.341   4.261  1.00  0.00     0.030 A 
HETATM    9  C   UNL     1      43.004 -16.859   5.548  1.00  0.00     0.039 A 
HETATM   10  O   UNL     1      42.823 -17.801   3.316  1.00  0.00    -0.349 OA
HETATM   11  C   UNL     1      43.122 -15.685   6.298  1.00  0.00     0.022 A 
HETATM   12  C   UNL     1      43.193 -14.439   5.655  1.00  0.00     0.011 A 
HETATM   13 BR   UNL     1      43.339 -12.864   6.693  1.00  0.00    -0.051 Br
HETATM   14  C   UNL     1      43.110 -17.238   2.009  1.00  0.00     0.194 C 
ENDBRANCH   2   5
BRANCH   1  15
HETATM   15  C   UNL     1      40.506 -13.904  -0.177  1.00  0.00     0.126 A 
HETATM   16  N   UNL     1      39.716 -12.883   0.284  1.00  0.00    -0.262 N 
HETATM   17  N   UNL     1      38.661 -12.619  -0.509  1.00  0.00    -0.178 NA
HETATM   18  H   UNL     1      39.857 -12.342   1.134  1.00  0.00     0.191 HD
HETATM   19  C   UNL     1      38.780 -13.503  -1.506  1.00  0.00     0.058 A 
HETATM   20  C   UNL     1      39.923 -14.326  -1.346  1.00  0.00     0.079 A 
BRANCH  19  21
HETATM   21  C   UNL     1      37.774 -13.540  -2.607  1.00  0.00     0.056 C 
HETATM   22  C   UNL     1      38.079 -14.621  -3.632  1.00  0.00     0.011 C 
ENDBRANCH  19  21
ENDBRANCH   1  15
TORSDOF 3
ENDMDL
MODEL 8
REMARK VINA RESULT:      -7.0      1.893      2.570
REMARK  3 active torsions:
REMARK  status: ('A' for Active; 'I' for Inactive)
REMARK    1  A    between atoms: C_2  and  C_3 
REMARK    2  A    between atoms: C_7  and  N_8 
REMARK       I    between atoms: N_8  and  C_9 
REMARK    3  A    between atoms: C_9  and  C_10 
ROOT
HETATM    1  N   UNL     1      43.337 -13.407   6.999  1.00  0.00    -0.311 N 
HETATM    2  C   UNL     1      42.750 -13.771   5.797  1.00  0.00     0.234 C 
HETATM    3  O   UNL     1      42.890 -13.142   4.747  1.00  0.00    -0.272 OA
HETATM    4  H   UNL     1      43.186 -13.971   7.831  1.00  0.00     0.170 HD
ENDROOT
BRANCH   2   5
HETATM    5  C   UNL     1      41.871 -15.011   5.846  1.00  0.00     0.138 C 
HETATM    6  C   UNL     1      42.505 -16.236   5.291  1.00  0.00    -0.008 A 
HETATM    7  C   UNL     1      42.849 -17.085   6.333  1.00  0.00     0.076 A 
HETATM    8  C   UNL     1      42.803 -16.564   3.978  1.00  0.00     0.030 A 
HETATM    9  C   UNL     1      43.504 -18.279   6.118  1.00  0.00     0.039 A 
HETATM   10  O   UNL     1      42.522 -16.595   7.569  1.00  0.00    -0.349 OA
HETATM   11  C   UNL     1      43.807 -18.630   4.800  1.00  0.00     0.022 A 
HETATM   12  C   UNL     1      43.457 -17.776   3.742  1.00  0.00     0.011 A 
HETATM   13 BR   UNL     1      43.889 -18.268   1.968  1.00  0.00    -0.051 Br
HETATM   14  C   UNL     1      41.636 -15.481   7.285  1.00  0.00     0.194 C 
ENDBRANCH   2   5
BRANCH   1  15
HETATM   15  C   UNL     1      44.170 -12.314   7.105  1.00  0.00     0.126 A 
HETATM   16  N   UNL     1      45.253 -12.078   6.298  1.00  0.00    -0.262 N 
HETATM   17  N   UNL     1      45.915 -10.948   6.602  1.00  0.00    -0.178 NA
HETATM   18  H   UNL     1      45.577 -12.663   5.531  1.00  0.00     0.191 HD
HETATM   19  C   UNL     1      45.235 -10.447   7.640  1.00  0.00     0.058 A 
HETATM   20  C   UNL     1      44.130 -11.264   7.989  1.00  0.00     0.079 A 
BRANCH  19  21
HETATM   21  C   UNL     1      45.673  -9.176   8.287  1.00  0.00     0.056 C 
HETATM   22  C   UNL     1      45.563  -9.233   9.803  1.00  0.00     0.011 C 
ENDBRANCH  19  21
ENDBRANCH   1  15
TORSDOF 3
ENDMDL
MODEL 9
REMARK VINA RESULT:      -6.9     15.298     16.505
REMARK  3 active torsions:
REMARK  status: ('A' for Active; 'I' for Inactive)
REMARK    1  A    between atoms: C_2  and  C_3 
REMARK    2  A    between atoms: C_7  and  N_8 
REMARK       I    between atoms: N_8  and  C_9 
REMARK    3  A    between atoms: C_9  and  C_10 
ROOT
HETATM    1  N   UNL     1      47.061 -29.968   2.706  1.00  0.00    -0.311 N 
HETATM    2  C   UNL     1      46.529 -28.804   2.172  1.00  0.00     0.234 C 
HETATM    3  O   UNL     1      47.161 -27.753   2.053  1.00  0.00    -0.272 OA
HETATM    4  H   UNL     1      46.489 -30.805   2.774  1.00  0.00     0.170 HD
ENDROOT
BRANCH   2   5
HETATM    5  C   UNL     1      45.069 -28.882   1.756  1.00  0.00     0.138 C 
HETATM    6  C   UNL     1      44.855 -29.203   0.320  1.00  0.00    -0.008 A 
HETATM    7  C   UNL     1      44.409 -30.512   0.207  1.00  0.00     0.076 A 
HETATM    8  C   UNL     1      45.080 -28.428  -0.805  1.00  0.00     0.030 A 
HETATM    9  C   UNL     1      44.176 -31.103  -1.018  1.00  0.00     0.039 A 
HETATM   10  O   UNL     1      44.278 -31.153   1.409  1.00  0.00    -0.349 OA
HETATM   11  C   UNL     1      44.391 -30.333  -2.164  1.00  0.00     0.022 A 
HETATM   12  C   UNL     1      44.838 -29.007  -2.054  1.00  0.00     0.011 A 
HETATM   13 BR   UNL     1      45.133 -27.991  -3.622  1.00  0.00    -0.051 Br
HETATM   14  C   UNL     1      44.364 -30.085   2.390  1.00  0.00     0.194 C 
ENDBRANCH   2   5
BRANCH   1  15
HETATM   15  C   UNL     1      48.376 -30.052   3.114  1.00  0.00     0.126 A 
HETATM   16  N   UNL     1      49.449 -29.624   2.377  1.00  0.00    -0.262 N 
HETATM   17  N   UNL     1      50.633 -29.820   2.986  1.00  0.00    -0.178 NA
HETATM   18  H   UNL     1      49.421 -29.196   1.454  1.00  0.00     0.191 HD
HETATM   19  C   UNL     1      50.304 -30.395   4.148  1.00  0.00     0.058 A 
HETATM   20  C   UNL     1      48.902 -30.556   4.278  1.00  0.00     0.079 A 
BRANCH  19  21
HETATM   21  C   UNL     1      51.363 -30.787   5.123  1.00  0.00     0.056 C 
HETATM   22  C   UNL     1      51.113 -32.162   5.725  1.00  0.00     0.011 C 
ENDBRANCH  19  21
ENDBRANCH   1  15
TORSDOF 3
ENDMDL
MODEL 10
REMARK VINA RESULT:      -6.8      4.073      7.923
REMARK  3 active torsions:
REMARK  status: ('A' for Active; 'I' for Inactive)
REMARK    1  A    between atoms: C_2  and  C_3 
REMARK    2  A    between atoms: C_7  and  N_8 
REMARK       I    between atoms: N_8  and  C_9 
REMARK    3  A    between atoms: C_9  and  C_10 
ROOT
HETATM    1  N   UNL     1      43.682 -11.860   7.846  1.00  0.00    -0.311 N 
HETATM    2  C   UNL     1      43.446 -10.502   7.705  1.00  0.00     0.234 C 
HETATM    3  O   UNL     1      42.869 -10.003   6.738  1.00  0.00    -0.272 OA
HETATM    4  H   UNL     1      44.162 -12.211   8.670  1.00  0.00     0.170 HD
ENDROOT
BRANCH   2   5
HETATM    5  C   UNL     1      43.980  -9.624   8.826  1.00  0.00     0.138 C 
HETATM    6  C   UNL     1      43.148  -9.627  10.058  1.00  0.00    -0.008 A 
HETATM    7  C   UNL     1      43.791 -10.363  11.042  1.00  0.00     0.076 A 
HETATM    8  C   UNL     1      41.901  -9.070  10.287  1.00  0.00     0.030 A 
HETATM    9  C   UNL     1      43.225 -10.582  12.281  1.00  0.00     0.039 A 
HETATM   10  O   UNL     1      44.994 -10.880  10.642  1.00  0.00    -0.349 OA
HETATM   11  C   UNL     1      41.970 -10.022  12.533  1.00  0.00     0.022 A 
HETATM   12  C   UNL     1      41.317  -9.272  11.541  1.00  0.00     0.011 A 
HETATM   13 BR   UNL     1      39.613  -8.535  11.903  1.00  0.00    -0.051 Br
HETATM   14  C   UNL     1      45.286 -10.178   9.405  1.00  0.00     0.194 C 
ENDBRANCH   2   5
BRANCH   1  15
HETATM   15  C   UNL     1      43.245 -12.779   6.915  1.00  0.00     0.126 A 
HETATM   16  N   UNL     1      41.996 -12.781   6.349  1.00  0.00    -0.262 N 
HETATM   17  N   UNL     1      41.804 -13.784   5.473  1.00  0.00    -0.178 NA
HETATM   18  H   UNL     1      41.245 -12.121   6.534  1.00  0.00     0.191 HD
HETATM   19  C   UNL     1      42.968 -14.446   5.483  1.00  0.00     0.058 A 
HETATM   20  C   UNL     1      43.904 -13.852   6.366  1.00  0.00     0.079 A 
BRANCH  19  21
HETATM   21  C   UNL     1      43.154 -15.657   4.632  1.00  0.00     0.056 C 
HETATM   22  C   UNL     1      41.890 -16.499   4.543  1.00  0.00     0.011 C 
ENDBRANCH  19  21
ENDBRANCH   1  15
TORSDOF 3
ENDMDL
