MODEL 1
REMARK VINA RESULT:      -8.5      0.000      0.000
REMARK  2 active torsions:
REMARK  status: ('A' for Active; 'I' for Inactive)
REMARK    1  A    between atoms: C_2  and  N_3 
REMARK    2  A    between atoms: N_3  and  C_4 
ROOT
HETATM    1  C   UNL     1      43.373 -16.142   4.597  1.00  0.00     0.143 A 
HETATM    2  N   UNL     1      43.230 -15.428   5.741  1.00  0.00    -0.223 NA
HETATM    3  C   UNL     1      43.213 -16.063   6.922  1.00  0.00     0.236 A 
HETATM    4  N   UNL     1      43.326 -17.372   7.145  1.00  0.00    -0.234 NA
HETATM    5  C   UNL     1      43.471 -18.067   6.005  1.00  0.00     0.114 A 
HETATM    6  C   UNL     1      43.501 -17.546   4.710  1.00  0.00     0.053 A 
HETATM    7  S   UNL     1      43.642 -19.779   6.056  1.00  0.00    -0.073 SA
HETATM    8  C   UNL     1      43.763 -19.834   4.392  1.00  0.00    -0.008 A 
HETATM    9  C   UNL     1      43.671 -18.614   3.780  1.00  0.00    -0.028 A 
HETATM   10  C   UNL     1      43.803 -18.759   2.307  1.00  0.00     0.041 C 
HETATM   11  C   UNL     1      43.651 -20.299   2.100  1.00  0.00     0.010 C 
HETATM   12  C   UNL     1      43.965 -20.973   3.468  1.00  0.00     0.047 C 
ENDROOT
BRANCH   1  13
HETATM   13  N   UNL     1      43.353 -15.507   3.346  1.00  0.00    -0.340 N 
HETATM   14  H   UNL     1      44.266 -15.234   3.016  1.00  0.00     0.167 HD
BRANCH  13  15
HETATM   15  C   UNL     1      42.303 -15.186   2.468  1.00  0.00     0.036 A 
HETATM   16  C   UNL     1      41.271 -16.072   2.138  1.00  0.00     0.032 A 
HETATM   17  C   UNL     1      40.266 -15.715   1.231  1.00  0.00     0.042 A 
HETATM   18  C   UNL     1      40.289 -14.464   0.628  1.00  0.00     0.102 A 
HETATM   19  C   UNL     1      41.331 -13.579   0.912  1.00  0.00     0.104 A 
HETATM   20  O   UNL     1      39.269 -14.175  -0.241  1.00  0.00    -0.346 OA
HETATM   21  C   UNL     1      42.318 -13.932   1.834  1.00  0.00     0.069 A 
HETATM   22  O   UNL     1      41.449 -12.345   0.323  1.00  0.00    -0.346 OA
HETATM   23  C   UNL     1      40.620 -12.248  -0.841  1.00  0.00     0.202 C 
HETATM   24  C   UNL     1      39.226 -12.777  -0.551  1.00  0.00     0.202 C 
ENDBRANCH  13  15
ENDBRANCH   1  13
TORSDOF 2
ENDMDL
MODEL 2
REMARK VINA RESULT:      -8.4      1.783      2.561
REMARK  2 active torsions:
REMARK  status: ('A' for Active; 'I' for Inactive)
REMARK    1  A    between atoms: C_2  and  N_3 
REMARK    2  A    between atoms: N_3  and  C_4 
ROOT
HETATM    1  C   UNL     1      40.907 -15.159   4.300  1.00  0.00     0.143 A 
HETATM    2  N   UNL     1      40.590 -14.334   5.328  1.00  0.00    -0.223 NA
HETATM    3  C   UNL     1      41.269 -14.418   6.481  1.00  0.00     0.236 A 
HETATM    4  N   UNL     1      42.273 -15.244   6.776  1.00  0.00    -0.234 NA
HETATM    5  C   UNL     1      42.580 -16.053   5.750  1.00  0.00     0.114 A 
HETATM    6  C   UNL     1      41.960 -16.083   4.499  1.00  0.00     0.053 A 
HETATM    7  S   UNL     1      43.854 -17.198   5.907  1.00  0.00    -0.073 SA
HETATM    8  C   UNL     1      43.600 -17.724   4.344  1.00  0.00    -0.008 A 
HETATM    9  C   UNL     1      42.582 -17.082   3.693  1.00  0.00    -0.028 A 
HETATM   10  C   UNL     1      42.437 -17.603   2.309  1.00  0.00     0.041 C 
HETATM   11  C   UNL     1      43.309 -18.898   2.339  1.00  0.00     0.010 C 
HETATM   12  C   UNL     1      44.292 -18.754   3.538  1.00  0.00     0.047 C 
ENDROOT
BRANCH   1  13
HETATM   13  N   UNL     1      40.186 -15.120   3.097  1.00  0.00    -0.340 N 
HETATM   14  H   UNL     1      39.385 -15.733   3.084  1.00  0.00     0.167 HD
BRANCH  13  15
HETATM   15  C   UNL     1      40.366 -14.383   1.914  1.00  0.00     0.036 A 
HETATM   16  C   UNL     1      40.940 -13.107   1.875  1.00  0.00     0.032 A 
HETATM   17  C   UNL     1      41.066 -12.401   0.673  1.00  0.00     0.042 A 
HETATM   18  C   UNL     1      40.604 -12.960  -0.512  1.00  0.00     0.102 A 
HETATM   19  C   UNL     1      39.992 -14.214  -0.491  1.00  0.00     0.104 A 
HETATM   20  O   UNL     1      40.769 -12.220  -1.654  1.00  0.00    -0.346 OA
HETATM   21  C   UNL     1      39.889 -14.923   0.708  1.00  0.00     0.069 A 
HETATM   22  O   UNL     1      39.468 -14.813  -1.609  1.00  0.00    -0.346 OA
HETATM   23  C   UNL     1      39.301 -13.866  -2.671  1.00  0.00     0.202 C 
HETATM   24  C   UNL     1      40.547 -13.011  -2.827  1.00  0.00     0.202 C 
ENDBRANCH  13  15
ENDBRANCH   1  13
TORSDOF 2
ENDMDL
MODEL 3
REMARK VINA RESULT:      -8.2      1.755      2.196
REMARK  2 active torsions:
REMARK  status: ('A' for Active; 'I' for Inactive)
REMARK    1  A    between atoms: C_2  and  N_3 
REMARK    2  A    between atoms: N_3  and  C_4 
ROOT
HETATM    1  C   UNL     1      40.868 -15.275   4.401  1.00  0.00     0.143 A 
HETATM    2  N   UNL     1      40.614 -14.448   5.445  1.00  0.00    -0.223 NA
HETATM    3  C   UNL     1      41.406 -14.481   6.527  1.00  0.00     0.236 A 
HETATM    4  N   UNL     1      42.471 -15.256   6.733  1.00  0.00    -0.234 NA
HETATM    5  C   UNL     1      42.714 -16.068   5.691  1.00  0.00     0.114 A 
HETATM    6  C   UNL     1      41.976 -16.147   4.508  1.00  0.00     0.053 A 
HETATM    7  S   UNL     1      44.049 -17.152   5.738  1.00  0.00    -0.073 SA
HETATM    8  C   UNL     1      43.668 -17.715   4.214  1.00  0.00    -0.008 A 
HETATM    9  C   UNL     1      42.563 -17.131   3.658  1.00  0.00    -0.028 A 
HETATM   10  C   UNL     1      42.308 -17.682   2.301  1.00  0.00     0.041 C 
HETATM   11  C   UNL     1      43.238 -18.935   2.262  1.00  0.00     0.010 C 
HETATM   12  C   UNL     1      44.325 -18.727   3.357  1.00  0.00     0.047 C 
ENDROOT
BRANCH   1  13
HETATM   13  N   UNL     1      40.031 -15.289   3.275  1.00  0.00    -0.340 N 
HETATM   14  H   UNL     1      39.233 -15.898   3.369  1.00  0.00     0.167 HD
BRANCH  13  15
HETATM   15  C   UNL     1      40.095 -14.611   2.045  1.00  0.00     0.036 A 
HETATM   16  C   UNL     1      39.991 -15.248   0.803  1.00  0.00     0.032 A 
HETATM   17  C   UNL     1      40.095 -14.530  -0.395  1.00  0.00     0.042 A 
HETATM   18  C   UNL     1      40.320 -13.159  -0.365  1.00  0.00     0.102 A 
HETATM   19  C   UNL     1      40.468 -12.511   0.862  1.00  0.00     0.104 A 
HETATM   20  O   UNL     1      40.400 -12.516  -1.573  1.00  0.00    -0.346 OA
HETATM   21  C   UNL     1      40.341 -13.227   2.053  1.00  0.00     0.069 A 
HETATM   22  O   UNL     1      40.738 -11.169   0.975  1.00  0.00    -0.346 OA
HETATM   23  C   UNL     1      41.203 -10.631  -0.269  1.00  0.00     0.202 C 
HETATM   24  C   UNL     1      40.320 -11.095  -1.416  1.00  0.00     0.202 C 
ENDBRANCH  13  15
ENDBRANCH   1  13
TORSDOF 2
ENDMDL
MODEL 4
REMARK VINA RESULT:      -7.8      1.865      3.888
REMARK  2 active torsions:
REMARK  status: ('A' for Active; 'I' for Inactive)
REMARK    1  A    between atoms: C_2  and  N_3 
REMARK    2  A    between atoms: N_3  and  C_4 
ROOT
HETATM    1  C   UNL     1      41.979 -16.881   2.931  1.00  0.00     0.143 A 
HETATM    2  N   UNL     1      42.443 -17.983   2.293  1.00  0.00    -0.223 NA
HETATM    3  C   UNL     1      43.511 -18.632   2.779  1.00  0.00     0.236 A 
HETATM    4  N   UNL     1      44.221 -18.331   3.867  1.00  0.00    -0.234 NA
HETATM    5  C   UNL     1      43.749 -17.241   4.492  1.00  0.00     0.114 A 
HETATM    6  C   UNL     1      42.656 -16.465   4.101  1.00  0.00     0.053 A 
HETATM    7  S   UNL     1      44.511 -16.674   5.927  1.00  0.00    -0.073 SA
HETATM    8  C   UNL     1      43.410 -15.425   6.039  1.00  0.00    -0.008 A 
HETATM    9  C   UNL     1      42.484 -15.399   5.033  1.00  0.00    -0.028 A 
HETATM   10  C   UNL     1      41.540 -14.266   5.222  1.00  0.00     0.041 C 
HETATM   11  C   UNL     1      42.249 -13.411   6.319  1.00  0.00     0.010 C 
HETATM   12  C   UNL     1      43.256 -14.350   7.046  1.00  0.00     0.047 C 
ENDROOT
BRANCH   1  13
HETATM   13  N   UNL     1      40.888 -16.160   2.422  1.00  0.00    -0.340 N 
HETATM   14  H   UNL     1      40.002 -16.427   2.823  1.00  0.00     0.167 HD
BRANCH  13  15
HETATM   15  C   UNL     1      40.800 -15.135   1.464  1.00  0.00     0.036 A 
HETATM   16  C   UNL     1      41.455 -13.904   1.585  1.00  0.00     0.032 A 
HETATM   17  C   UNL     1      41.308 -12.902   0.617  1.00  0.00     0.042 A 
HETATM   18  C   UNL     1      40.487 -13.116  -0.483  1.00  0.00     0.102 A 
HETATM   19  C   UNL     1      39.793 -14.321  -0.603  1.00  0.00     0.104 A 
HETATM   20  O   UNL     1      40.396 -12.098  -1.397  1.00  0.00    -0.346 OA
HETATM   21  C   UNL     1      39.961 -15.325   0.353  1.00  0.00     0.069 A 
HETATM   22  O   UNL     1      38.927 -14.590  -1.634  1.00  0.00    -0.346 OA
HETATM   23  C   UNL     1      38.560 -13.389  -2.325  1.00  0.00     0.202 C 
HETATM   24  C   UNL     1      39.788 -12.542  -2.615  1.00  0.00     0.202 C 
ENDBRANCH  13  15
ENDBRANCH   1  13
TORSDOF 2
ENDMDL
MODEL 5
REMARK VINA RESULT:      -7.7      3.548      6.675
REMARK  2 active torsions:
REMARK  status: ('A' for Active; 'I' for Inactive)
REMARK    1  A    between atoms: C_2  and  N_3 
REMARK    2  A    between atoms: N_3  and  C_4 
ROOT
HETATM    1  C   UNL     1      42.051 -13.517   3.653  1.00  0.00     0.143 A 
HETATM    2  N   UNL     1      42.829 -12.646   4.343  1.00  0.00    -0.223 NA
HETATM    3  C   UNL     1      43.150 -11.465   3.796  1.00  0.00     0.236 A 
HETATM    4  N   UNL     1      42.789 -10.996   2.601  1.00  0.00    -0.234 NA
HETATM    5  C   UNL     1      42.017 -11.865   1.930  1.00  0.00     0.114 A 
HETATM    6  C   UNL     1      41.608 -13.126   2.368  1.00  0.00     0.053 A 
HETATM    7  S   UNL     1      41.428 -11.462   0.364  1.00  0.00    -0.073 SA
HETATM    8  C   UNL     1      40.637 -12.928   0.265  1.00  0.00    -0.008 A 
HETATM    9  C   UNL     1      40.797 -13.730   1.362  1.00  0.00    -0.028 A 
HETATM   10  C   UNL     1      40.049 -15.003   1.191  1.00  0.00     0.041 C 
HETATM   11  C   UNL     1      39.685 -14.984  -0.327  1.00  0.00     0.010 C 
HETATM   12  C   UNL     1      39.781 -13.503  -0.798  1.00  0.00     0.047 C 
ENDROOT
BRANCH   1  13
HETATM   13  N   UNL     1      41.734 -14.775   4.186  1.00  0.00    -0.340 N 
HETATM   14  H   UNL     1      40.825 -14.816   4.619  1.00  0.00     0.167 HD
BRANCH  13  15
HETATM   15  C   UNL     1      42.443 -15.989   4.223  1.00  0.00     0.036 A 
HETATM   16  C   UNL     1      43.431 -16.280   5.171  1.00  0.00     0.032 A 
HETATM   17  C   UNL     1      44.132 -17.492   5.144  1.00  0.00     0.042 A 
HETATM   18  C   UNL     1      43.863 -18.428   4.153  1.00  0.00     0.102 A 
HETATM   19  C   UNL     1      42.910 -18.141   3.174  1.00  0.00     0.104 A 
HETATM   20  O   UNL     1      44.576 -19.597   4.192  1.00  0.00    -0.346 OA
HETATM   21  C   UNL     1      42.198 -16.941   3.219  1.00  0.00     0.069 A 
HETATM   22  O   UNL     1      42.620 -18.992   2.137  1.00  0.00    -0.346 OA
HETATM   23  C   UNL     1      43.640 -19.986   1.986  1.00  0.00     0.202 C 
HETATM   24  C   UNL     1      44.004 -20.589   3.332  1.00  0.00     0.202 C 
ENDBRANCH  13  15
ENDBRANCH   1  13
TORSDOF 2
ENDMDL
MODEL 6
REMARK VINA RESULT:      -7.7      4.167      7.413
REMARK  2 active torsions:
REMARK  status: ('A' for Active; 'I' for Inactive)
REMARK    1  A    between atoms: C_2  and  N_3 
REMARK    2  A    between atoms: N_3  and  C_4 
ROOT
HETATM    1  C   UNL     1      39.342 -13.314   2.321  1.00  0.00     0.143 A 
HETATM    2  N   UNL     1      39.205 -12.500   3.397  1.00  0.00    -0.223 NA
HETATM    3  C   UNL     1      39.093 -11.176   3.219  1.00  0.00     0.236 A 
HETATM    4  N   UNL     1      39.095 -10.507   2.066  1.00  0.00    -0.234 NA
HETATM    5  C   UNL     1      39.227 -11.323   1.009  1.00  0.00     0.114 A 
HETATM    6  C   UNL     1      39.359 -12.713   1.041  1.00  0.00     0.053 A 
HETATM    7  S   UNL     1      39.247 -10.673  -0.584  1.00  0.00    -0.073 SA
HETATM    8  C   UNL     1      39.419 -12.203  -1.227  1.00  0.00    -0.008 A 
HETATM    9  C   UNL     1      39.473 -13.202  -0.294  1.00  0.00    -0.028 A 
HETATM   10  C   UNL     1      39.612 -14.526  -0.955  1.00  0.00     0.041 C 
HETATM   11  C   UNL     1      39.972 -14.139  -2.424  1.00  0.00     0.010 C 
HETATM   12  C   UNL     1      39.510 -12.666  -2.630  1.00  0.00     0.047 C 
ENDROOT
BRANCH   1  13
HETATM   13  N   UNL     1      39.501 -14.699   2.482  1.00  0.00    -0.340 N 
HETATM   14  H   UNL     1      38.658 -15.226   2.320  1.00  0.00     0.167 HD
BRANCH  13  15
HETATM   15  C   UNL     1      40.615 -15.486   2.822  1.00  0.00     0.036 A 
HETATM   16  C   UNL     1      41.396 -16.170   1.882  1.00  0.00     0.032 A 
HETATM   17  C   UNL     1      42.476 -16.969   2.275  1.00  0.00     0.042 A 
HETATM   18  C   UNL     1      42.782 -17.107   3.623  1.00  0.00     0.102 A 
HETATM   19  C   UNL     1      41.993 -16.467   4.579  1.00  0.00     0.104 A 
HETATM   20  O   UNL     1      43.859 -17.895   3.938  1.00  0.00    -0.346 OA
HETATM   21  C   UNL     1      40.931 -15.653   4.181  1.00  0.00     0.069 A 
HETATM   22  O   UNL     1      42.202 -16.591   5.931  1.00  0.00    -0.346 OA
HETATM   23  C   UNL     1      43.051 -17.707   6.220  1.00  0.00     0.202 C 
HETATM   24  C   UNL     1      44.261 -17.712   5.300  1.00  0.00     0.202 C 
ENDBRANCH  13  15
ENDBRANCH   1  13
TORSDOF 2
ENDMDL
MODEL 7
REMARK VINA RESULT:      -7.7      4.175      8.157
REMARK  2 active torsions:
REMARK  status: ('A' for Active; 'I' for Inactive)
REMARK    1  A    between atoms: C_2  and  N_3 
REMARK    2  A    between atoms: N_3  and  C_4 
ROOT
HETATM    1  C   UNL     1      39.742 -13.947  -0.486  1.00  0.00     0.143 A 
HETATM    2  N   UNL     1      39.217 -14.911  -1.282  1.00  0.00    -0.223 NA
HETATM    3  C   UNL     1      39.196 -14.737  -2.611  1.00  0.00     0.236 A 
HETATM    4  N   UNL     1      39.649 -13.691  -3.302  1.00  0.00    -0.234 NA
HETATM    5  C   UNL     1      40.170 -12.745  -2.504  1.00  0.00     0.114 A 
HETATM    6  C   UNL     1      40.253 -12.786  -1.111  1.00  0.00     0.053 A 
HETATM    7  S   UNL     1      40.821 -11.306  -3.185  1.00  0.00    -0.073 SA
HETATM    8  C   UNL     1      41.218 -10.744  -1.665  1.00  0.00    -0.008 A 
HETATM    9  C   UNL     1      40.874 -11.589  -0.645  1.00  0.00    -0.028 A 
HETATM   10  C   UNL     1      41.276 -11.015   0.665  1.00  0.00     0.041 C 
HETATM   11  C   UNL     1      41.614  -9.535   0.301  1.00  0.00     0.010 C 
HETATM   12  C   UNL     1      41.887  -9.497  -1.232  1.00  0.00     0.047 C 
ENDROOT
BRANCH   1  13
HETATM   13  N   UNL     1      39.740 -14.086   0.910  1.00  0.00    -0.340 N 
HETATM   14  H   UNL     1      38.893 -13.760   1.349  1.00  0.00     0.167 HD
BRANCH  13  15
HETATM   15  C   UNL     1      40.692 -14.600   1.808  1.00  0.00     0.036 A 
HETATM   16  C   UNL     1      41.358 -13.819   2.760  1.00  0.00     0.032 A 
HETATM   17  C   UNL     1      42.323 -14.373   3.610  1.00  0.00     0.042 A 
HETATM   18  C   UNL     1      42.647 -15.720   3.508  1.00  0.00     0.102 A 
HETATM   19  C   UNL     1      42.023 -16.508   2.539  1.00  0.00     0.104 A 
HETATM   20  O   UNL     1      43.591 -16.200   4.378  1.00  0.00    -0.346 OA
HETATM   21  C   UNL     1      41.046 -15.956   1.709  1.00  0.00     0.069 A 
HETATM   22  O   UNL     1      42.321 -17.834   2.344  1.00  0.00    -0.346 OA
HETATM   23  C   UNL     1      43.559 -18.182   2.975  1.00  0.00     0.202 C 
HETATM   24  C   UNL     1      43.612 -17.632   4.390  1.00  0.00     0.202 C 
ENDBRANCH  13  15
ENDBRANCH   1  13
TORSDOF 2
ENDMDL
MODEL 8
REMARK VINA RESULT:      -7.5      3.898      5.798
REMARK  2 active torsions:
REMARK  status: ('A' for Active; 'I' for Inactive)
REMARK    1  A    between atoms: C_2  and  N_3 
REMARK    2  A    between atoms: N_3  and  C_4 
ROOT
HETATM    1  C   UNL     1      41.923 -14.773   3.555  1.00  0.00     0.143 A 
HETATM    2  N   UNL     1      41.865 -14.307   2.283  1.00  0.00    -0.223 NA
HETATM    3  C   UNL     1      42.401 -15.026   1.287  1.00  0.00     0.236 A 
HETATM    4  N   UNL     1      43.016 -16.206   1.374  1.00  0.00    -0.234 NA
HETATM    5  C   UNL     1      43.064 -16.658   2.637  1.00  0.00     0.114 A 
HETATM    6  C   UNL     1      42.556 -16.019   3.770  1.00  0.00     0.053 A 
HETATM    7  S   UNL     1      43.809 -18.170   2.983  1.00  0.00    -0.073 SA
HETATM    8  C   UNL     1      43.461 -17.992   4.605  1.00  0.00    -0.008 A 
HETATM    9  C   UNL     1      42.809 -16.830   4.916  1.00  0.00    -0.028 A 
HETATM   10  C   UNL     1      42.529 -16.763   6.374  1.00  0.00     0.041 C 
HETATM   11  C   UNL     1      43.415 -17.915   6.945  1.00  0.00     0.010 C 
HETATM   12  C   UNL     1      43.724 -18.878   5.761  1.00  0.00     0.047 C 
ENDROOT
BRANCH   1  13
HETATM   13  N   UNL     1      41.406 -14.021   4.621  1.00  0.00    -0.340 N 
HETATM   14  H   UNL     1      40.473 -14.289   4.892  1.00  0.00     0.167 HD
BRANCH  13  15
HETATM   15  C   UNL     1      41.946 -12.970   5.382  1.00  0.00     0.036 A 
HETATM   16  C   UNL     1      41.224 -11.827   5.748  1.00  0.00     0.032 A 
HETATM   17  C   UNL     1      41.819 -10.792   6.479  1.00  0.00     0.042 A 
HETATM   18  C   UNL     1      43.157 -10.881   6.845  1.00  0.00     0.102 A 
HETATM   19  C   UNL     1      43.906 -11.993   6.456  1.00  0.00     0.104 A 
HETATM   20  O   UNL     1      43.673  -9.838   7.570  1.00  0.00    -0.346 OA
HETATM   21  C   UNL     1      43.302 -13.032   5.746  1.00  0.00     0.069 A 
HETATM   22  O   UNL     1      45.243 -12.133   6.737  1.00  0.00    -0.346 OA
HETATM   23  C   UNL     1      45.821 -10.881   7.127  1.00  0.00     0.202 C 
HETATM   24  C   UNL     1      44.940 -10.178   8.145  1.00  0.00     0.202 C 
ENDBRANCH  13  15
ENDBRANCH   1  13
TORSDOF 2
ENDMDL
MODEL 9
REMARK VINA RESULT:      -7.3     13.563     15.414
REMARK  2 active torsions:
REMARK  status: ('A' for Active; 'I' for Inactive)
REMARK    1  A    between atoms: C_2  and  N_3 
REMARK    2  A    between atoms: N_3  and  C_4 
ROOT
HETATM    1  C   UNL     1      47.554 -28.477   0.017  1.00  0.00     0.143 A 
HETATM    2  N   UNL     1      46.735 -28.071   1.018  1.00  0.00    -0.223 NA
HETATM    3  C   UNL     1      46.933 -28.525   2.264  1.00  0.00     0.236 A 
HETATM    4  N   UNL     1      47.879 -29.366   2.683  1.00  0.00    -0.234 NA
HETATM    5  C   UNL     1      48.685 -29.758   1.684  1.00  0.00     0.114 A 
HETATM    6  C   UNL     1      48.597 -29.375   0.344  1.00  0.00     0.053 A 
HETATM    7  S   UNL     1      49.984 -30.841   2.000  1.00  0.00    -0.073 SA
HETATM    8  C   UNL     1      50.432 -30.802   0.393  1.00  0.00    -0.008 A 
HETATM    9  C   UNL     1      49.640 -30.010  -0.393  1.00  0.00    -0.028 A 
HETATM   10  C   UNL     1      50.120 -30.025  -1.799  1.00  0.00     0.041 C 
HETATM   11  C   UNL     1      51.127 -31.218  -1.805  1.00  0.00     0.010 C 
HETATM   12  C   UNL     1      51.545 -31.464  -0.325  1.00  0.00     0.047 C 
ENDROOT
BRANCH   1  13
HETATM   13  N   UNL     1      47.343 -28.049  -1.303  1.00  0.00    -0.340 N 
HETATM   14  H   UNL     1      47.903 -27.253  -1.565  1.00  0.00     0.167 HD
BRANCH  13  15
HETATM   15  C   UNL     1      46.505 -28.526  -2.326  1.00  0.00     0.036 A 
HETATM   16  C   UNL     1      45.485 -27.764  -2.908  1.00  0.00     0.032 A 
HETATM   17  C   UNL     1      44.655 -28.297  -3.902  1.00  0.00     0.042 A 
HETATM   18  C   UNL     1      44.827 -29.612  -4.318  1.00  0.00     0.102 A 
HETATM   19  C   UNL     1      45.812 -30.401  -3.723  1.00  0.00     0.104 A 
HETATM   20  O   UNL     1      43.988 -30.067  -5.303  1.00  0.00    -0.346 OA
HETATM   21  C   UNL     1      46.651 -29.858  -2.748  1.00  0.00     0.069 A 
HETATM   22  O   UNL     1      46.014 -31.720  -4.045  1.00  0.00    -0.346 OA
HETATM   23  C   UNL     1      44.892 -32.254  -4.757  1.00  0.00     0.202 C 
HETATM   24  C   UNL     1      44.454 -31.302  -5.858  1.00  0.00     0.202 C 
ENDBRANCH  13  15
ENDBRANCH   1  13
TORSDOF 2
ENDMDL
MODEL 10
REMARK VINA RESULT:      -7.2      4.060      7.641
REMARK  2 active torsions:
REMARK  status: ('A' for Active; 'I' for Inactive)
REMARK    1  A    between atoms: C_2  and  N_3 
REMARK    2  A    between atoms: N_3  and  C_4 
ROOT
HETATM    1  C   UNL     1      40.862 -12.606   0.797  1.00  0.00     0.143 A 
HETATM    2  N   UNL     1      41.090 -11.573   1.646  1.00  0.00    -0.223 NA
HETATM    3  C   UNL     1      40.287 -10.500   1.617  1.00  0.00     0.236 A 
HETATM    4  N   UNL     1      39.232 -10.293   0.829  1.00  0.00    -0.234 NA
HETATM    5  C   UNL     1      39.014 -11.323  -0.004  1.00  0.00     0.114 A 
HETATM    6  C   UNL     1      39.766 -12.496  -0.091  1.00  0.00     0.053 A 
HETATM    7  S   UNL     1      37.696 -11.273  -1.108  1.00  0.00    -0.073 SA
HETATM    8  C   UNL     1      38.103 -12.783  -1.691  1.00  0.00    -0.008 A 
HETATM    9  C   UNL     1      39.205 -13.336  -1.098  1.00  0.00    -0.028 A 
HETATM   10  C   UNL     1      39.484 -14.680  -1.668  1.00  0.00     0.041 C 
HETATM   11  C   UNL     1      38.575 -14.709  -2.936  1.00  0.00     0.010 C 
HETATM   12  C   UNL     1      37.472 -13.630  -2.728  1.00  0.00     0.047 C 
ENDROOT
BRANCH   1  13
HETATM   13  N   UNL     1      41.711 -13.722   0.778  1.00  0.00    -0.340 N 
HETATM   14  H   UNL     1      42.007 -13.991  -0.147  1.00  0.00     0.167 HD
BRANCH  13  15
HETATM   15  C   UNL     1      42.228 -14.531   1.805  1.00  0.00     0.036 A 
HETATM   16  C   UNL     1      42.585 -14.044   3.069  1.00  0.00     0.032 A 
HETATM   17  C   UNL     1      43.128 -14.886   4.047  1.00  0.00     0.042 A 
HETATM   18  C   UNL     1      43.336 -16.230   3.767  1.00  0.00     0.102 A 
HETATM   19  C   UNL     1      43.025 -16.728   2.501  1.00  0.00     0.104 A 
HETATM   20  O   UNL     1      43.860 -17.000   4.773  1.00  0.00    -0.346 OA
HETATM   21  C   UNL     1      42.463 -15.890   1.537  1.00  0.00     0.069 A 
HETATM   22  O   UNL     1      43.244 -18.033   2.132  1.00  0.00    -0.346 OA
HETATM   23  C   UNL     1      44.138 -18.682   3.043  1.00  0.00     0.202 C 
HETATM   24  C   UNL     1      43.738 -18.397   4.481  1.00  0.00     0.202 C 
ENDBRANCH  13  15
ENDBRANCH   1  13
TORSDOF 2
ENDMDL
