MODEL 1
REMARK VINA RESULT:      -8.6      0.000      0.000
REMARK  4 active torsions:
REMARK  status: ('A' for Active; 'I' for Inactive)
REMARK    1  A    between atoms: C_4  and  N_5 
REMARK    2  A    between atoms: N_5  and  C_6 
REMARK    3  A    between atoms: C_6  and  C_7 
REMARK    4  A    between atoms: N_17  and  N_19 
ROOT
HETATM    1  C   UNL     1      41.899 -15.214   3.950  1.00  0.00     0.145 C 
HETATM    2  N   UNL     1      41.432 -14.764   5.123  1.00  0.00    -0.307 N 
HETATM    3  H   UNL     1      41.993 -14.998   5.941  1.00  0.00     0.182 HD
ENDROOT
BRANCH   1   4
HETATM    4  N   UNL     1      43.131 -15.946   4.007  1.00  0.00    -0.339 N 
HETATM    5  H   UNL     1      43.964 -15.369   3.960  1.00  0.00     0.167 HD
BRANCH   4   6
HETATM    6  C   UNL     1      43.394 -17.327   4.077  1.00  0.00     0.040 A 
HETATM    7  C   UNL     1      43.377 -18.117   2.915  1.00  0.00     0.036 A 
HETATM    8  C   UNL     1      43.698 -19.480   2.950  1.00  0.00    -0.060 A 
HETATM    9  C   UNL     1      43.625 -20.315   1.705  1.00  0.00     0.048 C 
HETATM   10  C   UNL     1      44.019 -20.067   4.174  1.00  0.00     0.007 A 
HETATM   11  C   UNL     1      44.043 -19.298   5.338  1.00  0.00     0.009 A 
HETATM   12  C   UNL     1      43.745 -17.926   5.302  1.00  0.00    -0.035 A 
HETATM   13  C   UNL     1      43.799 -17.141   6.585  1.00  0.00     0.050 C 
ENDBRANCH   4   6
ENDBRANCH   1   4
BRANCH   1  14
HETATM   14  C   UNL     1      41.235 -15.056   2.618  1.00  0.00     0.102 A 
HETATM   15  N   UNL     1      41.472 -13.889   1.957  1.00  0.00    -0.245 NA
HETATM   16  C   UNL     1      40.895 -13.683   0.757  1.00  0.00     0.068 A 
HETATM   17  C   UNL     1      40.076 -14.646   0.139  1.00  0.00    -0.007 A 
HETATM   18  C   UNL     1      41.110 -12.482   0.092  1.00  0.00     0.032 A 
HETATM   19  C   UNL     1      39.866 -15.853   0.814  1.00  0.00     0.016 A 
HETATM   20  C   UNL     1      39.499 -14.390  -1.117  1.00  0.00     0.014 A 
HETATM   21  C   UNL     1      40.451 -16.063   2.059  1.00  0.00     0.036 A 
HETATM   22  C   UNL     1      39.731 -13.178  -1.763  1.00  0.00     0.001 A 
HETATM   23  C   UNL     1      40.538 -12.221  -1.157  1.00  0.00     0.002 A 
ENDBRANCH   1  14
BRANCH   2  24
HETATM   24  N   UNL     1      40.199 -14.150   5.222  1.00  0.00    -0.248 NA
HETATM   25  H   UNL     1      39.839 -13.888   4.295  1.00  0.00     0.143 HD
HETATM   26  H   UNL     1      40.242 -13.336   5.835  1.00  0.00     0.143 HD
ENDBRANCH   2  24
TORSDOF 4
ENDMDL
MODEL 2
REMARK VINA RESULT:      -8.2      4.655      7.475
REMARK  4 active torsions:
REMARK  status: ('A' for Active; 'I' for Inactive)
REMARK    1  A    between atoms: C_4  and  N_5 
REMARK    2  A    between atoms: N_5  and  C_6 
REMARK    3  A    between atoms: C_6  and  C_7 
REMARK    4  A    between atoms: N_17  and  N_19 
ROOT
HETATM    1  C   UNL     1      42.103 -12.428   6.164  1.00  0.00     0.145 C 
HETATM    2  N   UNL     1      40.823 -12.164   6.463  1.00  0.00    -0.307 N 
HETATM    3  H   UNL     1      40.614 -11.192   6.684  1.00  0.00     0.182 HD
ENDROOT
BRANCH   1   4
HETATM    4  N   UNL     1      42.994 -11.305   6.180  1.00  0.00    -0.339 N 
HETATM    5  H   UNL     1      43.073 -10.821   5.292  1.00  0.00     0.167 HD
BRANCH   4   6
HETATM    6  C   UNL     1      43.810 -10.775   7.196  1.00  0.00     0.040 A 
HETATM    7  C   UNL     1      43.238 -10.192   8.340  1.00  0.00     0.036 A 
HETATM    8  C   UNL     1      44.028  -9.715   9.394  1.00  0.00    -0.060 A 
HETATM    9  C   UNL     1      43.398  -9.051  10.583  1.00  0.00     0.048 C 
HETATM   10  C   UNL     1      45.416  -9.804   9.291  1.00  0.00     0.007 A 
HETATM   11  C   UNL     1      46.003 -10.382   8.164  1.00  0.00     0.009 A 
HETATM   12  C   UNL     1      45.212 -10.882   7.117  1.00  0.00    -0.035 A 
HETATM   13  C   UNL     1      45.896 -11.508   5.931  1.00  0.00     0.050 C 
ENDBRANCH   4   6
ENDBRANCH   1   4
BRANCH   1  14
HETATM   14  C   UNL     1      42.677 -13.778   5.863  1.00  0.00     0.102 A 
HETATM   15  N   UNL     1      42.318 -14.337   4.674  1.00  0.00    -0.245 NA
HETATM   16  C   UNL     1      42.793 -15.555   4.348  1.00  0.00     0.068 A 
HETATM   17  C   UNL     1      43.679 -16.265   5.181  1.00  0.00    -0.007 A 
HETATM   18  C   UNL     1      42.407 -16.142   3.151  1.00  0.00     0.032 A 
HETATM   19  C   UNL     1      44.065 -15.666   6.384  1.00  0.00     0.016 A 
HETATM   20  C   UNL     1      44.154 -17.532   4.798  1.00  0.00     0.014 A 
HETATM   21  C   UNL     1      43.564 -14.413   6.727  1.00  0.00     0.036 A 
HETATM   22  C   UNL     1      43.752 -18.097   3.591  1.00  0.00     0.001 A 
HETATM   23  C   UNL     1      42.876 -17.402   2.765  1.00  0.00     0.002 A 
ENDBRANCH   1  14
BRANCH   2  24
HETATM   24  N   UNL     1      39.890 -13.172   6.599  1.00  0.00    -0.248 NA
HETATM   25  H   UNL     1      40.085 -13.949   5.954  1.00  0.00     0.143 HD
HETATM   26  H   UNL     1      38.944 -12.818   6.462  1.00  0.00     0.143 HD
ENDBRANCH   2  24
TORSDOF 4
ENDMDL
MODEL 3
REMARK VINA RESULT:      -8.0      2.833      3.814
REMARK  4 active torsions:
REMARK  status: ('A' for Active; 'I' for Inactive)
REMARK    1  A    between atoms: C_4  and  N_5 
REMARK    2  A    between atoms: N_5  and  C_6 
REMARK    3  A    between atoms: C_6  and  C_7 
REMARK    4  A    between atoms: N_17  and  N_19 
ROOT
HETATM    1  C   UNL     1      41.398 -15.197   2.783  1.00  0.00     0.145 C 
HETATM    2  N   UNL     1      40.848 -15.622   1.638  1.00  0.00    -0.307 N 
HETATM    3  H   UNL     1      41.422 -16.251   1.079  1.00  0.00     0.182 HD
ENDROOT
BRANCH   1   4
HETATM    4  N   UNL     1      42.710 -15.699   3.072  1.00  0.00    -0.339 N 
HETATM    5  H   UNL     1      43.449 -15.008   2.994  1.00  0.00     0.167 HD
BRANCH   4   6
HETATM    6  C   UNL     1      43.163 -16.988   3.408  1.00  0.00     0.040 A 
HETATM    7  C   UNL     1      43.114 -18.029   2.466  1.00  0.00     0.036 A 
HETATM    8  C   UNL     1      43.618 -19.304   2.755  1.00  0.00    -0.060 A 
HETATM    9  C   UNL     1      43.510 -20.415   1.752  1.00  0.00     0.048 C 
HETATM   10  C   UNL     1      44.159 -19.546   4.017  1.00  0.00     0.007 A 
HETATM   11  C   UNL     1      44.218 -18.524   4.965  1.00  0.00     0.009 A 
HETATM   12  C   UNL     1      43.736 -17.239   4.669  1.00  0.00    -0.035 A 
HETATM   13  C   UNL     1      43.837 -16.169   5.724  1.00  0.00     0.050 C 
ENDBRANCH   4   6
ENDBRANCH   1   4
BRANCH   1  14
HETATM   14  C   UNL     1      40.787 -14.227   3.748  1.00  0.00     0.102 A 
HETATM   15  N   UNL     1      40.248 -13.098   3.211  1.00  0.00    -0.245 NA
HETATM   16  C   UNL     1      39.691 -12.181   4.027  1.00  0.00     0.068 A 
HETATM   17  C   UNL     1      39.616 -12.362   5.421  1.00  0.00    -0.007 A 
HETATM   18  C   UNL     1      39.166 -11.014   3.487  1.00  0.00     0.032 A 
HETATM   19  C   UNL     1      40.145 -13.540   5.956  1.00  0.00     0.016 A 
HETATM   20  C   UNL     1      39.021 -11.381   6.234  1.00  0.00     0.014 A 
HETATM   21  C   UNL     1      40.731 -14.482   5.115  1.00  0.00     0.036 A 
HETATM   22  C   UNL     1      38.500 -10.220   5.667  1.00  0.00     0.001 A 
HETATM   23  C   UNL     1      38.574 -10.035   4.291  1.00  0.00     0.002 A 
ENDBRANCH   1  14
BRANCH   2  24
HETATM   24  N   UNL     1      39.643 -15.123   1.186  1.00  0.00    -0.248 NA
HETATM   25  H   UNL     1      39.784 -14.433   0.436  1.00  0.00     0.143 HD
HETATM   26  H   UNL     1      39.102 -14.720   1.950  1.00  0.00     0.143 HD
ENDBRANCH   2  24
TORSDOF 4
ENDMDL
MODEL 4
REMARK VINA RESULT:      -8.0      4.164      7.273
REMARK  4 active torsions:
REMARK  status: ('A' for Active; 'I' for Inactive)
REMARK    1  A    between atoms: C_4  and  N_5 
REMARK    2  A    between atoms: N_5  and  C_6 
REMARK    3  A    between atoms: C_6  and  C_7 
REMARK    4  A    between atoms: N_17  and  N_19 
ROOT
HETATM    1  C   UNL     1      43.427 -14.243   6.485  1.00  0.00     0.145 C 
HETATM    2  N   UNL     1      43.205 -14.554   7.769  1.00  0.00    -0.307 N 
HETATM    3  H   UNL     1      43.418 -13.820   8.443  1.00  0.00     0.182 HD
ENDROOT
BRANCH   1   4
HETATM    4  N   UNL     1      43.915 -12.918   6.236  1.00  0.00    -0.339 N 
HETATM    5  H   UNL     1      44.546 -12.846   5.444  1.00  0.00     0.167 HD
BRANCH   4   6
HETATM    6  C   UNL     1      43.707 -11.704   6.915  1.00  0.00     0.040 A 
HETATM    7  C   UNL     1      44.628 -11.258   7.878  1.00  0.00     0.036 A 
HETATM    8  C   UNL     1      44.476 -10.023   8.522  1.00  0.00    -0.060 A 
HETATM    9  C   UNL     1      45.444  -9.589   9.583  1.00  0.00     0.048 C 
HETATM   10  C   UNL     1      43.370  -9.231   8.211  1.00  0.00     0.007 A 
HETATM   11  C   UNL     1      42.446  -9.656   7.256  1.00  0.00     0.009 A 
HETATM   12  C   UNL     1      42.609 -10.883   6.592  1.00  0.00    -0.035 A 
HETATM   13  C   UNL     1      41.590 -11.287   5.561  1.00  0.00     0.050 C 
ENDBRANCH   4   6
ENDBRANCH   1   4
BRANCH   1  14
HETATM   14  C   UNL     1      43.252 -15.161   5.314  1.00  0.00     0.102 A 
HETATM   15  N   UNL     1      43.737 -16.425   5.457  1.00  0.00    -0.245 NA
HETATM   16  C   UNL     1      43.619 -17.296   4.435  1.00  0.00     0.068 A 
HETATM   17  C   UNL     1      42.980 -16.958   3.228  1.00  0.00    -0.007 A 
HETATM   18  C   UNL     1      44.138 -18.578   4.566  1.00  0.00     0.032 A 
HETATM   19  C   UNL     1      42.457 -15.666   3.106  1.00  0.00     0.016 A 
HETATM   20  C   UNL     1      42.874 -17.901   2.191  1.00  0.00     0.014 A 
HETATM   21  C   UNL     1      42.590 -14.762   4.156  1.00  0.00     0.036 A 
HETATM   22  C   UNL     1      43.403 -19.180   2.347  1.00  0.00     0.001 A 
HETATM   23  C   UNL     1      44.037 -19.520   3.537  1.00  0.00     0.002 A 
ENDBRANCH   1  14
BRANCH   2  24
HETATM   24  N   UNL     1      42.849 -15.831   8.153  1.00  0.00    -0.248 NA
HETATM   25  H   UNL     1      41.878 -16.041   7.890  1.00  0.00     0.143 HD
HETATM   26  H   UNL     1      42.989 -15.966   9.154  1.00  0.00     0.143 HD
ENDBRANCH   2  24
TORSDOF 4
ENDMDL
MODEL 5
REMARK VINA RESULT:      -7.9      1.540      2.365
REMARK  4 active torsions:
REMARK  status: ('A' for Active; 'I' for Inactive)
REMARK    1  A    between atoms: C_4  and  N_5 
REMARK    2  A    between atoms: N_5  and  C_6 
REMARK    3  A    between atoms: C_6  and  C_7 
REMARK    4  A    between atoms: N_17  and  N_19 
ROOT
HETATM    1  C   UNL     1      41.063 -14.198   2.133  1.00  0.00     0.145 C 
HETATM    2  N   UNL     1      40.144 -14.272   3.105  1.00  0.00    -0.307 N 
HETATM    3  H   UNL     1      40.460 -14.688   3.980  1.00  0.00     0.182 HD
ENDROOT
BRANCH   1   4
HETATM    4  N   UNL     1      42.366 -14.697   2.463  1.00  0.00    -0.339 N 
HETATM    5  H   UNL     1      43.129 -14.085   2.193  1.00  0.00     0.167 HD
BRANCH   4   6
HETATM    6  C   UNL     1      42.781 -15.901   3.061  1.00  0.00     0.040 A 
HETATM    7  C   UNL     1      42.855 -17.084   2.307  1.00  0.00     0.036 A 
HETATM    8  C   UNL     1      43.326 -18.281   2.863  1.00  0.00    -0.060 A 
HETATM    9  C   UNL     1      43.349 -19.544   2.054  1.00  0.00     0.048 C 
HETATM   10  C   UNL     1      43.707 -18.297   4.205  1.00  0.00     0.007 A 
HETATM   11  C   UNL     1      43.643 -17.132   4.969  1.00  0.00     0.009 A 
HETATM   12  C   UNL     1      43.194 -15.926   4.407  1.00  0.00    -0.035 A 
HETATM   13  C   UNL     1      43.158 -14.695   5.273  1.00  0.00     0.050 C 
ENDBRANCH   4   6
ENDBRANCH   1   4
BRANCH   1  14
HETATM   14  C   UNL     1      40.836 -13.688   0.743  1.00  0.00     0.102 A 
HETATM   15  N   UNL     1      41.184 -12.391   0.510  1.00  0.00    -0.245 NA
HETATM   16  C   UNL     1      40.996 -11.870  -0.718  1.00  0.00     0.068 A 
HETATM   17  C   UNL     1      40.480 -12.627  -1.786  1.00  0.00    -0.007 A 
HETATM   18  C   UNL     1      41.321 -10.540  -0.953  1.00  0.00     0.032 A 
HETATM   19  C   UNL     1      40.157 -13.965  -1.542  1.00  0.00     0.016 A 
HETATM   20  C   UNL     1      40.305 -12.042  -3.053  1.00  0.00     0.014 A 
HETATM   21  C   UNL     1      40.339 -14.502  -0.271  1.00  0.00     0.036 A 
HETATM   22  C   UNL     1      40.640 -10.706  -3.263  1.00  0.00     0.001 A 
HETATM   23  C   UNL     1      41.149  -9.953  -2.211  1.00  0.00     0.002 A 
ENDBRANCH   1  14
BRANCH   2  24
HETATM   24  N   UNL     1      38.824 -13.937   2.879  1.00  0.00    -0.248 NA
HETATM   25  H   UNL     1      38.192 -14.513   3.451  1.00  0.00     0.143 HD
HETATM   26  H   UNL     1      38.589 -14.015   1.891  1.00  0.00     0.143 HD
ENDBRANCH   2  24
TORSDOF 4
ENDMDL
MODEL 6
REMARK VINA RESULT:      -7.8      3.316      5.164
REMARK  4 active torsions:
REMARK  status: ('A' for Active; 'I' for Inactive)
REMARK    1  A    between atoms: C_4  and  N_5 
REMARK    2  A    between atoms: N_5  and  C_6 
REMARK    3  A    between atoms: C_6  and  C_7 
REMARK    4  A    between atoms: N_17  and  N_19 
ROOT
HETATM    1  C   UNL     1      42.526 -15.459   5.528  1.00  0.00     0.145 C 
HETATM    2  N   UNL     1      41.397 -16.167   5.672  1.00  0.00    -0.307 N 
HETATM    3  H   UNL     1      41.412 -17.106   5.279  1.00  0.00     0.182 HD
ENDROOT
BRANCH   1   4
HETATM    4  N   UNL     1      43.603 -16.127   4.857  1.00  0.00    -0.339 N 
HETATM    5  H   UNL     1      44.455 -15.581   4.787  1.00  0.00     0.167 HD
BRANCH   4   6
HETATM    6  C   UNL     1      43.679 -17.391   4.244  1.00  0.00     0.040 A 
HETATM    7  C   UNL     1      43.991 -18.534   5.000  1.00  0.00     0.036 A 
HETATM    8  C   UNL     1      44.011 -19.811   4.425  1.00  0.00    -0.060 A 
HETATM    9  C   UNL     1      44.396 -21.011   5.239  1.00  0.00     0.048 C 
HETATM   10  C   UNL     1      43.734 -19.943   3.064  1.00  0.00     0.007 A 
HETATM   11  C   UNL     1      43.420 -18.821   2.298  1.00  0.00     0.009 A 
HETATM   12  C   UNL     1      43.377 -17.542   2.877  1.00  0.00    -0.035 A 
HETATM   13  C   UNL     1      43.019 -16.367   2.007  1.00  0.00     0.050 C 
ENDBRANCH   4   6
ENDBRANCH   1   4
BRANCH   1  14
HETATM   14  C   UNL     1      42.739 -14.042   5.963  1.00  0.00     0.102 A 
HETATM   15  N   UNL     1      41.741 -13.162   5.670  1.00  0.00    -0.245 NA
HETATM   16  C   UNL     1      41.876 -11.870   6.027  1.00  0.00     0.068 A 
HETATM   17  C   UNL     1      43.003 -11.396   6.725  1.00  0.00    -0.007 A 
HETATM   18  C   UNL     1      40.875 -10.963   5.705  1.00  0.00     0.032 A 
HETATM   19  C   UNL     1      44.005 -12.315   7.047  1.00  0.00     0.016 A 
HETATM   20  C   UNL     1      43.100 -10.039   7.081  1.00  0.00     0.014 A 
HETATM   21  C   UNL     1      43.873 -13.648   6.669  1.00  0.00     0.036 A 
HETATM   22  C   UNL     1      42.081  -9.150   6.747  1.00  0.00     0.001 A 
HETATM   23  C   UNL     1      40.966  -9.612   6.056  1.00  0.00     0.002 A 
ENDBRANCH   1  14
BRANCH   2  24
HETATM   24  N   UNL     1      40.250 -15.601   6.193  1.00  0.00    -0.248 NA
HETATM   25  H   UNL     1      39.759 -15.039   5.485  1.00  0.00     0.143 HD
HETATM   26  H   UNL     1      40.459 -15.039   7.017  1.00  0.00     0.143 HD
ENDBRANCH   2  24
TORSDOF 4
ENDMDL
MODEL 7
REMARK VINA RESULT:      -7.8      4.469      6.521
REMARK  4 active torsions:
REMARK  status: ('A' for Active; 'I' for Inactive)
REMARK    1  A    between atoms: C_4  and  N_5 
REMARK    2  A    between atoms: N_5  and  C_6 
REMARK    3  A    between atoms: C_6  and  C_7 
REMARK    4  A    between atoms: N_17  and  N_19 
ROOT
HETATM    1  C   UNL     1      41.889 -13.237   5.397  1.00  0.00     0.145 C 
HETATM    2  N   UNL     1      40.608 -13.470   5.715  1.00  0.00    -0.307 N 
HETATM    3  H   UNL     1      40.097 -14.073   5.073  1.00  0.00     0.182 HD
ENDROOT
BRANCH   1   4
HETATM    4  N   UNL     1      42.366 -13.881   4.208  1.00  0.00    -0.339 N 
HETATM    5  H   UNL     1      42.383 -13.285   3.387  1.00  0.00     0.167 HD
BRANCH   4   6
HETATM    6  C   UNL     1      42.781 -15.203   3.965  1.00  0.00     0.040 A 
HETATM    7  C   UNL     1      42.982 -16.095   5.032  1.00  0.00     0.036 A 
HETATM    8  C   UNL     1      43.333 -17.434   4.813  1.00  0.00    -0.060 A 
HETATM    9  C   UNL     1      43.592 -18.356   5.968  1.00  0.00     0.048 C 
HETATM   10  C   UNL     1      43.506 -17.881   3.503  1.00  0.00     0.007 A 
HETATM   11  C   UNL     1      43.309 -17.011   2.431  1.00  0.00     0.009 A 
HETATM   12  C   UNL     1      42.934 -15.674   2.647  1.00  0.00    -0.035 A 
HETATM   13  C   UNL     1      42.720 -14.782   1.453  1.00  0.00     0.050 C 
ENDBRANCH   4   6
ENDBRANCH   1   4
BRANCH   1  14
HETATM   14  C   UNL     1      42.833 -12.343   6.140  1.00  0.00     0.102 A 
HETATM   15  N   UNL     1      42.340 -11.136   6.535  1.00  0.00    -0.245 NA
HETATM   16  C   UNL     1      43.143 -10.283   7.201  1.00  0.00     0.068 A 
HETATM   17  C   UNL     1      44.472 -10.605   7.535  1.00  0.00    -0.007 A 
HETATM   18  C   UNL     1      42.655  -9.039   7.579  1.00  0.00     0.032 A 
HETATM   19  C   UNL     1      44.955 -11.859   7.152  1.00  0.00     0.016 A 
HETATM   20  C   UNL     1      45.272  -9.685   8.235  1.00  0.00     0.014 A 
HETATM   21  C   UNL     1      44.131 -12.737   6.454  1.00  0.00     0.036 A 
HETATM   22  C   UNL     1      44.757  -8.444   8.605  1.00  0.00     0.001 A 
HETATM   23  C   UNL     1      43.446  -8.119   8.275  1.00  0.00     0.002 A 
ENDBRANCH   1  14
BRANCH   2  24
HETATM   24  N   UNL     1      39.994 -12.818   6.765  1.00  0.00    -0.248 NA
HETATM   25  H   UNL     1      40.662 -12.620   7.522  1.00  0.00     0.143 HD
HETATM   26  H   UNL     1      39.200 -13.353   7.116  1.00  0.00     0.143 HD
ENDBRANCH   2  24
TORSDOF 4
ENDMDL
MODEL 8
REMARK VINA RESULT:      -7.6      1.649      6.959
REMARK  4 active torsions:
REMARK  status: ('A' for Active; 'I' for Inactive)
REMARK    1  A    between atoms: C_4  and  N_5 
REMARK    2  A    between atoms: N_5  and  C_6 
REMARK    3  A    between atoms: C_6  and  C_7 
REMARK    4  A    between atoms: N_17  and  N_19 
ROOT
HETATM    1  C   UNL     1      41.610 -13.584   2.645  1.00  0.00     0.145 C 
HETATM    2  N   UNL     1      42.201 -12.401   2.864  1.00  0.00    -0.307 N 
HETATM    3  H   UNL     1      41.620 -11.580   2.697  1.00  0.00     0.182 HD
ENDROOT
BRANCH   1   4
HETATM    4  N   UNL     1      40.241 -13.532   2.224  1.00  0.00    -0.339 N 
HETATM    5  H   UNL     1      39.575 -13.845   2.922  1.00  0.00     0.167 HD
BRANCH   4   6
HETATM    6  C   UNL     1      39.654 -13.161   0.999  1.00  0.00     0.040 A 
HETATM    7  C   UNL     1      39.807 -13.970  -0.139  1.00  0.00     0.036 A 
HETATM    8  C   UNL     1      39.181 -13.655  -1.352  1.00  0.00    -0.060 A 
HETATM    9  C   UNL     1      39.398 -14.506  -2.569  1.00  0.00     0.048 C 
HETATM   10  C   UNL     1      38.406 -12.498  -1.432  1.00  0.00     0.007 A 
HETATM   11  C   UNL     1      38.241 -11.683  -0.311  1.00  0.00     0.009 A 
HETATM   12  C   UNL     1      38.849 -12.009   0.912  1.00  0.00    -0.035 A 
HETATM   13  C   UNL     1      38.626 -11.103   2.094  1.00  0.00     0.050 C 
ENDBRANCH   4   6
ENDBRANCH   1   4
BRANCH   1  14
HETATM   14  C   UNL     1      42.260 -14.928   2.761  1.00  0.00     0.102 A 
HETATM   15  N   UNL     1      42.401 -15.426   4.021  1.00  0.00    -0.245 NA
HETATM   16  C   UNL     1      42.987 -16.627   4.192  1.00  0.00     0.068 A 
HETATM   17  C   UNL     1      43.434 -17.408   3.110  1.00  0.00    -0.007 A 
HETATM   18  C   UNL     1      43.160 -17.126   5.477  1.00  0.00     0.032 A 
HETATM   19  C   UNL     1      43.255 -16.900   1.820  1.00  0.00     0.016 A 
HETATM   20  C   UNL     1      44.036 -18.659   3.337  1.00  0.00     0.014 A 
HETATM   21  C   UNL     1      42.661 -15.654   1.642  1.00  0.00     0.036 A 
HETATM   22  C   UNL     1      44.196 -19.137   4.635  1.00  0.00     0.001 A 
HETATM   23  C   UNL     1      43.759 -18.369   5.708  1.00  0.00     0.002 A 
ENDBRANCH   1  14
BRANCH   2  24
HETATM   24  N   UNL     1      43.546 -12.308   3.158  1.00  0.00    -0.248 NA
HETATM   25  H   UNL     1      43.694 -11.995   4.126  1.00  0.00     0.143 HD
HETATM   26  H   UNL     1      44.024 -11.691   2.502  1.00  0.00     0.143 HD
ENDBRANCH   2  24
TORSDOF 4
ENDMDL
MODEL 9
REMARK VINA RESULT:      -7.6      4.606      6.485
REMARK  4 active torsions:
REMARK  status: ('A' for Active; 'I' for Inactive)
REMARK    1  A    between atoms: C_4  and  N_5 
REMARK    2  A    between atoms: N_5  and  C_6 
REMARK    3  A    between atoms: C_6  and  C_7 
REMARK    4  A    between atoms: N_17  and  N_19 
ROOT
HETATM    1  C   UNL     1      41.907 -12.908   5.379  1.00  0.00     0.145 C 
HETATM    2  N   UNL     1      41.162 -12.478   4.352  1.00  0.00    -0.307 N 
HETATM    3  H   UNL     1      40.523 -13.163   3.952  1.00  0.00     0.182 HD
ENDROOT
BRANCH   1   4
HETATM    4  N   UNL     1      41.690 -14.267   5.784  1.00  0.00    -0.339 N 
HETATM    5  H   UNL     1      40.914 -14.393   6.425  1.00  0.00     0.167 HD
BRANCH   4   6
HETATM    6  C   UNL     1      42.384 -15.453   5.482  1.00  0.00     0.040 A 
HETATM    7  C   UNL     1      42.454 -15.922   4.160  1.00  0.00     0.036 A 
HETATM    8  C   UNL     1      43.192 -17.065   3.825  1.00  0.00    -0.060 A 
HETATM    9  C   UNL     1      43.212 -17.576   2.414  1.00  0.00     0.048 C 
HETATM   10  C   UNL     1      43.853 -17.762   4.836  1.00  0.00     0.007 A 
HETATM   11  C   UNL     1      43.796 -17.311   6.155  1.00  0.00     0.009 A 
HETATM   12  C   UNL     1      43.077 -16.152   6.490  1.00  0.00    -0.035 A 
HETATM   13  C   UNL     1      43.060 -15.701   7.926  1.00  0.00     0.050 C 
ENDBRANCH   4   6
ENDBRANCH   1   4
BRANCH   1  14
HETATM   14  C   UNL     1      42.957 -12.119   6.097  1.00  0.00     0.102 A 
HETATM   15  N   UNL     1      42.552 -10.948   6.665  1.00  0.00    -0.245 NA
HETATM   16  C   UNL     1      43.452 -10.187   7.318  1.00  0.00     0.068 A 
HETATM   17  C   UNL     1      44.797 -10.572   7.466  1.00  0.00    -0.007 A 
HETATM   18  C   UNL     1      43.050  -8.978   7.872  1.00  0.00     0.032 A 
HETATM   19  C   UNL     1      45.193 -11.791   6.907  1.00  0.00     0.016 A 
HETATM   20  C   UNL     1      45.700  -9.748   8.161  1.00  0.00     0.014 A 
HETATM   21  C   UNL     1      44.267 -12.572   6.221  1.00  0.00     0.036 A 
HETATM   22  C   UNL     1      45.272  -8.541   8.709  1.00  0.00     0.001 A 
HETATM   23  C   UNL     1      43.944  -8.154   8.564  1.00  0.00     0.002 A 
ENDBRANCH   1  14
BRANCH   2  24
HETATM   24  N   UNL     1      41.357 -11.232   3.789  1.00  0.00    -0.248 NA
HETATM   25  H   UNL     1      41.517 -11.304   2.776  1.00  0.00     0.143 HD
HETATM   26  H   UNL     1      42.126 -10.741   4.243  1.00  0.00     0.143 HD
ENDBRANCH   2  24
TORSDOF 4
ENDMDL
MODEL 10
REMARK VINA RESULT:      -7.5     13.734     15.490
REMARK  4 active torsions:
REMARK  status: ('A' for Active; 'I' for Inactive)
REMARK    1  A    between atoms: C_4  and  N_5 
REMARK    2  A    between atoms: N_5  and  C_6 
REMARK    3  A    between atoms: C_6  and  C_7 
REMARK    4  A    between atoms: N_17  and  N_19 
ROOT
HETATM    1  C   UNL     1      45.525 -28.629  -0.343  1.00  0.00     0.145 C 
HETATM    2  N   UNL     1      44.644 -28.608   0.667  1.00  0.00    -0.307 N 
HETATM    3  H   UNL     1      45.025 -28.358   1.579  1.00  0.00     0.182 HD
ENDROOT
BRANCH   1   4
HETATM    4  N   UNL     1      46.874 -28.280  -0.005  1.00  0.00    -0.339 N 
HETATM    5  H   UNL     1      47.022 -27.290   0.155  1.00  0.00     0.167 HD
BRANCH   4   6
HETATM    6  C   UNL     1      48.040 -29.060   0.107  1.00  0.00     0.040 A 
HETATM    7  C   UNL     1      48.816 -29.350  -1.028  1.00  0.00     0.036 A 
HETATM    8  C   UNL     1      50.014 -30.070  -0.932  1.00  0.00    -0.060 A 
HETATM    9  C   UNL     1      50.802 -30.411  -2.163  1.00  0.00     0.048 C 
HETATM   10  C   UNL     1      50.430 -30.526   0.318  1.00  0.00     0.007 A 
HETATM   11  C   UNL     1      49.674 -30.247   1.457  1.00  0.00     0.009 A 
HETATM   12  C   UNL     1      48.485 -29.504   1.367  1.00  0.00    -0.035 A 
HETATM   13  C   UNL     1      47.714 -29.219   2.628  1.00  0.00     0.050 C 
ENDBRANCH   4   6
ENDBRANCH   1   4
BRANCH   1  14
HETATM   14  C   UNL     1      45.232 -29.021  -1.758  1.00  0.00     0.102 A 
HETATM   15  N   UNL     1      44.918 -30.329  -1.973  1.00  0.00    -0.245 NA
HETATM   16  C   UNL     1      44.653 -30.745  -3.226  1.00  0.00     0.068 A 
HETATM   17  C   UNL     1      44.657 -29.869  -4.328  1.00  0.00    -0.007 A 
HETATM   18  C   UNL     1      44.361 -32.084  -3.454  1.00  0.00     0.032 A 
HETATM   19  C   UNL     1      44.949 -28.523  -4.089  1.00  0.00     0.016 A 
HETATM   20  C   UNL     1      44.369 -30.348  -5.618  1.00  0.00     0.014 A 
HETATM   21  C   UNL     1      45.236 -28.093  -2.797  1.00  0.00     0.036 A 
HETATM   22  C   UNL     1      44.078 -31.695  -5.819  1.00  0.00     0.001 A 
HETATM   23  C   UNL     1      44.075 -32.566  -4.736  1.00  0.00     0.002 A 
ENDBRANCH   1  14
BRANCH   2  24
HETATM   24  N   UNL     1      43.343 -29.037   0.501  1.00  0.00    -0.248 NA
HETATM   25  H   UNL     1      42.950 -28.697  -0.386  1.00  0.00     0.143 HD
HETATM   26  H   UNL     1      42.759 -28.753   1.287  1.00  0.00     0.143 HD
ENDBRANCH   2  24
TORSDOF 4
ENDMDL
