MODEL 1
REMARK VINA RESULT:      -9.6      0.000      0.000
REMARK  7 active torsions:
REMARK  status: ('A' for Active; 'I' for Inactive)
REMARK    1  A    between atoms: C_3  and  C_4 
REMARK    2  A    between atoms: C_4  and  N_5 
REMARK    3  A    between atoms: C_9  and  C_28 
REMARK    4  A    between atoms: C_9  and  C_10 
REMARK    5  A    between atoms: N_13  and  C_15 
REMARK    6  A    between atoms: C_15  and  C_16 
REMARK    7  A    between atoms: C_28  and  C_29 
ROOT
HETATM    1  C   UNL     1      38.967 -10.275   4.548  1.00  0.00     0.112 C 
HETATM    2  C   UNL     1      39.578 -11.280   3.585  1.00  0.00    -0.109 C 
HETATM    3  C   UNL     1      40.103 -12.141   2.758  1.00  0.00    -0.087 C 
ENDROOT
BRANCH   3   4
HETATM    4  C   UNL     1      40.715 -13.145   1.796  1.00  0.00     0.230 C 
BRANCH   4   5
HETATM    5  N   UNL     1      41.212 -14.298   2.501  1.00  0.00    -0.257 N 
HETATM    6  C   UNL     1      40.569 -15.487   2.543  1.00  0.00     0.327 A 
HETATM    7  O   UNL     1      39.500 -15.795   2.048  1.00  0.00    -0.247 OA
HETATM    8  N   UNL     1      41.263 -16.327   3.373  1.00  0.00    -0.324 N 
HETATM    9  C   UNL     1      42.420 -15.702   4.004  1.00  0.00     0.123 A 
HETATM   10  H   UNL     1      41.088 -17.324   3.303  1.00  0.00     0.165 HD
HETATM   11  C   UNL     1      42.288 -14.301   3.343  1.00  0.00     0.257 A 
HETATM   12  O   UNL     1      42.975 -13.329   3.614  1.00  0.00    -0.270 OA
BRANCH   9  13
HETATM   13  C   UNL     1      43.686 -16.440   3.497  1.00  0.00     0.080 C 
BRANCH  13  14
HETATM   14  C   UNL     1      43.669 -17.950   3.497  1.00  0.00    -0.052 A 
HETATM   15  C   UNL     1      44.056 -18.671   4.634  1.00  0.00     0.049 A 
HETATM   16  C   UNL     1      44.066 -20.063   4.612  1.00  0.00     0.116 A 
HETATM   17  F   UNL     1      44.441 -20.735   5.707  1.00  0.00    -0.206 F 
HETATM   18  C   UNL     1      43.701 -20.764   3.470  1.00  0.00     0.042 A 
HETATM   19  C   UNL     1      43.323 -20.061   2.329  1.00  0.00     0.003 A 
HETATM   20  C   UNL     1      43.311 -18.662   2.340  1.00  0.00     0.007 A 
ENDBRANCH  13  14
ENDBRANCH   9  13
BRANCH   9  21
HETATM   21  C   UNL     1      42.247 -15.678   5.573  1.00  0.00     0.027 C 
HETATM   22  C   UNL     1      41.138 -14.726   6.073  1.00  0.00     0.035 C 
HETATM   23  C   UNL     1      41.516 -13.239   6.097  1.00  0.00     0.235 C 
HETATM   24  N   UNL     1      42.845 -12.993   6.768  1.00  0.00    -0.067 N 
HETATM   25  H   UNL     1      42.693 -13.102   7.778  1.00  0.00     0.280 HD
HETATM   26  C   UNL     1      43.951 -13.940   6.372  1.00  0.00     0.235 C 
HETATM   27  C   UNL     1      43.492 -15.381   6.430  1.00  0.00     0.035 C 
BRANCH  24  28
HETATM   28  C   UNL     1      43.349 -11.564   6.556  1.00  0.00     0.273 C 
BRANCH  28  29
HETATM   29  C   UNL     1      43.401 -10.674   7.766  1.00  0.00    -0.030 A 
HETATM   30  C   UNL     1      42.323  -9.857   8.133  1.00  0.00     0.048 A 
HETATM   31  C   UNL     1      42.396  -9.072   9.285  1.00  0.00     0.102 A 
HETATM   32  C   UNL     1      43.541  -9.095  10.084  1.00  0.00     0.102 A 
HETATM   33  O   UNL     1      41.301  -8.297   9.565  1.00  0.00    -0.346 OA
HETATM   34  O   UNL     1      43.684  -8.342  11.218  1.00  0.00    -0.346 OA
HETATM   35  C   UNL     1      44.603  -9.926   9.749  1.00  0.00     0.040 A 
HETATM   36  C   UNL     1      42.706  -7.299  11.288  1.00  0.00     0.202 C 
HETATM   37  C   UNL     1      41.327  -7.825  10.921  1.00  0.00     0.202 C 
HETATM   38  C   UNL     1      44.537 -10.708   8.595  1.00  0.00     0.012 A 
ENDBRANCH  28  29
ENDBRANCH  24  28
ENDBRANCH   9  21
ENDBRANCH   4   5
ENDBRANCH   3   4
TORSDOF 7
ENDMDL
MODEL 2
REMARK VINA RESULT:      -9.5      3.239      6.230
REMARK  7 active torsions:
REMARK  status: ('A' for Active; 'I' for Inactive)
REMARK    1  A    between atoms: C_3  and  C_4 
REMARK    2  A    between atoms: C_4  and  N_5 
REMARK    3  A    between atoms: C_9  and  C_28 
REMARK    4  A    between atoms: C_9  and  C_10 
REMARK    5  A    between atoms: N_13  and  C_15 
REMARK    6  A    between atoms: C_15  and  C_16 
REMARK    7  A    between atoms: C_28  and  C_29 
ROOT
HETATM    1  C   UNL     1      43.557 -20.425   1.617  1.00  0.00     0.112 C 
HETATM    2  C   UNL     1      43.176 -19.104   2.266  1.00  0.00    -0.109 C 
HETATM    3  C   UNL     1      42.850 -17.971   2.823  1.00  0.00    -0.087 C 
ENDROOT
BRANCH   3   4
HETATM    4  C   UNL     1      42.471 -16.651   3.472  1.00  0.00     0.230 C 
BRANCH   4   5
HETATM    5  N   UNL     1      41.968 -15.721   2.494  1.00  0.00    -0.257 N 
HETATM    6  C   UNL     1      42.755 -14.882   1.783  1.00  0.00     0.327 A 
HETATM    7  O   UNL     1      43.962 -14.734   1.840  1.00  0.00    -0.247 OA
HETATM    8  N   UNL     1      41.952 -14.074   1.022  1.00  0.00    -0.324 N 
HETATM    9  C   UNL     1      40.527 -14.297   1.236  1.00  0.00     0.123 A 
HETATM   10  H   UNL     1      42.367 -13.589   0.233  1.00  0.00     0.165 HD
HETATM   11  C   UNL     1      40.648 -15.445   2.277  1.00  0.00     0.257 A 
HETATM   12  O   UNL     1      39.713 -15.948   2.881  1.00  0.00    -0.270 OA
BRANCH   9  13
HETATM   13  C   UNL     1      39.928 -14.816  -0.097  1.00  0.00     0.080 C 
BRANCH  13  14
HETATM   14  C   UNL     1      39.615 -13.802  -1.171  1.00  0.00    -0.052 A 
HETATM   15  C   UNL     1      40.634 -13.270  -1.973  1.00  0.00     0.049 A 
HETATM   16  C   UNL     1      40.339 -12.313  -2.940  1.00  0.00     0.116 A 
HETATM   17  F   UNL     1      41.325 -11.814  -3.695  1.00  0.00    -0.206 F 
HETATM   18  C   UNL     1      39.039 -11.864  -3.129  1.00  0.00     0.042 A 
HETATM   19  C   UNL     1      38.016 -12.376  -2.334  1.00  0.00     0.003 A 
HETATM   20  C   UNL     1      38.303 -13.337  -1.358  1.00  0.00     0.007 A 
ENDBRANCH  13  14
ENDBRANCH   9  13
BRANCH   9  21
HETATM   21  C   UNL     1      39.845 -12.994   1.810  1.00  0.00     0.027 C 
HETATM   22  C   UNL     1      40.485 -11.676   1.321  1.00  0.00     0.035 C 
HETATM   23  C   UNL     1      41.796 -11.290   2.017  1.00  0.00     0.235 C 
HETATM   24  N   UNL     1      41.696 -11.370   3.521  1.00  0.00    -0.067 N 
HETATM   25  H   UNL     1      41.146 -10.557   3.826  1.00  0.00     0.280 HD
HETATM   26  C   UNL     1      41.014 -12.604   4.056  1.00  0.00     0.235 C 
HETATM   27  C   UNL     1      39.707 -12.868   3.339  1.00  0.00     0.035 C 
BRANCH  24  28
HETATM   28  C   UNL     1      43.060 -11.252   4.202  1.00  0.00     0.273 C 
BRANCH  28  29
HETATM   29  C   UNL     1      43.070 -10.770   5.627  1.00  0.00    -0.030 A 
HETATM   30  C   UNL     1      44.062 -11.162   6.535  1.00  0.00     0.048 A 
HETATM   31  C   UNL     1      44.058 -10.663   7.840  1.00  0.00     0.102 A 
HETATM   32  C   UNL     1      43.067  -9.769   8.251  1.00  0.00     0.102 A 
HETATM   33  O   UNL     1      45.059 -11.105   8.665  1.00  0.00    -0.346 OA
HETATM   34  O   UNL     1      42.995  -9.252   9.516  1.00  0.00    -0.346 OA
HETATM   35  C   UNL     1      42.097  -9.347   7.349  1.00  0.00     0.040 A 
HETATM   36  C   UNL     1      43.811  -9.988  10.434  1.00  0.00     0.202 C 
HETATM   37  C   UNL     1      45.177 -10.278   9.832  1.00  0.00     0.202 C 
HETATM   38  C   UNL     1      42.095  -9.848   6.046  1.00  0.00     0.012 A 
ENDBRANCH  28  29
ENDBRANCH  24  28
ENDBRANCH   9  21
ENDBRANCH   4   5
ENDBRANCH   3   4
TORSDOF 7
ENDMDL
MODEL 3
REMARK VINA RESULT:      -9.5      3.264      7.651
REMARK  7 active torsions:
REMARK  status: ('A' for Active; 'I' for Inactive)
REMARK    1  A    between atoms: C_3  and  C_4 
REMARK    2  A    between atoms: C_4  and  N_5 
REMARK    3  A    between atoms: C_9  and  C_28 
REMARK    4  A    between atoms: C_9  and  C_10 
REMARK    5  A    between atoms: N_13  and  C_15 
REMARK    6  A    between atoms: C_15  and  C_16 
REMARK    7  A    between atoms: C_28  and  C_29 
ROOT
HETATM    1  C   UNL     1      46.046 -11.043   7.204  1.00  0.00     0.112 C 
HETATM    2  C   UNL     1      44.818 -11.869   6.855  1.00  0.00    -0.109 C 
HETATM    3  C   UNL     1      43.766 -12.577   6.555  1.00  0.00    -0.087 C 
ENDROOT
BRANCH   3   4
HETATM    4  C   UNL     1      42.539 -13.403   6.205  1.00  0.00     0.230 C 
BRANCH   4   5
HETATM    5  N   UNL     1      42.680 -14.010   4.907  1.00  0.00    -0.257 N 
HETATM    6  C   UNL     1      42.904 -13.311   3.771  1.00  0.00     0.327 A 
HETATM    7  O   UNL     1      43.001 -12.107   3.622  1.00  0.00    -0.247 OA
HETATM    8  N   UNL     1      42.887 -14.183   2.715  1.00  0.00    -0.324 N 
HETATM    9  C   UNL     1      42.578 -15.556   3.093  1.00  0.00     0.123 A 
HETATM   10  H   UNL     1      43.308 -13.886   1.840  1.00  0.00     0.165 HD
HETATM   11  C   UNL     1      42.443 -15.326   4.625  1.00  0.00     0.257 A 
HETATM   12  O   UNL     1      42.079 -16.167   5.433  1.00  0.00    -0.270 OA
BRANCH   9  13
HETATM   13  C   UNL     1      43.822 -16.423   2.769  1.00  0.00     0.080 C 
BRANCH  13  14
HETATM   14  C   UNL     1      43.724 -17.912   3.003  1.00  0.00    -0.052 A 
HETATM   15  C   UNL     1      44.233 -18.489   4.175  1.00  0.00     0.049 A 
HETATM   16  C   UNL     1      44.164 -19.866   4.366  1.00  0.00     0.116 A 
HETATM   17  F   UNL     1      44.657 -20.399   5.490  1.00  0.00    -0.206 F 
HETATM   18  C   UNL     1      43.600 -20.695   3.405  1.00  0.00     0.042 A 
HETATM   19  C   UNL     1      43.099 -20.138   2.231  1.00  0.00     0.003 A 
HETATM   20  C   UNL     1      43.164 -18.755   2.029  1.00  0.00     0.007 A 
ENDBRANCH  13  14
ENDBRANCH   9  13
BRANCH   9  21
HETATM   21  C   UNL     1      41.239 -16.031   2.406  1.00  0.00     0.027 C 
HETATM   22  C   UNL     1      41.124 -15.651   0.913  1.00  0.00     0.035 C 
HETATM   23  C   UNL     1      40.742 -14.191   0.639  1.00  0.00     0.235 C 
HETATM   24  N   UNL     1      39.549 -13.744   1.450  1.00  0.00    -0.067 N 
HETATM   25  H   UNL     1      38.720 -14.175   1.022  1.00  0.00     0.280 HD
HETATM   26  C   UNL     1      39.571 -14.150   2.903  1.00  0.00     0.235 C 
HETATM   27  C   UNL     1      39.907 -15.617   3.062  1.00  0.00     0.035 C 
BRANCH  24  28
HETATM   28  C   UNL     1      39.334 -12.231   1.386  1.00  0.00     0.273 C 
BRANCH  28  29
HETATM   29  C   UNL     1      39.139 -11.628   0.022  1.00  0.00    -0.030 A 
HETATM   30  C   UNL     1      40.168 -10.949  -0.643  1.00  0.00     0.048 A 
HETATM   31  C   UNL     1      39.958 -10.435  -1.925  1.00  0.00     0.102 A 
HETATM   32  C   UNL     1      38.723 -10.596  -2.556  1.00  0.00     0.102 A 
HETATM   33  O   UNL     1      41.014  -9.777  -2.498  1.00  0.00    -0.346 OA
HETATM   34  O   UNL     1      38.446 -10.107  -3.804  1.00  0.00    -0.346 OA
HETATM   35  C   UNL     1      37.706 -11.298  -1.920  1.00  0.00     0.040 A 
HETATM   36  C   UNL     1      39.414  -9.138  -4.220  1.00  0.00     0.202 C 
HETATM   37  C   UNL     1      40.824  -9.616  -3.912  1.00  0.00     0.202 C 
HETATM   38  C   UNL     1      37.909 -11.807  -0.637  1.00  0.00     0.012 A 
ENDBRANCH  28  29
ENDBRANCH  24  28
ENDBRANCH   9  21
ENDBRANCH   4   5
ENDBRANCH   3   4
TORSDOF 7
ENDMDL
MODEL 4
REMARK VINA RESULT:      -9.3      2.491      3.317
REMARK  7 active torsions:
REMARK  status: ('A' for Active; 'I' for Inactive)
REMARK    1  A    between atoms: C_3  and  C_4 
REMARK    2  A    between atoms: C_4  and  N_5 
REMARK    3  A    between atoms: C_9  and  C_28 
REMARK    4  A    between atoms: C_9  and  C_10 
REMARK    5  A    between atoms: N_13  and  C_15 
REMARK    6  A    between atoms: C_15  and  C_16 
REMARK    7  A    between atoms: C_28  and  C_29 
ROOT
HETATM    1  C   UNL     1      38.333 -11.226   2.740  1.00  0.00     0.112 C 
HETATM    2  C   UNL     1      39.466 -12.124   2.272  1.00  0.00    -0.109 C 
HETATM    3  C   UNL     1      40.438 -12.895   1.871  1.00  0.00    -0.087 C 
ENDROOT
BRANCH   3   4
HETATM    4  C   UNL     1      41.571 -13.793   1.403  1.00  0.00     0.230 C 
BRANCH   4   5
HETATM    5  N   UNL     1      41.839 -14.829   2.366  1.00  0.00    -0.257 N 
HETATM    6  C   UNL     1      41.221 -16.032   2.367  1.00  0.00     0.327 A 
HETATM    7  O   UNL     1      40.354 -16.445   1.620  1.00  0.00    -0.247 OA
HETATM    8  N   UNL     1      41.637 -16.733   3.468  1.00  0.00    -0.324 N 
HETATM    9  C   UNL     1      42.545 -15.985   4.330  1.00  0.00     0.123 A 
HETATM   10  H   UNL     1      41.499 -17.739   3.478  1.00  0.00     0.165 HD
HETATM   11  C   UNL     1      42.610 -14.682   3.485  1.00  0.00     0.257 A 
HETATM   12  O   UNL     1      43.177 -13.654   3.821  1.00  0.00    -0.270 OA
BRANCH   9  13
HETATM   13  C   UNL     1      43.910 -16.721   4.324  1.00  0.00     0.080 C 
BRANCH  13  14
HETATM   14  C   UNL     1      43.904 -18.218   4.128  1.00  0.00    -0.052 A 
HETATM   15  C   UNL     1      43.826 -18.773   2.843  1.00  0.00     0.049 A 
HETATM   16  C   UNL     1      43.790 -20.155   2.677  1.00  0.00     0.116 A 
HETATM   17  F   UNL     1      43.714 -20.667   1.443  1.00  0.00    -0.206 F 
HETATM   18  C   UNL     1      43.825 -21.009   3.771  1.00  0.00     0.042 A 
HETATM   19  C   UNL     1      43.892 -20.472   5.055  1.00  0.00     0.003 A 
HETATM   20  C   UNL     1      43.927 -19.085   5.233  1.00  0.00     0.007 A 
ENDBRANCH  13  14
ENDBRANCH   9  13
BRANCH   9  21
HETATM   21  C   UNL     1      41.906 -15.780   5.759  1.00  0.00     0.027 C 
HETATM   22  C   UNL     1      40.695 -14.821   5.778  1.00  0.00     0.035 C 
HETATM   23  C   UNL     1      41.044 -13.328   5.725  1.00  0.00     0.235 C 
HETATM   24  N   UNL     1      42.108 -12.948   6.726  1.00  0.00    -0.067 N 
HETATM   25  H   UNL     1      41.658 -12.941   7.650  1.00  0.00     0.280 HD
HETATM   26  C   UNL     1      43.284 -13.889   6.804  1.00  0.00     0.235 C 
HETATM   27  C   UNL     1      42.833 -15.331   6.904  1.00  0.00     0.035 C 
BRANCH  24  28
HETATM   28  C   UNL     1      42.648 -11.536   6.495  1.00  0.00     0.273 C 
BRANCH  28  29
HETATM   29  C   UNL     1      41.723 -10.554   5.830  1.00  0.00    -0.030 A 
HETATM   30  C   UNL     1      40.609 -10.020   6.490  1.00  0.00     0.048 A 
HETATM   31  C   UNL     1      39.795  -9.082   5.851  1.00  0.00     0.102 A 
HETATM   32  C   UNL     1      40.086  -8.666   4.550  1.00  0.00     0.102 A 
HETATM   33  O   UNL     1      38.722  -8.618   6.565  1.00  0.00    -0.346 OA
HETATM   34  O   UNL     1      39.325  -7.761   3.861  1.00  0.00    -0.346 OA
HETATM   35  C   UNL     1      41.208  -9.163   3.897  1.00  0.00     0.040 A 
HETATM   36  C   UNL     1      38.044  -7.572   4.472  1.00  0.00     0.202 C 
HETATM   37  C   UNL     1      38.181  -7.425   5.979  1.00  0.00     0.202 C 
HETATM   38  C   UNL     1      42.020 -10.105   4.530  1.00  0.00     0.012 A 
ENDBRANCH  28  29
ENDBRANCH  24  28
ENDBRANCH   9  21
ENDBRANCH   4   5
ENDBRANCH   3   4
TORSDOF 7
ENDMDL
MODEL 5
REMARK VINA RESULT:      -9.2      3.384      5.987
REMARK  7 active torsions:
REMARK  status: ('A' for Active; 'I' for Inactive)
REMARK    1  A    between atoms: C_3  and  C_4 
REMARK    2  A    between atoms: C_4  and  N_5 
REMARK    3  A    between atoms: C_9  and  C_28 
REMARK    4  A    between atoms: C_9  and  C_10 
REMARK    5  A    between atoms: N_13  and  C_15 
REMARK    6  A    between atoms: C_15  and  C_16 
REMARK    7  A    between atoms: C_28  and  C_29 
ROOT
HETATM    1  C   UNL     1      42.426 -16.006   6.978  1.00  0.00     0.112 C 
HETATM    2  C   UNL     1      42.266 -16.432   5.528  1.00  0.00    -0.109 C 
HETATM    3  C   UNL     1      42.129 -16.799   4.285  1.00  0.00    -0.087 C 
ENDROOT
BRANCH   3   4
HETATM    4  C   UNL     1      41.969 -17.226   2.835  1.00  0.00     0.230 C 
BRANCH   4   5
HETATM    5  N   UNL     1      41.679 -16.096   1.993  1.00  0.00    -0.257 N 
HETATM    6  C   UNL     1      42.629 -15.351   1.383  1.00  0.00     0.327 A 
HETATM    7  O   UNL     1      43.840 -15.462   1.439  1.00  0.00    -0.247 OA
HETATM    8  N   UNL     1      42.017 -14.305   0.745  1.00  0.00    -0.324 N 
HETATM    9  C   UNL     1      40.574 -14.257   0.950  1.00  0.00     0.123 A 
HETATM   10  H   UNL     1      42.532 -13.817   0.018  1.00  0.00     0.165 HD
HETATM   11  C   UNL     1      40.446 -15.530   1.834  1.00  0.00     0.257 A 
HETATM   12  O   UNL     1      39.421 -15.903   2.383  1.00  0.00    -0.270 OA
BRANCH   9  13
HETATM   13  C   UNL     1      39.896 -14.465  -0.428  1.00  0.00     0.080 C 
BRANCH  13  14
HETATM   14  C   UNL     1      39.612 -13.242  -1.267  1.00  0.00    -0.052 A 
HETATM   15  C   UNL     1      38.319 -12.708  -1.341  1.00  0.00     0.049 A 
HETATM   16  C   UNL     1      38.063 -11.598  -2.141  1.00  0.00     0.116 A 
HETATM   17  F   UNL     1      36.821 -11.103  -2.201  1.00  0.00    -0.206 F 
HETATM   18  C   UNL     1      39.074 -11.002  -2.883  1.00  0.00     0.042 A 
HETATM   19  C   UNL     1      40.363 -11.527  -2.828  1.00  0.00     0.003 A 
HETATM   20  C   UNL     1      40.630 -12.643  -2.027  1.00  0.00     0.007 A 
ENDBRANCH  13  14
ENDBRANCH   9  13
BRANCH   9  21
HETATM   21  C   UNL     1      40.168 -12.927   1.698  1.00  0.00     0.027 C 
HETATM   22  C   UNL     1      41.222 -11.801   1.606  1.00  0.00     0.035 C 
HETATM   23  C   UNL     1      42.425 -11.955   2.545  1.00  0.00     0.235 C 
HETATM   24  N   UNL     1      42.012 -12.256   3.966  1.00  0.00    -0.067 N 
HETATM   25  H   UNL     1      41.652 -11.380   4.363  1.00  0.00     0.280 HD
HETATM   26  C   UNL     1      40.932 -13.299   4.115  1.00  0.00     0.235 C 
HETATM   27  C   UNL     1      39.771 -13.028   3.183  1.00  0.00     0.035 C 
BRANCH  24  28
HETATM   28  C   UNL     1      43.196 -12.676   4.839  1.00  0.00     0.273 C 
BRANCH  28  29
HETATM   29  C   UNL     1      43.573 -11.752   5.964  1.00  0.00    -0.030 A 
HETATM   30  C   UNL     1      42.635 -10.913   6.581  1.00  0.00     0.048 A 
HETATM   31  C   UNL     1      43.017 -10.097   7.648  1.00  0.00     0.102 A 
HETATM   32  C   UNL     1      44.334 -10.109   8.111  1.00  0.00     0.102 A 
HETATM   33  O   UNL     1      42.039  -9.302   8.187  1.00  0.00    -0.346 OA
HETATM   34  O   UNL     1      44.778  -9.327   9.142  1.00  0.00    -0.346 OA
HETATM   35  C   UNL     1      45.264 -10.962   7.530  1.00  0.00     0.040 A 
HETATM   36  C   UNL     1      43.857  -8.271   9.440  1.00  0.00     0.202 C 
HETATM   37  C   UNL     1      42.429  -8.792   9.471  1.00  0.00     0.202 C 
HETATM   38  C   UNL     1      44.889 -11.775   6.459  1.00  0.00     0.012 A 
ENDBRANCH  28  29
ENDBRANCH  24  28
ENDBRANCH   9  21
ENDBRANCH   4   5
ENDBRANCH   3   4
TORSDOF 7
ENDMDL
MODEL 6
REMARK VINA RESULT:      -9.1      2.567      5.374
REMARK  7 active torsions:
REMARK  status: ('A' for Active; 'I' for Inactive)
REMARK    1  A    between atoms: C_3  and  C_4 
REMARK    2  A    between atoms: C_4  and  N_5 
REMARK    3  A    between atoms: C_9  and  C_28 
REMARK    4  A    between atoms: C_9  and  C_10 
REMARK    5  A    between atoms: N_13  and  C_15 
REMARK    6  A    between atoms: C_15  and  C_16 
REMARK    7  A    between atoms: C_28  and  C_29 
ROOT
HETATM    1  C   UNL     1      43.277 -20.004   1.905  1.00  0.00     0.112 C 
HETATM    2  C   UNL     1      43.326 -18.653   2.601  1.00  0.00    -0.109 C 
HETATM    3  C   UNL     1      43.369 -17.495   3.198  1.00  0.00    -0.087 C 
ENDROOT
BRANCH   3   4
HETATM    4  C   UNL     1      43.419 -16.145   3.893  1.00  0.00     0.230 C 
BRANCH   4   5
HETATM    5  N   UNL     1      42.446 -15.242   3.337  1.00  0.00    -0.257 N 
HETATM    6  C   UNL     1      42.766 -14.138   2.624  1.00  0.00     0.327 A 
HETATM    7  O   UNL     1      43.869 -13.700   2.350  1.00  0.00    -0.247 OA
HETATM    8  N   UNL     1      41.613 -13.459   2.333  1.00  0.00    -0.324 N 
HETATM    9  C   UNL     1      40.417 -14.063   2.907  1.00  0.00     0.123 A 
HETATM   10  H   UNL     1      41.634 -12.777   1.582  1.00  0.00     0.165 HD
HETATM   11  C   UNL     1      41.104 -15.280   3.589  1.00  0.00     0.257 A 
HETATM   12  O   UNL     1      40.545 -16.084   4.319  1.00  0.00    -0.270 OA
BRANCH   9  13
HETATM   13  C   UNL     1      39.512 -14.520   1.734  1.00  0.00     0.080 C 
BRANCH  13  14
HETATM   14  C   UNL     1      39.605 -13.758   0.434  1.00  0.00    -0.052 A 
HETATM   15  C   UNL     1      40.166 -14.351  -0.706  1.00  0.00     0.049 A 
HETATM   16  C   UNL     1      40.274 -13.629  -1.891  1.00  0.00     0.116 A 
HETATM   17  F   UNL     1      40.814 -14.211  -2.968  1.00  0.00    -0.206 F 
HETATM   18  C   UNL     1      39.838 -12.313  -1.970  1.00  0.00     0.042 A 
HETATM   19  C   UNL     1      39.288 -11.707  -0.844  1.00  0.00     0.003 A 
HETATM   20  C   UNL     1      39.175 -12.423   0.353  1.00  0.00     0.007 A 
ENDBRANCH  13  14
ENDBRANCH   9  13
BRANCH   9  21
HETATM   21  C   UNL     1      39.734 -13.071   3.928  1.00  0.00     0.027 C 
HETATM   22  C   UNL     1      39.912 -11.578   3.576  1.00  0.00     0.035 C 
HETATM   23  C   UNL     1      41.283 -10.984   3.923  1.00  0.00     0.235 C 
HETATM   24  N   UNL     1      41.710 -11.307   5.335  1.00  0.00    -0.067 N 
HETATM   25  H   UNL     1      41.152 -10.712   5.958  1.00  0.00     0.280 HD
HETATM   26  C   UNL     1      41.493 -12.738   5.761  1.00  0.00     0.235 C 
HETATM   27  C   UNL     1      40.097 -13.211   5.419  1.00  0.00     0.035 C 
BRANCH  24  28
HETATM   28  C   UNL     1      43.176 -10.955   5.594  1.00  0.00     0.273 C 
BRANCH  28  29
HETATM   29  C   UNL     1      43.541 -10.552   6.996  1.00  0.00    -0.030 A 
HETATM   30  C   UNL     1      42.612  -9.964   7.865  1.00  0.00     0.048 A 
HETATM   31  C   UNL     1      42.980  -9.638   9.172  1.00  0.00     0.102 A 
HETATM   32  C   UNL     1      44.275  -9.896   9.626  1.00  0.00     0.102 A 
HETATM   33  O   UNL     1      42.013  -9.059   9.951  1.00  0.00    -0.346 OA
HETATM   34  O   UNL     1      44.705  -9.591  10.889  1.00  0.00    -0.346 OA
HETATM   35  C   UNL     1      45.195 -10.509   8.785  1.00  0.00     0.040 A 
HETATM   36  C   UNL     1      43.816  -8.682  11.546  1.00  0.00     0.202 C 
HETATM   37  C   UNL     1      42.367  -9.100  11.341  1.00  0.00     0.202 C 
HETATM   38  C   UNL     1      44.833 -10.831   7.476  1.00  0.00     0.012 A 
ENDBRANCH  28  29
ENDBRANCH  24  28
ENDBRANCH   9  21
ENDBRANCH   4   5
ENDBRANCH   3   4
TORSDOF 7
ENDMDL
MODEL 7
REMARK VINA RESULT:      -9.0      1.915      2.807
REMARK  7 active torsions:
REMARK  status: ('A' for Active; 'I' for Inactive)
REMARK    1  A    between atoms: C_3  and  C_4 
REMARK    2  A    between atoms: C_4  and  N_5 
REMARK    3  A    between atoms: C_9  and  C_28 
REMARK    4  A    between atoms: C_9  and  C_10 
REMARK    5  A    between atoms: N_13  and  C_15 
REMARK    6  A    between atoms: C_15  and  C_16 
REMARK    7  A    between atoms: C_28  and  C_29 
ROOT
HETATM    1  C   UNL     1      40.751  -7.359   4.244  1.00  0.00     0.112 C 
HETATM    2  C   UNL     1      40.140  -8.748   4.156  1.00  0.00    -0.109 C 
HETATM    3  C   UNL     1      39.616  -9.940   4.080  1.00  0.00    -0.087 C 
ENDROOT
BRANCH   3   4
HETATM    4  C   UNL     1      39.005 -11.328   3.992  1.00  0.00     0.230 C 
BRANCH   4   5
HETATM    5  N   UNL     1      39.811 -12.292   4.693  1.00  0.00    -0.257 N 
HETATM    6  C   UNL     1      39.898 -12.361   6.042  1.00  0.00     0.327 A 
HETATM    7  O   UNL     1      39.367 -11.653   6.878  1.00  0.00    -0.247 OA
HETATM    8  N   UNL     1      40.820 -13.319   6.369  1.00  0.00    -0.324 N 
HETATM    9  C   UNL     1      41.470 -13.926   5.213  1.00  0.00     0.123 A 
HETATM   10  H   UNL     1      40.808 -13.696   7.312  1.00  0.00     0.165 HD
HETATM   11  C   UNL     1      40.710 -13.139   4.109  1.00  0.00     0.257 A 
HETATM   12  O   UNL     1      40.953 -13.195   2.913  1.00  0.00    -0.270 OA
BRANCH   9  13
HETATM   13  C   UNL     1      41.085 -15.427   5.192  1.00  0.00     0.080 C 
BRANCH  13  14
HETATM   14  C   UNL     1      41.965 -16.370   4.408  1.00  0.00    -0.052 A 
HETATM   15  C   UNL     1      42.943 -17.140   5.051  1.00  0.00     0.049 A 
HETATM   16  C   UNL     1      43.769 -17.984   4.314  1.00  0.00     0.116 A 
HETATM   17  F   UNL     1      44.700 -18.710   4.945  1.00  0.00    -0.206 F 
HETATM   18  C   UNL     1      43.648 -18.078   2.934  1.00  0.00     0.042 A 
HETATM   19  C   UNL     1      42.687 -17.312   2.279  1.00  0.00     0.003 A 
HETATM   20  C   UNL     1      41.853 -16.460   3.011  1.00  0.00     0.007 A 
ENDBRANCH  13  14
ENDBRANCH   9  13
BRANCH   9  21
HETATM   21  C   UNL     1      43.022 -13.637   5.239  1.00  0.00     0.027 C 
HETATM   22  C   UNL     1      43.623 -13.533   6.658  1.00  0.00     0.035 C 
HETATM   23  C   UNL     1      43.370 -12.203   7.379  1.00  0.00     0.235 C 
HETATM   24  N   UNL     1      43.695 -11.008   6.515  1.00  0.00    -0.067 N 
HETATM   25  H   UNL     1      44.720 -10.939   6.478  1.00  0.00     0.280 HD
HETATM   26  C   UNL     1      43.195 -11.085   5.094  1.00  0.00     0.235 C 
HETATM   27  C   UNL     1      43.540 -12.414   4.458  1.00  0.00     0.035 C 
BRANCH  24  28
HETATM   28  C   UNL     1      43.193  -9.697   7.122  1.00  0.00     0.273 C 
BRANCH  28  29
HETATM   29  C   UNL     1      43.133  -9.620   8.622  1.00  0.00    -0.030 A 
HETATM   30  C   UNL     1      41.917  -9.635   9.318  1.00  0.00     0.048 A 
HETATM   31  C   UNL     1      41.905  -9.599  10.714  1.00  0.00     0.102 A 
HETATM   32  C   UNL     1      43.103  -9.551  11.430  1.00  0.00     0.102 A 
HETATM   33  O   UNL     1      40.673  -9.608  11.313  1.00  0.00    -0.346 OA
HETATM   34  O   UNL     1      43.163  -9.501  12.796  1.00  0.00    -0.346 OA
HETATM   35  C   UNL     1      44.316  -9.570  10.752  1.00  0.00     0.040 A 
HETATM   36  C   UNL     1      41.899  -9.153  13.369  1.00  0.00     0.202 C 
HETATM   37  C   UNL     1      40.772  -9.932  12.708  1.00  0.00     0.202 C 
HETATM   38  C   UNL     1      44.333  -9.599   9.356  1.00  0.00     0.012 A 
ENDBRANCH  28  29
ENDBRANCH  24  28
ENDBRANCH   9  21
ENDBRANCH   4   5
ENDBRANCH   3   4
TORSDOF 7
ENDMDL
MODEL 8
REMARK VINA RESULT:      -8.9      3.409      8.363
REMARK  7 active torsions:
REMARK  status: ('A' for Active; 'I' for Inactive)
REMARK    1  A    between atoms: C_3  and  C_4 
REMARK    2  A    between atoms: C_4  and  N_5 
REMARK    3  A    between atoms: C_9  and  C_28 
REMARK    4  A    between atoms: C_9  and  C_10 
REMARK    5  A    between atoms: N_13  and  C_15 
REMARK    6  A    between atoms: C_15  and  C_16 
REMARK    7  A    between atoms: C_28  and  C_29 
ROOT
HETATM    1  C   UNL     1      43.470 -18.004   2.539  1.00  0.00     0.112 C 
HETATM    2  C   UNL     1      43.265 -16.498   2.535  1.00  0.00    -0.109 C 
HETATM    3  C   UNL     1      43.089 -15.206   2.533  1.00  0.00    -0.087 C 
ENDROOT
BRANCH   3   4
HETATM    4  C   UNL     1      42.886 -13.700   2.530  1.00  0.00     0.230 C 
BRANCH   4   5
HETATM    5  N   UNL     1      42.734 -13.198   3.870  1.00  0.00    -0.257 N 
HETATM    6  C   UNL     1      41.713 -13.540   4.690  1.00  0.00     0.327 A 
HETATM    7  O   UNL     1      40.767 -14.272   4.466  1.00  0.00    -0.247 OA
HETATM    8  N   UNL     1      41.821 -12.811   5.844  1.00  0.00    -0.324 N 
HETATM    9  C   UNL     1      42.928 -11.861   5.837  1.00  0.00     0.123 A 
HETATM   10  H   UNL     1      41.319 -13.134   6.665  1.00  0.00     0.165 HD
HETATM   11  C   UNL     1      43.486 -12.202   4.426  1.00  0.00     0.257 A 
HETATM   12  O   UNL     1      44.389 -11.601   3.864  1.00  0.00    -0.270 OA
BRANCH   9  13
HETATM   13  C   UNL     1      43.922 -12.290   6.947  1.00  0.00     0.080 C 
BRANCH  13  14
HETATM   14  C   UNL     1      44.613 -11.202   7.733  1.00  0.00    -0.052 A 
HETATM   15  C   UNL     1      44.108 -10.781   8.971  1.00  0.00     0.049 A 
HETATM   16  C   UNL     1      44.737  -9.756   9.673  1.00  0.00     0.116 A 
HETATM   17  F   UNL     1      44.239  -9.365  10.852  1.00  0.00    -0.206 F 
HETATM   18  C   UNL     1      45.866  -9.128   9.165  1.00  0.00     0.042 A 
HETATM   19  C   UNL     1      46.374  -9.528   7.931  1.00  0.00     0.003 A 
HETATM   20  C   UNL     1      45.749 -10.556   7.217  1.00  0.00     0.007 A 
ENDBRANCH  13  14
ENDBRANCH   9  13
BRANCH   9  21
HETATM   21  C   UNL     1      42.387 -10.383   5.961  1.00  0.00     0.027 C 
HETATM   22  C   UNL     1      41.103 -10.248   6.809  1.00  0.00     0.035 C 
HETATM   23  C   UNL     1      39.806 -10.657   6.099  1.00  0.00     0.235 C 
HETATM   24  N   UNL     1      39.675 -10.029   4.732  1.00  0.00    -0.067 N 
HETATM   25  H   UNL     1      39.433  -9.041   4.880  1.00  0.00     0.280 HD
HETATM   26  C   UNL     1      40.921 -10.067   3.883  1.00  0.00     0.235 C 
HETATM   27  C   UNL     1      42.133  -9.598   4.660  1.00  0.00     0.035 C 
BRANCH  24  28
HETATM   28  C   UNL     1      38.532 -10.639   3.918  1.00  0.00     0.273 C 
BRANCH  28  29
HETATM   29  C   UNL     1      38.842 -11.037   2.502  1.00  0.00    -0.030 A 
HETATM   30  C   UNL     1      39.235 -12.340   2.167  1.00  0.00     0.048 A 
HETATM   31  C   UNL     1      39.479 -12.680   0.834  1.00  0.00     0.102 A 
HETATM   32  C   UNL     1      39.330 -11.727  -0.176  1.00  0.00     0.102 A 
HETATM   33  O   UNL     1      39.868 -13.972   0.597  1.00  0.00    -0.346 OA
HETATM   34  O   UNL     1      39.564 -11.989  -1.499  1.00  0.00    -0.346 OA
HETATM   35  C   UNL     1      38.907 -10.442   0.140  1.00  0.00     0.040 A 
HETATM   36  C   UNL     1      40.299 -13.205  -1.675  1.00  0.00     0.202 C 
HETATM   37  C   UNL     1      39.738 -14.309  -0.793  1.00  0.00     0.202 C 
HETATM   38  C   UNL     1      38.669 -10.096   1.472  1.00  0.00     0.012 A 
ENDBRANCH  28  29
ENDBRANCH  24  28
ENDBRANCH   9  21
ENDBRANCH   4   5
ENDBRANCH   3   4
TORSDOF 7
ENDMDL
MODEL 9
REMARK VINA RESULT:      -8.7      2.263      4.425
REMARK  7 active torsions:
REMARK  status: ('A' for Active; 'I' for Inactive)
REMARK    1  A    between atoms: C_3  and  C_4 
REMARK    2  A    between atoms: C_4  and  N_5 
REMARK    3  A    between atoms: C_9  and  C_28 
REMARK    4  A    between atoms: C_9  and  C_10 
REMARK    5  A    between atoms: N_13  and  C_15 
REMARK    6  A    between atoms: C_15  and  C_16 
REMARK    7  A    between atoms: C_28  and  C_29 
ROOT
HETATM    1  C   UNL     1      43.910 -19.243   2.951  1.00  0.00     0.112 C 
HETATM    2  C   UNL     1      43.347 -17.912   2.480  1.00  0.00    -0.109 C 
HETATM    3  C   UNL     1      42.865 -16.771   2.075  1.00  0.00    -0.087 C 
ENDROOT
BRANCH   3   4
HETATM    4  C   UNL     1      42.303 -15.440   1.602  1.00  0.00     0.230 C 
BRANCH   4   5
HETATM    5  N   UNL     1      41.678 -14.730   2.687  1.00  0.00    -0.257 N 
HETATM    6  C   UNL     1      40.360 -14.817   2.981  1.00  0.00     0.327 A 
HETATM    7  O   UNL     1      39.491 -15.450   2.410  1.00  0.00    -0.247 OA
HETATM    8  N   UNL     1      40.084 -13.944   4.000  1.00  0.00    -0.324 N 
HETATM    9  C   UNL     1      41.234 -13.152   4.419  1.00  0.00     0.123 A 
HETATM   10  H   UNL     1      39.227 -14.077   4.527  1.00  0.00     0.165 HD
HETATM   11  C   UNL     1      42.278 -13.764   3.443  1.00  0.00     0.257 A 
HETATM   12  O   UNL     1      43.426 -13.370   3.305  1.00  0.00    -0.270 OA
BRANCH   9  13
HETATM   13  C   UNL     1      41.555 -13.532   5.888  1.00  0.00     0.080 C 
BRANCH  13  14
HETATM   14  C   UNL     1      42.253 -14.847   6.139  1.00  0.00    -0.052 A 
HETATM   15  C   UNL     1      43.650 -14.911   6.233  1.00  0.00     0.049 A 
HETATM   16  C   UNL     1      44.284 -16.133   6.435  1.00  0.00     0.116 A 
HETATM   17  F   UNL     1      45.619 -16.176   6.519  1.00  0.00    -0.206 F 
HETATM   18  C   UNL     1      43.554 -17.310   6.542  1.00  0.00     0.042 A 
HETATM   19  C   UNL     1      42.166 -17.264   6.442  1.00  0.00     0.003 A 
HETATM   20  C   UNL     1      41.519 -16.040   6.237  1.00  0.00     0.007 A 
ENDBRANCH  13  14
ENDBRANCH   9  13
BRANCH   9  21
HETATM   21  C   UNL     1      40.965 -11.616   4.173  1.00  0.00     0.027 C 
HETATM   22  C   UNL     1      41.762 -10.676   5.104  1.00  0.00     0.035 C 
HETATM   23  C   UNL     1      41.205 -10.539   6.526  1.00  0.00     0.235 C 
HETATM   24  N   UNL     1      39.722 -10.257   6.540  1.00  0.00    -0.067 N 
HETATM   25  H   UNL     1      39.603  -9.275   6.262  1.00  0.00     0.280 HD
HETATM   26  C   UNL     1      38.898 -11.097   5.595  1.00  0.00     0.235 C 
HETATM   27  C   UNL     1      39.504 -11.126   4.209  1.00  0.00     0.035 C 
BRANCH  24  28
HETATM   28  C   UNL     1      39.116 -10.389   7.938  1.00  0.00     0.273 C 
BRANCH  28  29
HETATM   29  C   UNL     1      39.452  -9.311   8.930  1.00  0.00    -0.030 A 
HETATM   30  C   UNL     1      39.346  -9.514  10.312  1.00  0.00     0.048 A 
HETATM   31  C   UNL     1      39.703  -8.499  11.203  1.00  0.00     0.102 A 
HETATM   32  C   UNL     1      40.171  -7.273  10.725  1.00  0.00     0.102 A 
HETATM   33  O   UNL     1      39.560  -8.779  12.536  1.00  0.00    -0.346 OA
HETATM   34  O   UNL     1      40.526  -6.233  11.539  1.00  0.00    -0.346 OA
HETATM   35  C   UNL     1      40.314  -7.072   9.357  1.00  0.00     0.040 A 
HETATM   36  C   UNL     1      40.037  -6.414  12.872  1.00  0.00     0.202 C 
HETATM   37  C   UNL     1      40.278  -7.838  13.348  1.00  0.00     0.202 C 
HETATM   38  C   UNL     1      39.952  -8.081   8.463  1.00  0.00     0.012 A 
ENDBRANCH  28  29
ENDBRANCH  24  28
ENDBRANCH   9  21
ENDBRANCH   4   5
ENDBRANCH   3   4
TORSDOF 7
ENDMDL
MODEL 10
REMARK VINA RESULT:      -8.4      3.598      8.902
REMARK  7 active torsions:
REMARK  status: ('A' for Active; 'I' for Inactive)
REMARK    1  A    between atoms: C_3  and  C_4 
REMARK    2  A    between atoms: C_4  and  N_5 
REMARK    3  A    between atoms: C_9  and  C_28 
REMARK    4  A    between atoms: C_9  and  C_10 
REMARK    5  A    between atoms: N_13  and  C_15 
REMARK    6  A    between atoms: C_15  and  C_16 
REMARK    7  A    between atoms: C_28  and  C_29 
ROOT
HETATM    1  C   UNL     1      42.871 -17.288   1.986  1.00  0.00     0.112 C 
HETATM    2  C   UNL     1      42.513 -16.952   3.425  1.00  0.00    -0.109 C 
HETATM    3  C   UNL     1      42.206 -16.663   4.658  1.00  0.00    -0.087 C 
ENDROOT
BRANCH   3   4
HETATM    4  C   UNL     1      41.847 -16.327   6.096  1.00  0.00     0.230 C 
BRANCH   4   5
HETATM    5  N   UNL     1      41.994 -14.917   6.348  1.00  0.00    -0.257 N 
HETATM    6  C   UNL     1      40.952 -14.062   6.463  1.00  0.00     0.327 A 
HETATM    7  O   UNL     1      39.761 -14.292   6.357  1.00  0.00    -0.247 OA
HETATM    8  N   UNL     1      41.446 -12.792   6.602  1.00  0.00    -0.324 N 
HETATM    9  C   UNL     1      42.900 -12.718   6.524  1.00  0.00     0.123 A 
HETATM   10  H   UNL     1      40.831 -12.076   6.975  1.00  0.00     0.165 HD
HETATM   11  C   UNL     1      43.178 -14.236   6.338  1.00  0.00     0.257 A 
HETATM   12  O   UNL     1      44.274 -14.727   6.114  1.00  0.00    -0.270 OA
BRANCH   9  13
HETATM   13  C   UNL     1      43.418 -12.221   7.899  1.00  0.00     0.080 C 
BRANCH  13  14
HETATM   14  C   UNL     1      44.446 -11.115   7.908  1.00  0.00    -0.052 A 
HETATM   15  C   UNL     1      44.123  -9.841   8.394  1.00  0.00     0.049 A 
HETATM   16  C   UNL     1      45.070  -8.821   8.370  1.00  0.00     0.116 A 
HETATM   17  F   UNL     1      44.743  -7.609   8.837  1.00  0.00    -0.206 F 
HETATM   18  C   UNL     1      46.344  -9.037   7.861  1.00  0.00     0.042 A 
HETATM   19  C   UNL     1      46.676 -10.295   7.365  1.00  0.00     0.003 A 
HETATM   20  C   UNL     1      45.732 -11.328   7.384  1.00  0.00     0.007 A 
ENDBRANCH  13  14
ENDBRANCH   9  13
BRANCH   9  21
HETATM   21  C   UNL     1      43.343 -11.839   5.289  1.00  0.00     0.027 C 
HETATM   22  C   UNL     1      42.565 -10.512   5.145  1.00  0.00     0.035 C 
HETATM   23  C   UNL     1      41.160 -10.641   4.543  1.00  0.00     0.235 C 
HETATM   24  N   UNL     1      41.147 -11.467   3.280  1.00  0.00    -0.067 N 
HETATM   25  H   UNL     1      41.550 -10.882   2.538  1.00  0.00     0.280 HD
HETATM   26  C   UNL     1      41.951 -12.743   3.337  1.00  0.00     0.235 C 
HETATM   27  C   UNL     1      43.336 -12.499   3.897  1.00  0.00     0.035 C 
BRANCH  24  28
HETATM   28  C   UNL     1      39.729 -11.823   2.831  1.00  0.00     0.273 C 
BRANCH  28  29
HETATM   29  C   UNL     1      39.511 -12.018   1.356  1.00  0.00    -0.030 A 
HETATM   30  C   UNL     1      39.643 -13.272   0.746  1.00  0.00     0.048 A 
HETATM   31  C   UNL     1      39.396 -13.419  -0.620  1.00  0.00     0.102 A 
HETATM   32  C   UNL     1      39.012 -12.320  -1.391  1.00  0.00     0.102 A 
HETATM   33  O   UNL     1      39.557 -14.678  -1.137  1.00  0.00    -0.346 OA
HETATM   34  O   UNL     1      38.766 -12.391  -2.735  1.00  0.00    -0.346 OA
HETATM   35  C   UNL     1      38.844 -11.078  -0.790  1.00  0.00     0.040 A 
HETATM   36  C   UNL     1      39.281 -13.599  -3.304  1.00  0.00     0.202 C 
HETATM   37  C   UNL     1      38.942 -14.796  -2.428  1.00  0.00     0.202 C 
HETATM   38  C   UNL     1      39.096 -10.925   0.574  1.00  0.00     0.012 A 
ENDBRANCH  28  29
ENDBRANCH  24  28
ENDBRANCH   9  21
ENDBRANCH   4   5
ENDBRANCH   3   4
TORSDOF 7
ENDMDL
