MODEL 1
REMARK VINA RESULT:      -7.6      0.000      0.000
REMARK  8 active torsions:
REMARK  status: ('A' for Active; 'I' for Inactive)
REMARK    1  A    between atoms: C_2  and  C_3 
REMARK    2  A    between atoms: C_3  and  N_4 
REMARK    3  A    between atoms: C_3  and  C_20 
REMARK    4  A    between atoms: N_4  and  C_7 
REMARK    5  A    between atoms: C_7  and  C_8 
REMARK    6  A    between atoms: C_10  and  O_11 
REMARK    7  A    between atoms: C_13  and  O_14 
REMARK    8  A    between atoms: C_16  and  O_17 
ROOT
HETATM    1  N   UNL     1      43.452 -14.289   5.734  1.00  0.00    -0.060 N 
HETATM    2  H   UNL     1      43.555 -14.359   4.718  1.00  0.00     0.278 HD
HETATM    3  H   UNL     1      44.366 -13.970   6.098  1.00  0.00     0.278 HD
ENDROOT
BRANCH   1   4
HETATM    4  C   UNL     1      42.470 -13.237   6.165  1.00  0.00     0.258 C 
BRANCH   4   5
HETATM    5  C   UNL     1      41.590 -12.791   4.971  1.00  0.00     0.016 C 
HETATM    6  C   UNL     1      40.463 -13.795   4.699  1.00  0.00     0.012 C 
HETATM    7  C   UNL     1      42.372 -12.531   3.678  1.00  0.00     0.012 C 
ENDBRANCH   4   5
BRANCH   4   8
HETATM    8  C   UNL     1      43.247 -12.093   6.745  1.00  0.00     0.136 A 
HETATM    9  N   UNL     1      44.563 -12.089   6.867  1.00  0.00    -0.231 NA
HETATM   10  C   UNL     1      44.871 -10.882   7.451  1.00  0.00     0.085 A 
HETATM   11  C   UNL     1      43.716 -10.152   7.708  1.00  0.00     0.062 A 
HETATM   12  C   UNL     1      46.118 -10.345   7.796  1.00  0.00     0.034 A 
HETATM   13  N   UNL     1      42.693 -10.941   7.245  1.00  0.00    -0.341 N 
HETATM   14  C   UNL     1      43.727  -8.892   8.310  1.00  0.00     0.032 A 
HETATM   15  H   UNL     1      41.712 -10.691   7.273  1.00  0.00     0.167 HD
HETATM   16  C   UNL     1      44.981  -8.371   8.652  1.00  0.00     0.002 A 
HETATM   17  C   UNL     1      46.156  -9.082   8.399  1.00  0.00     0.002 A 
ENDBRANCH   4   8
ENDBRANCH   1   4
BRANCH   1  18
HETATM   18  C   UNL     1      43.222 -15.641   6.310  1.00  0.00     0.272 C 
BRANCH  18  19
HETATM   19  C   UNL     1      43.415 -16.701   5.267  1.00  0.00    -0.027 A 
HETATM   20  C   UNL     1      43.904 -17.966   5.614  1.00  0.00     0.048 A 
HETATM   21  C   UNL     1      44.140 -18.932   4.627  1.00  0.00     0.104 A 
HETATM   22  C   UNL     1      43.904 -18.634   3.268  1.00  0.00     0.135 A 
HETATM   23  C   UNL     1      43.436 -17.361   2.911  1.00  0.00     0.104 A 
HETATM   24  C   UNL     1      43.191 -16.413   3.916  1.00  0.00     0.048 A 
BRANCH  21  25
HETATM   25  O   UNL     1      44.701 -20.149   4.928  1.00  0.00    -0.353 OA
HETATM   26  C   UNL     1      43.828 -21.107   5.519  1.00  0.00     0.210 C 
ENDBRANCH  21  25
BRANCH  22  27
HETATM   27  O   UNL     1      44.211 -19.535   2.280  1.00  0.00    -0.351 OA
HETATM   28  C   UNL     1      43.117 -20.368   1.896  1.00  0.00     0.210 C 
ENDBRANCH  22  27
BRANCH  23  29
HETATM   29  O   UNL     1      43.171 -16.854   1.667  1.00  0.00    -0.353 OA
HETATM   30  C   UNL     1      43.018 -15.449   1.513  1.00  0.00     0.210 C 
ENDBRANCH  23  29
ENDBRANCH  18  19
ENDBRANCH   1  18
TORSDOF 8
ENDMDL
MODEL 2
REMARK VINA RESULT:      -7.4      3.611      6.917
REMARK  8 active torsions:
REMARK  status: ('A' for Active; 'I' for Inactive)
REMARK    1  A    between atoms: C_2  and  C_3 
REMARK    2  A    between atoms: C_3  and  N_4 
REMARK    3  A    between atoms: C_3  and  C_20 
REMARK    4  A    between atoms: N_4  and  C_7 
REMARK    5  A    between atoms: C_7  and  C_8 
REMARK    6  A    between atoms: C_10  and  O_11 
REMARK    7  A    between atoms: C_13  and  O_14 
REMARK    8  A    between atoms: C_16  and  O_17 
ROOT
HETATM    1  N   UNL     1      40.627 -14.224   3.256  1.00  0.00    -0.060 N 
HETATM    2  H   UNL     1      40.932 -14.109   4.226  1.00  0.00     0.278 HD
HETATM    3  H   UNL     1      39.697 -13.778   3.187  1.00  0.00     0.278 HD
ENDROOT
BRANCH   1   4
HETATM    4  C   UNL     1      41.487 -13.490   2.267  1.00  0.00     0.258 C 
BRANCH   4   5
HETATM    5  C   UNL     1      41.872 -12.092   2.812  1.00  0.00     0.016 C 
HETATM    6  C   UNL     1      43.361 -12.019   3.170  1.00  0.00     0.012 C 
HETATM    7  C   UNL     1      41.031 -11.633   4.011  1.00  0.00     0.012 C 
ENDBRANCH   4   5
BRANCH   4   8
HETATM    8  C   UNL     1      40.729 -13.398   0.977  1.00  0.00     0.136 A 
HETATM    9  N   UNL     1      39.622 -12.693   0.826  1.00  0.00    -0.231 NA
HETATM   10  C   UNL     1      39.242 -12.886  -0.481  1.00  0.00     0.085 A 
HETATM   11  C   UNL     1      40.125 -13.744  -1.129  1.00  0.00     0.062 A 
HETATM   12  C   UNL     1      38.149 -12.363  -1.185  1.00  0.00     0.034 A 
HETATM   13  N   UNL     1      41.068 -14.054  -0.181  1.00  0.00    -0.341 N 
HETATM   14  C   UNL     1      39.977 -14.129  -2.462  1.00  0.00     0.032 A 
HETATM   15  H   UNL     1      41.866 -14.657  -0.336  1.00  0.00     0.167 HD
HETATM   16  C   UNL     1      38.877 -13.600  -3.149  1.00  0.00     0.002 A 
HETATM   17  C   UNL     1      37.979 -12.732  -2.525  1.00  0.00     0.002 A 
ENDBRANCH   4   8
ENDBRANCH   1   4
BRANCH   1  18
HETATM   18  C   UNL     1      40.418 -15.667   2.961  1.00  0.00     0.272 C 
BRANCH  18  19
HETATM   19  C   UNL     1      41.557 -16.486   3.495  1.00  0.00    -0.027 A 
HETATM   20  C   UNL     1      42.299 -17.317   2.648  1.00  0.00     0.048 A 
HETATM   21  C   UNL     1      43.321 -18.126   3.162  1.00  0.00     0.104 A 
HETATM   22  C   UNL     1      43.603 -18.124   4.546  1.00  0.00     0.135 A 
HETATM   23  C   UNL     1      42.847 -17.310   5.403  1.00  0.00     0.104 A 
HETATM   24  C   UNL     1      41.838 -16.496   4.865  1.00  0.00     0.048 A 
BRANCH  21  25
HETATM   25  O   UNL     1      44.006 -19.013   2.371  1.00  0.00    -0.353 OA
HETATM   26  C   UNL     1      43.283 -20.172   1.966  1.00  0.00     0.210 C 
ENDBRANCH  21  25
BRANCH  22  27
HETATM   27  O   UNL     1      44.538 -18.971   5.081  1.00  0.00    -0.351 OA
HETATM   28  C   UNL     1      43.996 -20.200   5.565  1.00  0.00     0.210 C 
ENDBRANCH  22  27
BRANCH  23  29
HETATM   29  O   UNL     1      42.928 -17.178   6.764  1.00  0.00    -0.353 OA
HETATM   30  C   UNL     1      42.527 -15.952   7.362  1.00  0.00     0.210 C 
ENDBRANCH  23  29
ENDBRANCH  18  19
ENDBRANCH   1  18
TORSDOF 8
ENDMDL
MODEL 3
REMARK VINA RESULT:      -7.3      4.709      8.565
REMARK  8 active torsions:
REMARK  status: ('A' for Active; 'I' for Inactive)
REMARK    1  A    between atoms: C_2  and  C_3 
REMARK    2  A    between atoms: C_3  and  N_4 
REMARK    3  A    between atoms: C_3  and  C_20 
REMARK    4  A    between atoms: N_4  and  C_7 
REMARK    5  A    between atoms: C_7  and  C_8 
REMARK    6  A    between atoms: C_10  and  O_11 
REMARK    7  A    between atoms: C_13  and  O_14 
REMARK    8  A    between atoms: C_16  and  O_17 
ROOT
HETATM    1  N   UNL     1      41.831 -15.060   1.648  1.00  0.00    -0.060 N 
HETATM    2  H   UNL     1      42.361 -14.253   1.305  1.00  0.00     0.278 HD
HETATM    3  H   UNL     1      42.253 -15.894   1.205  1.00  0.00     0.278 HD
ENDROOT
BRANCH   1   4
HETATM    4  C   UNL     1      41.976 -15.286   3.126  1.00  0.00     0.258 C 
BRANCH   4   5
HETATM    5  C   UNL     1      42.891 -14.207   3.756  1.00  0.00     0.016 C 
HETATM    6  C   UNL     1      42.245 -13.578   4.996  1.00  0.00     0.012 C 
HETATM    7  C   UNL     1      43.320 -13.102   2.781  1.00  0.00     0.012 C 
ENDBRANCH   4   5
BRANCH   4   8
HETATM    8  C   UNL     1      42.518 -16.668   3.329  1.00  0.00     0.136 A 
HETATM    9  N   UNL     1      43.051 -17.087   4.463  1.00  0.00    -0.231 NA
HETATM   10  C   UNL     1      43.433 -18.387   4.228  1.00  0.00     0.085 A 
HETATM   11  C   UNL     1      43.148 -18.755   2.917  1.00  0.00     0.062 A 
HETATM   12  C   UNL     1      44.037 -19.314   5.088  1.00  0.00     0.034 A 
HETATM   13  N   UNL     1      42.560 -17.645   2.364  1.00  0.00    -0.341 N 
HETATM   14  C   UNL     1      43.442 -20.016   2.396  1.00  0.00     0.032 A 
HETATM   15  H   UNL     1      42.220 -17.584   1.412  1.00  0.00     0.167 HD
HETATM   16  C   UNL     1      44.048 -20.929   3.268  1.00  0.00     0.002 A 
HETATM   17  C   UNL     1      44.340 -20.588   4.590  1.00  0.00     0.002 A 
ENDBRANCH   4   8
ENDBRANCH   1   4
BRANCH   1  18
HETATM   18  C   UNL     1      40.430 -14.990   1.153  1.00  0.00     0.272 C 
BRANCH  18  19
HETATM   19  C   UNL     1      40.318 -14.016   0.018  1.00  0.00    -0.027 A 
HETATM   20  C   UNL     1      39.801 -14.416  -1.220  1.00  0.00     0.048 A 
HETATM   21  C   UNL     1      39.755 -13.519  -2.295  1.00  0.00     0.104 A 
HETATM   22  C   UNL     1      40.246 -12.204  -2.146  1.00  0.00     0.135 A 
HETATM   23  C   UNL     1      40.786 -11.803  -0.915  1.00  0.00     0.104 A 
HETATM   24  C   UNL     1      40.809 -12.713   0.153  1.00  0.00     0.048 A 
BRANCH  21  25
HETATM   25  O   UNL     1      39.334 -13.909  -3.542  1.00  0.00    -0.353 OA
HETATM   26  C   UNL     1      38.166 -14.724  -3.579  1.00  0.00     0.210 C 
ENDBRANCH  21  25
BRANCH  22  27
HETATM   27  O   UNL     1      40.291 -11.339  -3.210  1.00  0.00    -0.351 OA
HETATM   28  C   UNL     1      39.171 -10.456  -3.284  1.00  0.00     0.210 C 
ENDBRANCH  22  27
BRANCH  23  29
HETATM   29  O   UNL     1      41.340 -10.601  -0.564  1.00  0.00    -0.353 OA
HETATM   30  C   UNL     1      41.549 -10.315   0.812  1.00  0.00     0.210 C 
ENDBRANCH  23  29
ENDBRANCH  18  19
ENDBRANCH   1  18
TORSDOF 8
ENDMDL
MODEL 4
REMARK VINA RESULT:      -7.1      3.961      6.541
REMARK  8 active torsions:
REMARK  status: ('A' for Active; 'I' for Inactive)
REMARK    1  A    between atoms: C_2  and  C_3 
REMARK    2  A    between atoms: C_3  and  N_4 
REMARK    3  A    between atoms: C_3  and  C_20 
REMARK    4  A    between atoms: N_4  and  C_7 
REMARK    5  A    between atoms: C_7  and  C_8 
REMARK    6  A    between atoms: C_10  and  O_11 
REMARK    7  A    between atoms: C_13  and  O_14 
REMARK    8  A    between atoms: C_16  and  O_17 
ROOT
HETATM    1  N   UNL     1      40.072 -14.881   3.091  1.00  0.00    -0.060 N 
HETATM    2  H   UNL     1      40.154 -15.199   4.060  1.00  0.00     0.278 HD
HETATM    3  H   UNL     1      39.078 -14.997   2.829  1.00  0.00     0.278 HD
ENDROOT
BRANCH   1   4
HETATM    4  C   UNL     1      40.354 -13.415   2.917  1.00  0.00     0.258 C 
BRANCH   4   5
HETATM    5  C   UNL     1      39.427 -12.570   3.825  1.00  0.00     0.016 C 
HETATM    6  C   UNL     1      39.586 -11.070   3.548  1.00  0.00     0.012 C 
HETATM    7  C   UNL     1      39.604 -12.839   5.325  1.00  0.00     0.012 C 
ENDBRANCH   4   5
BRANCH   4   8
HETATM    8  C   UNL     1      40.173 -13.081   1.466  1.00  0.00     0.136 A 
HETATM    9  N   UNL     1      41.126 -12.570   0.708  1.00  0.00    -0.231 NA
HETATM   10  C   UNL     1      40.555 -12.401  -0.532  1.00  0.00     0.085 A 
HETATM   11  C   UNL     1      39.222 -12.796  -0.517  1.00  0.00     0.062 A 
HETATM   12  C   UNL     1      41.115 -11.909  -1.718  1.00  0.00     0.034 A 
HETATM   13  N   UNL     1      39.001 -13.232   0.766  1.00  0.00    -0.341 N 
HETATM   14  C   UNL     1      38.390 -12.722  -1.635  1.00  0.00     0.032 A 
HETATM   15  H   UNL     1      38.122 -13.600   1.109  1.00  0.00     0.167 HD
HETATM   16  C   UNL     1      38.964 -12.224  -2.812  1.00  0.00     0.002 A 
HETATM   17  C   UNL     1      40.302 -11.826  -2.855  1.00  0.00     0.002 A 
ENDBRANCH   4   8
ENDBRANCH   1   4
BRANCH   1  18
HETATM   18  C   UNL     1      40.846 -15.783   2.197  1.00  0.00     0.272 C 
BRANCH  18  19
HETATM   19  C   UNL     1      41.838 -16.586   2.986  1.00  0.00    -0.027 A 
HETATM   20  C   UNL     1      42.644 -17.543   2.359  1.00  0.00     0.048 A 
HETATM   21  C   UNL     1      43.525 -18.333   3.109  1.00  0.00     0.104 A 
HETATM   22  C   UNL     1      43.596 -18.184   4.511  1.00  0.00     0.135 A 
HETATM   23  C   UNL     1      42.774 -17.243   5.148  1.00  0.00     0.104 A 
HETATM   24  C   UNL     1      41.910 -16.451   4.376  1.00  0.00     0.048 A 
BRANCH  21  25
HETATM   25  O   UNL     1      44.262 -19.337   2.533  1.00  0.00    -0.353 OA
HETATM   26  C   UNL     1      43.516 -20.374   1.903  1.00  0.00     0.210 C 
ENDBRANCH  21  25
BRANCH  22  27
HETATM   27  O   UNL     1      44.386 -19.007   5.273  1.00  0.00    -0.351 OA
HETATM   28  C   UNL     1      43.724 -20.188   5.725  1.00  0.00     0.210 C 
ENDBRANCH  22  27
BRANCH  23  29
HETATM   29  O   UNL     1      42.660 -16.958   6.483  1.00  0.00    -0.353 OA
HETATM   30  C   UNL     1      43.738 -16.309   7.144  1.00  0.00     0.210 C 
ENDBRANCH  23  29
ENDBRANCH  18  19
ENDBRANCH   1  18
TORSDOF 8
ENDMDL
MODEL 5
REMARK VINA RESULT:      -7.1      4.801      8.669
REMARK  8 active torsions:
REMARK  status: ('A' for Active; 'I' for Inactive)
REMARK    1  A    between atoms: C_2  and  C_3 
REMARK    2  A    between atoms: C_3  and  N_4 
REMARK    3  A    between atoms: C_3  and  C_20 
REMARK    4  A    between atoms: N_4  and  C_7 
REMARK    5  A    between atoms: C_7  and  C_8 
REMARK    6  A    between atoms: C_10  and  O_11 
REMARK    7  A    between atoms: C_13  and  O_14 
REMARK    8  A    between atoms: C_16  and  O_17 
ROOT
HETATM    1  N   UNL     1      41.828 -15.214   1.529  1.00  0.00    -0.060 N 
HETATM    2  H   UNL     1      42.375 -14.431   1.160  1.00  0.00     0.278 HD
HETATM    3  H   UNL     1      42.236 -16.072   1.121  1.00  0.00     0.278 HD
ENDROOT
BRANCH   1   4
HETATM    4  C   UNL     1      41.958 -15.386   3.015  1.00  0.00     0.258 C 
BRANCH   4   5
HETATM    5  C   UNL     1      42.855 -14.277   3.617  1.00  0.00     0.016 C 
HETATM    6  C   UNL     1      42.170 -13.581   4.799  1.00  0.00     0.012 C 
HETATM    7  C   UNL     1      43.320 -13.227   2.600  1.00  0.00     0.012 C 
ENDBRANCH   4   5
BRANCH   4   8
HETATM    8  C   UNL     1      42.512 -16.756   3.272  1.00  0.00     0.136 A 
HETATM    9  N   UNL     1      43.052 -17.123   4.420  1.00  0.00    -0.231 NA
HETATM   10  C   UNL     1      43.444 -18.429   4.238  1.00  0.00     0.085 A 
HETATM   11  C   UNL     1      43.156 -18.852   2.944  1.00  0.00     0.062 A 
HETATM   12  C   UNL     1      44.058 -19.315   5.132  1.00  0.00     0.034 A 
HETATM   13  N   UNL     1      42.557 -17.770   2.348  1.00  0.00    -0.341 N 
HETATM   14  C   UNL     1      43.457 -20.131   2.474  1.00  0.00     0.032 A 
HETATM   15  H   UNL     1      42.213 -17.752   1.396  1.00  0.00     0.167 HD
HETATM   16  C   UNL     1      44.074 -21.003   3.380  1.00  0.00     0.002 A 
HETATM   17  C   UNL     1      44.369 -20.606   4.686  1.00  0.00     0.002 A 
ENDBRANCH   4   8
ENDBRANCH   1   4
BRANCH   1  18
HETATM   18  C   UNL     1      40.432 -15.136   1.021  1.00  0.00     0.272 C 
BRANCH  18  19
HETATM   19  C   UNL     1      40.288 -14.012   0.039  1.00  0.00    -0.027 A 
HETATM   20  C   UNL     1      40.407 -12.680   0.453  1.00  0.00     0.048 A 
HETATM   21  C   UNL     1      40.211 -11.632  -0.456  1.00  0.00     0.104 A 
HETATM   22  C   UNL     1      39.874 -11.908  -1.799  1.00  0.00     0.135 A 
HETATM   23  C   UNL     1      39.730 -13.240  -2.215  1.00  0.00     0.104 A 
HETATM   24  C   UNL     1      39.946 -14.275  -1.292  1.00  0.00     0.048 A 
BRANCH  21  25
HETATM   25  O   UNL     1      40.236 -10.318  -0.059  1.00  0.00    -0.353 OA
HETATM   26  C   UNL     1      41.528  -9.743   0.109  1.00  0.00     0.210 C 
ENDBRANCH  21  25
BRANCH  22  27
HETATM   27  O   UNL     1      39.592 -10.898  -2.682  1.00  0.00    -0.351 OA
HETATM   28  C   UNL     1      40.712 -10.487  -3.467  1.00  0.00     0.210 C 
ENDBRANCH  22  27
BRANCH  23  29
HETATM   29  O   UNL     1      39.382 -13.729  -3.446  1.00  0.00    -0.353 OA
HETATM   30  C   UNL     1      38.265 -14.602  -3.550  1.00  0.00     0.210 C 
ENDBRANCH  23  29
ENDBRANCH  18  19
ENDBRANCH   1  18
TORSDOF 8
ENDMDL
MODEL 6
REMARK VINA RESULT:      -7.0      3.821      7.072
REMARK  8 active torsions:
REMARK  status: ('A' for Active; 'I' for Inactive)
REMARK    1  A    between atoms: C_2  and  C_3 
REMARK    2  A    between atoms: C_3  and  N_4 
REMARK    3  A    between atoms: C_3  and  C_20 
REMARK    4  A    between atoms: N_4  and  C_7 
REMARK    5  A    between atoms: C_7  and  C_8 
REMARK    6  A    between atoms: C_10  and  O_11 
REMARK    7  A    between atoms: C_13  and  O_14 
REMARK    8  A    between atoms: C_16  and  O_17 
ROOT
HETATM    1  N   UNL     1      41.661 -14.899   2.056  1.00  0.00    -0.060 N 
HETATM    2  H   UNL     1      41.363 -15.083   3.018  1.00  0.00     0.278 HD
HETATM    3  H   UNL     1      41.026 -15.441   1.446  1.00  0.00     0.278 HD
ENDROOT
BRANCH   1   4
HETATM    4  C   UNL     1      41.481 -13.468   1.637  1.00  0.00     0.258 C 
BRANCH   4   5
HETATM    5  C   UNL     1      41.033 -12.600   2.839  1.00  0.00     0.016 C 
HETATM    6  C   UNL     1      42.216 -12.244   3.747  1.00  0.00     0.012 C 
HETATM    7  C   UNL     1      39.910 -13.224   3.678  1.00  0.00     0.012 C 
ENDBRANCH   4   5
BRANCH   4   8
HETATM    8  C   UNL     1      40.480 -13.438   0.522  1.00  0.00     0.136 A 
HETATM    9  N   UNL     1      40.358 -14.398  -0.378  1.00  0.00    -0.231 NA
HETATM   10  C   UNL     1      39.353 -13.983  -1.220  1.00  0.00     0.085 A 
HETATM   11  C   UNL     1      38.874 -12.735  -0.836  1.00  0.00     0.062 A 
HETATM   12  C   UNL     1      38.801 -14.618  -2.340  1.00  0.00     0.034 A 
HETATM   13  N   UNL     1      39.603 -12.409   0.281  1.00  0.00    -0.341 N 
HETATM   14  C   UNL     1      37.859 -12.062  -1.519  1.00  0.00     0.032 A 
HETATM   15  H   UNL     1      39.490 -11.558   0.817  1.00  0.00     0.167 HD
HETATM   16  C   UNL     1      37.321 -12.710  -2.638  1.00  0.00     0.002 A 
HETATM   17  C   UNL     1      37.780 -13.965  -3.042  1.00  0.00     0.002 A 
ENDBRANCH   4   8
ENDBRANCH   1   4
BRANCH   1  18
HETATM   18  C   UNL     1      43.024 -15.454   1.836  1.00  0.00     0.272 C 
BRANCH  18  19
HETATM   19  C   UNL     1      43.322 -16.535   2.833  1.00  0.00    -0.027 A 
HETATM   20  C   UNL     1      43.484 -16.232   4.190  1.00  0.00     0.048 A 
HETATM   21  C   UNL     1      43.822 -17.235   5.108  1.00  0.00     0.104 A 
HETATM   22  C   UNL     1      44.021 -18.562   4.670  1.00  0.00     0.135 A 
HETATM   23  C   UNL     1      43.883 -18.868   3.307  1.00  0.00     0.104 A 
HETATM   24  C   UNL     1      43.528 -17.852   2.408  1.00  0.00     0.048 A 
BRANCH  21  25
HETATM   25  O   UNL     1      44.072 -16.951   6.427  1.00  0.00    -0.353 OA
HETATM   26  C   UNL     1      42.960 -16.486   7.185  1.00  0.00     0.210 C 
ENDBRANCH  21  25
BRANCH  22  27
HETATM   27  O   UNL     1      44.439 -19.541   5.536  1.00  0.00    -0.351 OA
HETATM   28  C   UNL     1      43.377 -20.331   6.070  1.00  0.00     0.210 C 
ENDBRANCH  22  27
BRANCH  23  29
HETATM   29  O   UNL     1      44.059 -20.067   2.668  1.00  0.00    -0.353 OA
HETATM   30  C   UNL     1      43.232 -20.382   1.556  1.00  0.00     0.210 C 
ENDBRANCH  23  29
ENDBRANCH  18  19
ENDBRANCH   1  18
TORSDOF 8
ENDMDL
MODEL 7
REMARK VINA RESULT:      -7.0      4.063      6.761
REMARK  8 active torsions:
REMARK  status: ('A' for Active; 'I' for Inactive)
REMARK    1  A    between atoms: C_2  and  C_3 
REMARK    2  A    between atoms: C_3  and  N_4 
REMARK    3  A    between atoms: C_3  and  C_20 
REMARK    4  A    between atoms: N_4  and  C_7 
REMARK    5  A    between atoms: C_7  and  C_8 
REMARK    6  A    between atoms: C_10  and  O_11 
REMARK    7  A    between atoms: C_13  and  O_14 
REMARK    8  A    between atoms: C_16  and  O_17 
ROOT
HETATM    1  N   UNL     1      39.317 -14.577   2.633  1.00  0.00    -0.060 N 
HETATM    2  H   UNL     1      39.015 -14.832   3.577  1.00  0.00     0.278 HD
HETATM    3  H   UNL     1      38.455 -14.465   2.072  1.00  0.00     0.278 HD
ENDROOT
BRANCH   1   4
HETATM    4  C   UNL     1      40.006 -13.244   2.563  1.00  0.00     0.258 C 
BRANCH   4   5
HETATM    5  C   UNL     1      39.344 -12.237   3.535  1.00  0.00     0.016 C 
HETATM    6  C   UNL     1      39.842 -10.808   3.287  1.00  0.00     0.012 C 
HETATM    7  C   UNL     1      39.514 -12.592   5.018  1.00  0.00     0.012 C 
ENDBRANCH   4   5
BRANCH   4   8
HETATM    8  C   UNL     1      39.950 -12.771   1.142  1.00  0.00     0.136 A 
HETATM    9  N   UNL     1      41.019 -12.468   0.428  1.00  0.00    -0.231 NA
HETATM   10  C   UNL     1      40.539 -12.069  -0.797  1.00  0.00     0.085 A 
HETATM   11  C   UNL     1      39.148 -12.110  -0.817  1.00  0.00     0.062 A 
HETATM   12  C   UNL     1      41.232 -11.652  -1.941  1.00  0.00     0.034 A 
HETATM   13  N   UNL     1      38.795 -12.566   0.428  1.00  0.00    -0.341 N 
HETATM   14  C   UNL     1      38.390 -11.744  -1.930  1.00  0.00     0.032 A 
HETATM   15  H   UNL     1      37.844 -12.720   0.738  1.00  0.00     0.167 HD
HETATM   16  C   UNL     1      39.098 -11.326  -3.063  1.00  0.00     0.002 A 
HETATM   17  C   UNL     1      40.494 -11.282  -3.072  1.00  0.00     0.002 A 
ENDBRANCH   4   8
ENDBRANCH   1   4
BRANCH   1  18
HETATM   18  C   UNL     1      40.066 -15.708   2.022  1.00  0.00     0.272 C 
BRANCH  18  19
HETATM   19  C   UNL     1      41.014 -16.312   3.015  1.00  0.00    -0.027 A 
HETATM   20  C   UNL     1      40.902 -16.022   4.379  1.00  0.00     0.048 A 
HETATM   21  C   UNL     1      41.827 -16.541   5.295  1.00  0.00     0.104 A 
HETATM   22  C   UNL     1      42.895 -17.348   4.848  1.00  0.00     0.135 A 
HETATM   23  C   UNL     1      43.027 -17.623   3.479  1.00  0.00     0.104 A 
HETATM   24  C   UNL     1      42.080 -17.107   2.581  1.00  0.00     0.048 A 
BRANCH  21  25
HETATM   25  O   UNL     1      41.792 -16.203   6.625  1.00  0.00    -0.353 OA
HETATM   26  C   UNL     1      42.308 -14.917   6.955  1.00  0.00     0.210 C 
ENDBRANCH  21  25
BRANCH  22  27
HETATM   27  O   UNL     1      43.860 -17.792   5.715  1.00  0.00    -0.351 OA
HETATM   28  C   UNL     1      43.609 -19.095   6.242  1.00  0.00     0.210 C 
ENDBRANCH  22  27
BRANCH  23  29
HETATM   29  O   UNL     1      43.992 -18.348   2.832  1.00  0.00    -0.353 OA
HETATM   30  C   UNL     1      43.638 -19.590   2.237  1.00  0.00     0.210 C 
ENDBRANCH  23  29
ENDBRANCH  18  19
ENDBRANCH   1  18
TORSDOF 8
ENDMDL
MODEL 8
REMARK VINA RESULT:      -6.9      3.595      8.520
REMARK  8 active torsions:
REMARK  status: ('A' for Active; 'I' for Inactive)
REMARK    1  A    between atoms: C_2  and  C_3 
REMARK    2  A    between atoms: C_3  and  N_4 
REMARK    3  A    between atoms: C_3  and  C_20 
REMARK    4  A    between atoms: N_4  and  C_7 
REMARK    5  A    between atoms: C_7  and  C_8 
REMARK    6  A    between atoms: C_10  and  O_11 
REMARK    7  A    between atoms: C_13  and  O_14 
REMARK    8  A    between atoms: C_16  and  O_17 
ROOT
HETATM    1  N   UNL     1      42.393 -14.279   3.468  1.00  0.00    -0.060 N 
HETATM    2  H   UNL     1      41.427 -13.969   3.604  1.00  0.00     0.278 HD
HETATM    3  H   UNL     1      42.622 -14.882   4.277  1.00  0.00     0.278 HD
ENDROOT
BRANCH   1   4
HETATM    4  C   UNL     1      42.576 -15.156   2.262  1.00  0.00     0.258 C 
BRANCH   4   5
HETATM    5  C   UNL     1      41.281 -15.194   1.413  1.00  0.00     0.016 C 
HETATM    6  C   UNL     1      41.057 -13.870   0.673  1.00  0.00     0.012 C 
HETATM    7  C   UNL     1      40.021 -15.559   2.209  1.00  0.00     0.012 C 
ENDBRANCH   4   5
BRANCH   4   8
HETATM    8  C   UNL     1      42.971 -16.520   2.742  1.00  0.00     0.136 A 
HETATM    9  N   UNL     1      42.950 -17.599   1.980  1.00  0.00    -0.231 NA
HETATM   10  C   UNL     1      43.363 -18.629   2.793  1.00  0.00     0.085 A 
HETATM   11  C   UNL     1      43.616 -18.167   4.080  1.00  0.00     0.062 A 
HETATM   12  C   UNL     1      43.539 -19.987   2.501  1.00  0.00     0.034 A 
HETATM   13  N   UNL     1      43.365 -16.818   4.023  1.00  0.00    -0.341 N 
HETATM   14  C   UNL     1      44.037 -18.997   5.120  1.00  0.00     0.032 A 
HETATM   15  H   UNL     1      43.466 -16.178   4.801  1.00  0.00     0.167 HD
HETATM   16  C   UNL     1      44.205 -20.353   4.812  1.00  0.00     0.002 A 
HETATM   17  C   UNL     1      43.963 -20.841   3.527  1.00  0.00     0.002 A 
ENDBRANCH   4   8
ENDBRANCH   1   4
BRANCH   1  18
HETATM   18  C   UNL     1      43.312 -13.112   3.546  1.00  0.00     0.272 C 
BRANCH  18  19
HETATM   19  C   UNL     1      43.024 -12.292   4.768  1.00  0.00    -0.027 A 
HETATM   20  C   UNL     1      41.876 -11.495   4.841  1.00  0.00     0.048 A 
HETATM   21  C   UNL     1      41.642 -10.685   5.960  1.00  0.00     0.104 A 
HETATM   22  C   UNL     1      42.573 -10.650   7.020  1.00  0.00     0.135 A 
HETATM   23  C   UNL     1      43.738 -11.428   6.943  1.00  0.00     0.104 A 
HETATM   24  C   UNL     1      43.944 -12.245   5.821  1.00  0.00     0.048 A 
BRANCH  21  25
HETATM   25  O   UNL     1      40.570  -9.829   6.019  1.00  0.00    -0.353 OA
HETATM   26  C   UNL     1      39.503 -10.104   5.116  1.00  0.00     0.210 C 
ENDBRANCH  21  25
BRANCH  22  27
HETATM   27  O   UNL     1      42.407  -9.798   8.082  1.00  0.00    -0.351 OA
HETATM   28  C   UNL     1      43.042  -8.530   7.912  1.00  0.00     0.210 C 
ENDBRANCH  22  27
BRANCH  23  29
HETATM   29  O   UNL     1      44.776 -11.521   7.831  1.00  0.00    -0.353 OA
HETATM   30  C   UNL     1      45.975 -10.805   7.567  1.00  0.00     0.210 C 
ENDBRANCH  23  29
ENDBRANCH  18  19
ENDBRANCH   1  18
TORSDOF 8
ENDMDL
MODEL 9
REMARK VINA RESULT:      -6.9      3.634      8.331
REMARK  8 active torsions:
REMARK  status: ('A' for Active; 'I' for Inactive)
REMARK    1  A    between atoms: C_2  and  C_3 
REMARK    2  A    between atoms: C_3  and  N_4 
REMARK    3  A    between atoms: C_3  and  C_20 
REMARK    4  A    between atoms: N_4  and  C_7 
REMARK    5  A    between atoms: C_7  and  C_8 
REMARK    6  A    between atoms: C_10  and  O_11 
REMARK    7  A    between atoms: C_13  and  O_14 
REMARK    8  A    between atoms: C_16  and  O_17 
ROOT
HETATM    1  N   UNL     1      42.525 -14.334   3.399  1.00  0.00    -0.060 N 
HETATM    2  H   UNL     1      41.576 -14.144   3.730  1.00  0.00     0.278 HD
HETATM    3  H   UNL     1      43.003 -14.844   4.162  1.00  0.00     0.278 HD
ENDROOT
BRANCH   1   4
HETATM    4  C   UNL     1      42.573 -15.262   2.219  1.00  0.00     0.258 C 
BRANCH   4   5
HETATM    5  C   UNL     1      41.205 -15.294   1.494  1.00  0.00     0.016 C 
HETATM    6  C   UNL     1      40.958 -14.003   0.704  1.00  0.00     0.012 C 
HETATM    7  C   UNL     1      40.012 -15.568   2.420  1.00  0.00     0.012 C 
ENDBRANCH   4   5
BRANCH   4   8
HETATM    8  C   UNL     1      42.975 -16.618   2.716  1.00  0.00     0.136 A 
HETATM    9  N   UNL     1      42.948 -17.709   1.971  1.00  0.00    -0.231 NA
HETATM   10  C   UNL     1      43.371 -18.724   2.797  1.00  0.00     0.085 A 
HETATM   11  C   UNL     1      43.636 -18.242   4.074  1.00  0.00     0.062 A 
HETATM   12  C   UNL     1      43.547 -20.087   2.524  1.00  0.00     0.034 A 
HETATM   13  N   UNL     1      43.382 -16.895   3.998  1.00  0.00    -0.341 N 
HETATM   14  C   UNL     1      44.068 -19.055   5.123  1.00  0.00     0.032 A 
HETATM   15  H   UNL     1      43.490 -16.242   4.764  1.00  0.00     0.167 HD
HETATM   16  C   UNL     1      44.235 -20.415   4.835  1.00  0.00     0.002 A 
HETATM   17  C   UNL     1      43.982 -20.924   3.560  1.00  0.00     0.002 A 
ENDBRANCH   4   8
ENDBRANCH   1   4
BRANCH   1  18
HETATM   18  C   UNL     1      43.264 -13.055   3.227  1.00  0.00     0.272 C 
BRANCH  18  19
HETATM   19  C   UNL     1      43.060 -12.162   4.415  1.00  0.00    -0.027 A 
HETATM   20  C   UNL     1      43.990 -12.140   5.461  1.00  0.00     0.048 A 
HETATM   21  C   UNL     1      43.765 -11.350   6.597  1.00  0.00     0.104 A 
HETATM   22  C   UNL     1      42.587 -10.580   6.706  1.00  0.00     0.135 A 
HETATM   23  C   UNL     1      41.640 -10.616   5.671  1.00  0.00     0.104 A 
HETATM   24  C   UNL     1      41.892 -11.401   4.536  1.00  0.00     0.048 A 
BRANCH  21  25
HETATM   25  O   UNL     1      44.616 -11.376   7.673  1.00  0.00    -0.353 OA
HETATM   26  C   UNL     1      45.899 -10.793   7.467  1.00  0.00     0.210 C 
ENDBRANCH  21  25
BRANCH  22  27
HETATM   27  O   UNL     1      42.306  -9.871   7.845  1.00  0.00    -0.351 OA
HETATM   28  C   UNL     1      42.692  -8.498   7.781  1.00  0.00     0.210 C 
ENDBRANCH  22  27
BRANCH  23  29
HETATM   29  O   UNL     1      40.430  -9.981   5.585  1.00  0.00    -0.353 OA
HETATM   30  C   UNL     1      39.245 -10.763   5.511  1.00  0.00     0.210 C 
ENDBRANCH  23  29
ENDBRANCH  18  19
ENDBRANCH   1  18
TORSDOF 8
ENDMDL
MODEL 10
REMARK VINA RESULT:      -6.7      4.633      8.621
REMARK  8 active torsions:
REMARK  status: ('A' for Active; 'I' for Inactive)
REMARK    1  A    between atoms: C_2  and  C_3 
REMARK    2  A    between atoms: C_3  and  N_4 
REMARK    3  A    between atoms: C_3  and  C_20 
REMARK    4  A    between atoms: N_4  and  C_7 
REMARK    5  A    between atoms: C_7  and  C_8 
REMARK    6  A    between atoms: C_10  and  O_11 
REMARK    7  A    between atoms: C_13  and  O_14 
REMARK    8  A    between atoms: C_16  and  O_17 
ROOT
HETATM    1  N   UNL     1      41.210 -14.642   4.113  1.00  0.00    -0.060 N 
HETATM    2  H   UNL     1      40.242 -14.444   3.844  1.00  0.00     0.278 HD
HETATM    3  H   UNL     1      41.181 -15.494   4.699  1.00  0.00     0.278 HD
ENDROOT
BRANCH   1   4
HETATM    4  C   UNL     1      42.093 -14.996   2.951  1.00  0.00     0.258 C 
BRANCH   4   5
HETATM    5  C   UNL     1      41.312 -14.886   1.618  1.00  0.00     0.016 C 
HETATM    6  C   UNL     1      41.427 -13.481   1.014  1.00  0.00     0.012 C 
HETATM    7  C   UNL     1      39.833 -15.282   1.724  1.00  0.00     0.012 C 
ENDBRANCH   4   5
BRANCH   4   8
HETATM    8  C   UNL     1      42.619 -16.381   3.178  1.00  0.00     0.136 A 
HETATM    9  N   UNL     1      42.643 -17.318   2.247  1.00  0.00    -0.231 NA
HETATM   10  C   UNL     1      43.177 -18.427   2.859  1.00  0.00     0.085 A 
HETATM   11  C   UNL     1      43.461 -18.163   4.195  1.00  0.00     0.062 A 
HETATM   12  C   UNL     1      43.445 -19.699   2.336  1.00  0.00     0.034 A 
HETATM   13  N   UNL     1      43.102 -16.851   4.375  1.00  0.00    -0.341 N 
HETATM   14  C   UNL     1      44.000 -19.114   5.064  1.00  0.00     0.032 A 
HETATM   15  H   UNL     1      43.193 -16.341   5.245  1.00  0.00     0.167 HD
HETATM   16  C   UNL     1      44.258 -20.381   4.526  1.00  0.00     0.002 A 
HETATM   17  C   UNL     1      43.988 -20.670   3.187  1.00  0.00     0.002 A 
ENDBRANCH   4   8
ENDBRANCH   1   4
BRANCH   1  18
HETATM   18  C   UNL     1      41.722 -13.553   4.987  1.00  0.00     0.272 C 
BRANCH  18  19
HETATM   19  C   UNL     1      40.698 -12.467   5.134  1.00  0.00    -0.027 A 
HETATM   20  C   UNL     1      40.231 -12.091   6.399  1.00  0.00     0.048 A 
HETATM   21  C   UNL     1      39.230 -11.119   6.528  1.00  0.00     0.104 A 
HETATM   22  C   UNL     1      38.669 -10.519   5.380  1.00  0.00     0.135 A 
HETATM   23  C   UNL     1      39.116 -10.908   4.109  1.00  0.00     0.104 A 
HETATM   24  C   UNL     1      40.130 -11.872   4.003  1.00  0.00     0.048 A 
BRANCH  21  25
HETATM   25  O   UNL     1      38.692 -10.794   7.749  1.00  0.00    -0.353 OA
HETATM   26  C   UNL     1      39.399  -9.810   8.498  1.00  0.00     0.210 C 
ENDBRANCH  21  25
BRANCH  22  27
HETATM   27  O   UNL     1      37.628  -9.631   5.480  1.00  0.00    -0.351 OA
HETATM   28  C   UNL     1      38.014  -8.267   5.315  1.00  0.00     0.210 C 
ENDBRANCH  22  27
BRANCH  23  29
HETATM   29  O   UNL     1      38.694 -10.485   2.877  1.00  0.00    -0.353 OA
HETATM   30  C   UNL     1      38.245 -11.449   1.933  1.00  0.00     0.210 C 
ENDBRANCH  23  29
ENDBRANCH  18  19
ENDBRANCH   1  18
TORSDOF 8
ENDMDL
