MODEL 1
REMARK VINA RESULT:      -8.7      0.000      0.000
REMARK  6 active torsions:
REMARK  status: ('A' for Active; 'I' for Inactive)
REMARK    1  A    between atoms: C_2  and  N_3 
REMARK    2  A    between atoms: C_2  and  C_25 
REMARK       I    between atoms: N_3  and  C_4 
REMARK    3  A    between atoms: C_4  and  C_5 
REMARK    4  A    between atoms: C_5  and  N_6 
REMARK    5  A    between atoms: C_10  and  N_11 
REMARK       I    between atoms: N_11  and  C_12 
REMARK       I    between atoms: C_12  and  N_13 
REMARK    6  A    between atoms: N_13  and  C_14 
ROOT
HETATM    1  N   UNL     1      43.199 -12.610   4.738  1.00  0.00    -0.063 N 
HETATM    2  H   UNL     1      43.850 -13.203   4.204  1.00  0.00     0.280 HD
HETATM    3  C   UNL     1      43.917 -11.301   4.975  1.00  0.00     0.237 C 
HETATM    4  C   UNL     1      44.917 -11.395   6.108  1.00  0.00     0.053 C 
HETATM    5  C   UNL     1      44.330 -11.958   7.397  1.00  0.00     0.089 C 
HETATM    6  C   UNL     1      43.677 -13.311   7.134  1.00  0.00     0.053 C 
HETATM    7  C   UNL     1      42.723 -13.364   5.953  1.00  0.00     0.237 C 
ENDROOT
BRANCH   1   8
HETATM    8  C   UNL     1      41.992 -12.387   3.801  1.00  0.00     0.337 C 
BRANCH   8   9
HETATM    9  C   UNL     1      41.929 -13.401   2.660  1.00  0.00     0.244 C 
HETATM   10  N   UNL     1      42.015 -14.714   3.048  1.00  0.00    -0.351 N 
HETATM   11  H   UNL     1      42.099 -14.966   4.027  1.00  0.00     0.163 HD
HETATM   12  O   UNL     1      41.736 -13.029   1.506  1.00  0.00    -0.272 OA
BRANCH  10  13
HETATM   13  C   UNL     1      41.901 -15.828   2.117  1.00  0.00     0.120 C 
HETATM   14  C   UNL     1      40.443 -16.201   1.848  1.00  0.00     0.038 C 
BRANCH  13  15
HETATM   15  C   UNL     1      42.681 -16.988   2.686  1.00  0.00     0.005 A 
HETATM   16  S   UNL     1      43.455 -16.879   4.221  1.00  0.00    -0.104 SA
HETATM   17  C   UNL     1      44.056 -18.473   4.109  1.00  0.00     0.050 A 
HETATM   18  C   UNL     1      43.684 -19.083   2.932  1.00  0.00     0.008 A 
HETATM   19  C   UNL     1      42.893 -18.228   2.112  1.00  0.00     0.017 A 
ENDBRANCH  13  15
ENDBRANCH  10  13
ENDBRANCH   8   9
ENDBRANCH   1   8
BRANCH   5  20
HETATM   20  N   UNL     1      43.537 -10.983   8.150  1.00  0.00    -0.338 N 
HETATM   21  C   UNL     1      43.761 -10.550   9.434  1.00  0.00     0.321 C 
HETATM   22  N   UNL     1      42.672  -9.891   9.952  1.00  0.00    -0.309 N 
HETATM   23  O   UNL     1      44.785 -10.823  10.043  1.00  0.00    -0.247 OA
HETATM   24  H   UNL     1      41.804  -9.994   9.445  1.00  0.00     0.170 HD
HETATM   25  H   UNL     1      42.836 -10.468   7.628  1.00  0.00     0.164 HD
BRANCH  22  26
HETATM   26  C   UNL     1      42.564  -9.387  11.267  1.00  0.00     0.036 A 
HETATM   27  C   UNL     1      43.395  -8.383  11.779  1.00  0.00     0.032 A 
HETATM   28  C   UNL     1      43.261  -7.959  13.104  1.00  0.00     0.044 A 
HETATM   29  C   UNL     1      42.293  -8.537  13.915  1.00  0.00     0.116 A 
HETATM   30  F   UNL     1      42.177  -8.141  15.188  1.00  0.00    -0.206 F 
HETATM   31  C   UNL     1      41.444  -9.517  13.420  1.00  0.00     0.044 A 
HETATM   32  C   UNL     1      41.571  -9.935  12.092  1.00  0.00     0.032 A 
ENDBRANCH  22  26
ENDBRANCH   5  20
TORSDOF 6
ENDMDL
MODEL 2
REMARK VINA RESULT:      -8.6      5.629      8.730
REMARK  6 active torsions:
REMARK  status: ('A' for Active; 'I' for Inactive)
REMARK    1  A    between atoms: C_2  and  N_3 
REMARK    2  A    between atoms: C_2  and  C_25 
REMARK       I    between atoms: N_3  and  C_4 
REMARK    3  A    between atoms: C_4  and  C_5 
REMARK    4  A    between atoms: C_5  and  N_6 
REMARK    5  A    between atoms: C_10  and  N_11 
REMARK       I    between atoms: N_11  and  C_12 
REMARK       I    between atoms: C_12  and  N_13 
REMARK    6  A    between atoms: N_13  and  C_14 
ROOT
HETATM    1  N   UNL     1      41.917 -14.582   7.032  1.00  0.00    -0.063 N 
HETATM    2  H   UNL     1      41.744 -14.293   8.006  1.00  0.00     0.280 HD
HETATM    3  C   UNL     1      42.977 -13.646   6.497  1.00  0.00     0.237 C 
HETATM    4  C   UNL     1      42.405 -12.302   6.099  1.00  0.00     0.053 C 
HETATM    5  C   UNL     1      41.210 -12.401   5.158  1.00  0.00     0.089 C 
HETATM    6  C   UNL     1      40.133 -13.294   5.762  1.00  0.00     0.053 C 
HETATM    7  C   UNL     1      40.607 -14.637   6.289  1.00  0.00     0.237 C 
ENDROOT
BRANCH   1   8
HETATM    8  C   UNL     1      42.481 -16.016   7.131  1.00  0.00     0.337 C 
BRANCH   8   9
HETATM    9  C   UNL     1      43.482 -16.340   6.023  1.00  0.00     0.244 C 
HETATM   10  N   UNL     1      42.924 -16.605   4.799  1.00  0.00    -0.351 N 
HETATM   11  H   UNL     1      41.919 -16.568   4.662  1.00  0.00     0.163 HD
HETATM   12  O   UNL     1      44.690 -16.280   6.237  1.00  0.00    -0.272 OA
BRANCH  10  13
HETATM   13  C   UNL     1      43.714 -16.864   3.603  1.00  0.00     0.120 C 
HETATM   14  C   UNL     1      43.229 -16.041   2.409  1.00  0.00     0.038 C 
BRANCH  13  15
HETATM   15  C   UNL     1      43.657 -18.346   3.323  1.00  0.00     0.005 A 
HETATM   16  S   UNL     1      44.228 -19.496   4.471  1.00  0.00    -0.104 SA
HETATM   17  C   UNL     1      43.836 -20.810   3.453  1.00  0.00     0.050 A 
HETATM   18  C   UNL     1      43.286 -20.394   2.262  1.00  0.00     0.008 A 
HETATM   19  C   UNL     1      43.183 -18.975   2.187  1.00  0.00     0.017 A 
ENDBRANCH  13  15
ENDBRANCH  10  13
ENDBRANCH   8   9
ENDBRANCH   1   8
BRANCH   5  20
HETATM   20  N   UNL     1      41.586 -12.676   3.768  1.00  0.00    -0.338 N 
HETATM   21  C   UNL     1      40.775 -12.597   2.661  1.00  0.00     0.321 C 
HETATM   22  N   UNL     1      41.333 -13.219   1.571  1.00  0.00    -0.309 N 
HETATM   23  O   UNL     1      39.657 -12.106   2.709  1.00  0.00    -0.247 OA
HETATM   24  H   UNL     1      42.120 -13.825   1.755  1.00  0.00     0.170 HD
HETATM   25  H   UNL     1      42.575 -12.800   3.581  1.00  0.00     0.164 HD
BRANCH  22  26
HETATM   26  C   UNL     1      40.720 -13.369   0.306  1.00  0.00     0.036 A 
HETATM   27  C   UNL     1      39.940 -14.476  -0.047  1.00  0.00     0.032 A 
HETATM   28  C   UNL     1      39.398 -14.581  -1.330  1.00  0.00     0.044 A 
HETATM   29  C   UNL     1      39.633 -13.577  -2.259  1.00  0.00     0.116 A 
HETATM   30  F   UNL     1      39.127 -13.687  -3.492  1.00  0.00    -0.206 F 
HETATM   31  C   UNL     1      40.385 -12.459  -1.922  1.00  0.00     0.044 A 
HETATM   32  C   UNL     1      40.920 -12.349  -0.636  1.00  0.00     0.032 A 
ENDBRANCH  22  26
ENDBRANCH   5  20
TORSDOF 6
ENDMDL
MODEL 3
REMARK VINA RESULT:      -8.6      1.475      1.759
REMARK  6 active torsions:
REMARK  status: ('A' for Active; 'I' for Inactive)
REMARK    1  A    between atoms: C_2  and  N_3 
REMARK    2  A    between atoms: C_2  and  C_25 
REMARK       I    between atoms: N_3  and  C_4 
REMARK    3  A    between atoms: C_4  and  C_5 
REMARK    4  A    between atoms: C_5  and  N_6 
REMARK    5  A    between atoms: C_10  and  N_11 
REMARK       I    between atoms: N_11  and  C_12 
REMARK       I    between atoms: C_12  and  N_13 
REMARK    6  A    between atoms: N_13  and  C_14 
ROOT
HETATM    1  N   UNL     1      43.281 -12.763   5.650  1.00  0.00    -0.063 N 
HETATM    2  H   UNL     1      43.544 -12.497   4.690  1.00  0.00     0.280 HD
HETATM    3  C   UNL     1      42.173 -11.819   6.060  1.00  0.00     0.237 C 
HETATM    4  C   UNL     1      42.702 -10.463   6.475  1.00  0.00     0.053 C 
HETATM    5  C   UNL     1      43.804 -10.532   7.526  1.00  0.00     0.089 C 
HETATM    6  C   UNL     1      44.936 -11.434   7.047  1.00  0.00     0.053 C 
HETATM    7  C   UNL     1      44.516 -12.792   6.514  1.00  0.00     0.237 C 
ENDROOT
BRANCH   1   8
HETATM    8  C   UNL     1      42.733 -14.201   5.536  1.00  0.00     0.337 C 
BRANCH   8   9
HETATM    9  C   UNL     1      42.972 -14.823   4.160  1.00  0.00     0.244 C 
HETATM   10  N   UNL     1      42.964 -16.194   4.137  1.00  0.00    -0.351 N 
HETATM   11  H   UNL     1      42.795 -16.732   4.981  1.00  0.00     0.163 HD
HETATM   12  O   UNL     1      43.080 -14.112   3.165  1.00  0.00    -0.272 OA
BRANCH  10  13
HETATM   13  C   UNL     1      43.101 -16.970   2.912  1.00  0.00     0.120 C 
HETATM   14  C   UNL     1      41.830 -16.927   2.063  1.00  0.00     0.038 C 
BRANCH  13  15
HETATM   15  C   UNL     1      43.471 -18.382   3.298  1.00  0.00     0.005 A 
HETATM   16  S   UNL     1      44.033 -18.759   4.882  1.00  0.00    -0.104 SA
HETATM   17  C   UNL     1      44.210 -20.414   4.500  1.00  0.00     0.050 A 
HETATM   18  C   UNL     1      43.856 -20.684   3.198  1.00  0.00     0.008 A 
HETATM   19  C   UNL     1      43.431 -19.514   2.505  1.00  0.00     0.017 A 
ENDBRANCH  13  15
ENDBRANCH  10  13
ENDBRANCH   8   9
ENDBRANCH   1   8
BRANCH   5  20
HETATM   20  N   UNL     1      43.300 -10.773   8.881  1.00  0.00    -0.338 N 
HETATM   21  C   UNL     1      42.840  -9.834   9.772  1.00  0.00     0.321 C 
HETATM   22  N   UNL     1      42.747 -10.337  11.047  1.00  0.00    -0.309 N 
HETATM   23  O   UNL     1      42.640  -8.673   9.446  1.00  0.00    -0.247 OA
HETATM   24  H   UNL     1      43.217 -11.215  11.217  1.00  0.00     0.170 HD
HETATM   25  H   UNL     1      43.142 -11.741   9.140  1.00  0.00     0.164 HD
BRANCH  22  26
HETATM   26  C   UNL     1      42.372  -9.605  12.195  1.00  0.00     0.036 A 
HETATM   27  C   UNL     1      43.157  -8.589  12.754  1.00  0.00     0.032 A 
HETATM   28  C   UNL     1      42.745  -7.932  13.916  1.00  0.00     0.044 A 
HETATM   29  C   UNL     1      41.547  -8.290  14.518  1.00  0.00     0.116 A 
HETATM   30  F   UNL     1      41.162  -7.671  15.641  1.00  0.00    -0.206 F 
HETATM   31  C   UNL     1      40.742  -9.279  13.968  1.00  0.00     0.044 A 
HETATM   32  C   UNL     1      41.149  -9.930  12.800  1.00  0.00     0.032 A 
ENDBRANCH  22  26
ENDBRANCH   5  20
TORSDOF 6
ENDMDL
MODEL 4
REMARK VINA RESULT:      -8.2      4.168     10.275
REMARK  6 active torsions:
REMARK  status: ('A' for Active; 'I' for Inactive)
REMARK    1  A    between atoms: C_2  and  N_3 
REMARK    2  A    between atoms: C_2  and  C_25 
REMARK       I    between atoms: N_3  and  C_4 
REMARK    3  A    between atoms: C_4  and  C_5 
REMARK    4  A    between atoms: C_5  and  N_6 
REMARK    5  A    between atoms: C_10  and  N_11 
REMARK       I    between atoms: N_11  and  C_12 
REMARK       I    between atoms: C_12  and  N_13 
REMARK    6  A    between atoms: N_13  and  C_14 
ROOT
HETATM    1  N   UNL     1      42.943 -11.862   5.941  1.00  0.00    -0.063 N 
HETATM    2  H   UNL     1      42.449 -10.982   6.148  1.00  0.00     0.280 HD
HETATM    3  C   UNL     1      43.683 -11.635   4.642  1.00  0.00     0.237 C 
HETATM    4  C   UNL     1      42.772 -11.747   3.438  1.00  0.00     0.053 C 
HETATM    5  C   UNL     1      41.957 -13.035   3.406  1.00  0.00     0.089 C 
HETATM    6  C   UNL     1      41.168 -13.194   4.701  1.00  0.00     0.053 C 
HETATM    7  C   UNL     1      41.961 -13.005   5.983  1.00  0.00     0.237 C 
ENDROOT
BRANCH   1   8
HETATM    8  C   UNL     1      43.950 -12.044   7.097  1.00  0.00     0.337 C 
BRANCH   8   9
HETATM    9  C   UNL     1      44.139 -10.775   7.927  1.00  0.00     0.244 C 
HETATM   10  N   UNL     1      43.494 -10.775   9.137  1.00  0.00    -0.351 N 
HETATM   11  H   UNL     1      42.950 -11.576   9.441  1.00  0.00     0.163 HD
HETATM   12  O   UNL     1      44.884  -9.881   7.537  1.00  0.00    -0.272 OA
BRANCH  10  13
HETATM   13  C   UNL     1      43.612  -9.690  10.101  1.00  0.00     0.120 C 
HETATM   14  C   UNL     1      44.898  -9.791  10.922  1.00  0.00     0.038 C 
BRANCH  13  15
HETATM   15  C   UNL     1      42.383  -9.715  10.978  1.00  0.00     0.005 A 
HETATM   16  S   UNL     1      40.835  -9.276  10.363  1.00  0.00    -0.104 SA
HETATM   17  C   UNL     1      40.081  -9.553  11.869  1.00  0.00     0.050 A 
HETATM   18  C   UNL     1      40.978  -9.968  12.827  1.00  0.00     0.008 A 
HETATM   19  C   UNL     1      42.304 -10.061  12.314  1.00  0.00     0.017 A 
ENDBRANCH  13  15
ENDBRANCH  10  13
ENDBRANCH   8   9
ENDBRANCH   1   8
BRANCH   5  20
HETATM   20  N   UNL     1      42.726 -14.199   2.959  1.00  0.00    -0.338 N 
HETATM   21  C   UNL     1      42.473 -15.518   3.250  1.00  0.00     0.321 C 
HETATM   22  N   UNL     1      43.545 -16.324   2.953  1.00  0.00    -0.309 N 
HETATM   23  O   UNL     1      41.440 -15.877   3.797  1.00  0.00    -0.247 OA
HETATM   24  H   UNL     1      44.424 -15.856   2.782  1.00  0.00     0.170 HD
HETATM   25  H   UNL     1      43.431 -14.032   2.250  1.00  0.00     0.164 HD
BRANCH  22  26
HETATM   26  C   UNL     1      43.623 -17.714   3.199  1.00  0.00     0.036 A 
HETATM   27  C   UNL     1      44.124 -18.260   4.387  1.00  0.00     0.032 A 
HETATM   28  C   UNL     1      44.213 -19.645   4.548  1.00  0.00     0.044 A 
HETATM   29  C   UNL     1      43.797 -20.483   3.522  1.00  0.00     0.116 A 
HETATM   30  F   UNL     1      43.898 -21.809   3.672  1.00  0.00    -0.206 F 
HETATM   31  C   UNL     1      43.276 -19.962   2.346  1.00  0.00     0.044 A 
HETATM   32  C   UNL     1      43.178 -18.577   2.187  1.00  0.00     0.032 A 
ENDBRANCH  22  26
ENDBRANCH   5  20
TORSDOF 6
ENDMDL
MODEL 5
REMARK VINA RESULT:      -8.0      5.792      8.779
REMARK  6 active torsions:
REMARK  status: ('A' for Active; 'I' for Inactive)
REMARK    1  A    between atoms: C_2  and  N_3 
REMARK    2  A    between atoms: C_2  and  C_25 
REMARK       I    between atoms: N_3  and  C_4 
REMARK    3  A    between atoms: C_4  and  C_5 
REMARK    4  A    between atoms: C_5  and  N_6 
REMARK    5  A    between atoms: C_10  and  N_11 
REMARK       I    between atoms: N_11  and  C_12 
REMARK       I    between atoms: C_12  and  N_13 
REMARK    6  A    between atoms: N_13  and  C_14 
ROOT
HETATM    1  N   UNL     1      40.283 -10.723   4.032  1.00  0.00    -0.063 N 
HETATM    2  H   UNL     1      39.596 -10.228   4.618  1.00  0.00     0.280 HD
HETATM    3  C   UNL     1      39.648 -12.044   3.661  1.00  0.00     0.237 C 
HETATM    4  C   UNL     1      39.732 -13.054   4.786  1.00  0.00     0.053 C 
HETATM    5  C   UNL     1      41.141 -13.240   5.337  1.00  0.00     0.089 C 
HETATM    6  C   UNL     1      41.722 -11.897   5.767  1.00  0.00     0.053 C 
HETATM    7  C   UNL     1      41.606 -10.773   4.752  1.00  0.00     0.237 C 
ENDROOT
BRANCH   1   8
HETATM    8  C   UNL     1      40.448  -9.846   2.773  1.00  0.00     0.337 C 
BRANCH   8   9
HETATM    9  C   UNL     1      41.298 -10.510   1.690  1.00  0.00     0.244 C 
HETATM   10  N   UNL     1      40.679 -10.649   0.474  1.00  0.00    -0.351 N 
HETATM   11  H   UNL     1      39.733 -10.314   0.327  1.00  0.00     0.163 HD
HETATM   12  O   UNL     1      42.468 -10.810   1.913  1.00  0.00    -0.272 OA
BRANCH  10  13
HETATM   13  C   UNL     1      41.347 -11.191  -0.701  1.00  0.00     0.120 C 
HETATM   14  C   UNL     1      41.423 -10.170  -1.837  1.00  0.00     0.038 C 
BRANCH  13  15
HETATM   15  C   UNL     1      40.609 -12.440  -1.118  1.00  0.00     0.005 A 
HETATM   16  S   UNL     1      40.125 -13.622   0.038  1.00  0.00    -0.104 SA
HETATM   17  C   UNL     1      39.424 -14.611  -1.164  1.00  0.00     0.050 A 
HETATM   18  C   UNL     1      39.553 -14.066  -2.421  1.00  0.00     0.008 A 
HETATM   19  C   UNL     1      40.236 -12.815  -2.395  1.00  0.00     0.017 A 
ENDBRANCH  13  15
ENDBRANCH  10  13
ENDBRANCH   8   9
ENDBRANCH   1   8
BRANCH   5  20
HETATM   20  N   UNL     1      41.991 -14.081   4.489  1.00  0.00    -0.338 N 
HETATM   21  C   UNL     1      41.943 -15.449   4.370  1.00  0.00     0.321 C 
HETATM   22  N   UNL     1      43.064 -15.950   3.755  1.00  0.00    -0.309 N 
HETATM   23  O   UNL     1      41.037 -16.113   4.853  1.00  0.00    -0.247 OA
HETATM   24  H   UNL     1      43.850 -15.320   3.673  1.00  0.00     0.170 HD
HETATM   25  H   UNL     1      42.578 -13.601   3.817  1.00  0.00     0.164 HD
BRANCH  22  26
HETATM   26  C   UNL     1      43.346 -17.319   3.545  1.00  0.00     0.036 A 
HETATM   27  C   UNL     1      42.997 -18.008   2.378  1.00  0.00     0.032 A 
HETATM   28  C   UNL     1      43.268 -19.373   2.252  1.00  0.00     0.044 A 
HETATM   29  C   UNL     1      43.892 -20.047   3.293  1.00  0.00     0.116 A 
HETATM   30  F   UNL     1      44.137 -21.357   3.178  1.00  0.00    -0.206 F 
HETATM   31  C   UNL     1      44.268 -19.377   4.450  1.00  0.00     0.044 A 
HETATM   32  C   UNL     1      44.005 -18.010   4.572  1.00  0.00     0.032 A 
ENDBRANCH  22  26
ENDBRANCH   5  20
TORSDOF 6
ENDMDL
MODEL 6
REMARK VINA RESULT:      -7.9      4.412      9.272
REMARK  6 active torsions:
REMARK  status: ('A' for Active; 'I' for Inactive)
REMARK    1  A    between atoms: C_2  and  N_3 
REMARK    2  A    between atoms: C_2  and  C_25 
REMARK       I    between atoms: N_3  and  C_4 
REMARK    3  A    between atoms: C_4  and  C_5 
REMARK    4  A    between atoms: C_5  and  N_6 
REMARK    5  A    between atoms: C_10  and  N_11 
REMARK       I    between atoms: N_11  and  C_12 
REMARK       I    between atoms: C_12  and  N_13 
REMARK    6  A    between atoms: N_13  and  C_14 
ROOT
HETATM    1  N   UNL     1      40.431 -10.851   2.731  1.00  0.00    -0.063 N 
HETATM    2  H   UNL     1      39.592 -10.261   2.639  1.00  0.00     0.280 HD
HETATM    3  C   UNL     1      40.844 -11.221   1.325  1.00  0.00     0.237 C 
HETATM    4  C   UNL     1      39.998 -12.341   0.757  1.00  0.00     0.053 C 
HETATM    5  C   UNL     1      39.917 -13.564   1.662  1.00  0.00     0.089 C 
HETATM    6  C   UNL     1      39.429 -13.164   3.050  1.00  0.00     0.053 C 
HETATM    7  C   UNL     1      40.141 -11.982   3.684  1.00  0.00     0.237 C 
ENDROOT
BRANCH   1   8
HETATM    8  C   UNL     1      41.499  -9.938   3.371  1.00  0.00     0.337 C 
BRANCH   8   9
HETATM    9  C   UNL     1      42.708 -10.712   3.895  1.00  0.00     0.244 C 
HETATM   10  N   UNL     1      42.850 -10.708   5.259  1.00  0.00    -0.351 N 
HETATM   11  H   UNL     1      42.180 -10.232   5.854  1.00  0.00     0.163 HD
HETATM   12  O   UNL     1      43.428 -11.339   3.123  1.00  0.00    -0.272 OA
BRANCH  10  13
HETATM   13  C   UNL     1      43.895 -11.448   5.953  1.00  0.00     0.120 C 
HETATM   14  C   UNL     1      43.418 -12.831   6.396  1.00  0.00     0.038 C 
BRANCH  13  15
HETATM   15  C   UNL     1      44.356 -10.611   7.121  1.00  0.00     0.005 A 
HETATM   16  S   UNL     1      46.004 -10.602   7.622  1.00  0.00    -0.104 SA
HETATM   17  C   UNL     1      45.685  -9.503   8.889  1.00  0.00     0.050 A 
HETATM   18  C   UNL     1      44.357  -9.146   8.941  1.00  0.00     0.008 A 
HETATM   19  C   UNL     1      43.591  -9.785   7.923  1.00  0.00     0.017 A 
ENDBRANCH  13  15
ENDBRANCH  10  13
ENDBRANCH   8   9
ENDBRANCH   1   8
BRANCH   5  20
HETATM   20  N   UNL     1      41.113 -14.410   1.606  1.00  0.00    -0.338 N 
HETATM   21  C   UNL     1      41.323 -15.590   2.278  1.00  0.00     0.321 C 
HETATM   22  N   UNL     1      42.646 -15.961   2.262  1.00  0.00    -0.309 N 
HETATM   23  O   UNL     1      40.429 -16.161   2.885  1.00  0.00    -0.247 OA
HETATM   24  H   UNL     1      43.307 -15.252   1.976  1.00  0.00     0.170 HD
HETATM   25  H   UNL     1      41.798 -14.180   0.895  1.00  0.00     0.164 HD
BRANCH  22  26
HETATM   26  C   UNL     1      43.193 -17.086   2.919  1.00  0.00     0.036 A 
HETATM   27  C   UNL     1      43.291 -18.352   2.329  1.00  0.00     0.032 A 
HETATM   28  C   UNL     1      43.805 -19.432   3.050  1.00  0.00     0.044 A 
HETATM   29  C   UNL     1      44.223 -19.246   4.361  1.00  0.00     0.116 A 
HETATM   30  F   UNL     1      44.700 -20.285   5.055  1.00  0.00    -0.206 F 
HETATM   31  C   UNL     1      44.157 -17.993   4.957  1.00  0.00     0.044 A 
HETATM   32  C   UNL     1      43.651 -16.910   4.233  1.00  0.00     0.032 A 
ENDBRANCH  22  26
ENDBRANCH   5  20
TORSDOF 6
ENDMDL
MODEL 7
REMARK VINA RESULT:      -7.8      4.869     11.533
REMARK  6 active torsions:
REMARK  status: ('A' for Active; 'I' for Inactive)
REMARK    1  A    between atoms: C_2  and  N_3 
REMARK    2  A    between atoms: C_2  and  C_25 
REMARK       I    between atoms: N_3  and  C_4 
REMARK    3  A    between atoms: C_4  and  C_5 
REMARK    4  A    between atoms: C_5  and  N_6 
REMARK    5  A    between atoms: C_10  and  N_11 
REMARK       I    between atoms: N_11  and  C_12 
REMARK       I    between atoms: C_12  and  N_13 
REMARK    6  A    between atoms: N_13  and  C_14 
ROOT
HETATM    1  N   UNL     1      43.125  -9.133  11.022  1.00  0.00    -0.063 N 
HETATM    2  H   UNL     1      43.558  -8.213  11.189  1.00  0.00     0.280 HD
HETATM    3  C   UNL     1      44.262 -10.124  10.929  1.00  0.00     0.237 C 
HETATM    4  C   UNL     1      44.941 -10.090   9.576  1.00  0.00     0.053 C 
HETATM    5  C   UNL     1      43.976 -10.224   8.404  1.00  0.00     0.089 C 
HETATM    6  C   UNL     1      42.885  -9.163   8.493  1.00  0.00     0.053 C 
HETATM    7  C   UNL     1      42.195  -9.037   9.840  1.00  0.00     0.237 C 
ENDROOT
BRANCH   1   8
HETATM    8  C   UNL     1      42.280  -9.416  12.283  1.00  0.00     0.337 C 
BRANCH   8   9
HETATM    9  C   UNL     1      42.388  -8.312  13.334  1.00  0.00     0.244 C 
HETATM   10  N   UNL     1      41.259  -8.118  14.086  1.00  0.00    -0.351 N 
HETATM   11  H   UNL     1      40.431  -8.688  13.946  1.00  0.00     0.163 HD
HETATM   12  O   UNL     1      43.450  -7.721  13.510  1.00  0.00    -0.272 OA
BRANCH  10  13
HETATM   13  C   UNL     1      41.188  -7.164  15.185  1.00  0.00     0.120 C 
HETATM   14  C   UNL     1      41.290  -7.852  16.546  1.00  0.00     0.038 C 
BRANCH  13  15
HETATM   15  C   UNL     1      39.901  -6.389  15.042  1.00  0.00     0.005 A 
HETATM   16  S   UNL     1      39.079  -6.288  13.532  1.00  0.00    -0.104 SA
HETATM   17  C   UNL     1      37.840  -5.317  14.193  1.00  0.00     0.050 A 
HETATM   18  C   UNL     1      38.039  -5.066  15.531  1.00  0.00     0.008 A 
HETATM   19  C   UNL     1      39.226  -5.683  16.021  1.00  0.00     0.017 A 
ENDBRANCH  13  15
ENDBRANCH  10  13
ENDBRANCH   8   9
ENDBRANCH   1   8
BRANCH   5  20
HETATM   20  N   UNL     1      43.534 -11.602   8.170  1.00  0.00    -0.338 N 
HETATM   21  C   UNL     1      44.012 -12.474   7.221  1.00  0.00     0.321 C 
HETATM   22  N   UNL     1      43.181 -13.555   7.052  1.00  0.00    -0.309 N 
HETATM   23  O   UNL     1      45.012 -12.231   6.561  1.00  0.00    -0.247 OA
HETATM   24  H   UNL     1      42.256 -13.476   7.452  1.00  0.00     0.170 HD
HETATM   25  H   UNL     1      42.914 -12.003   8.864  1.00  0.00     0.164 HD
BRANCH  22  26
HETATM   26  C   UNL     1      43.359 -14.590   6.107  1.00  0.00     0.036 A 
HETATM   27  C   UNL     1      42.854 -14.539   4.802  1.00  0.00     0.032 A 
HETATM   28  C   UNL     1      43.030 -15.616   3.931  1.00  0.00     0.044 A 
HETATM   29  C   UNL     1      43.715 -16.744   4.364  1.00  0.00     0.116 A 
HETATM   30  F   UNL     1      43.869 -17.781   3.533  1.00  0.00    -0.206 F 
HETATM   31  C   UNL     1      44.244 -16.806   5.646  1.00  0.00     0.044 A 
HETATM   32  C   UNL     1      44.076 -15.724   6.516  1.00  0.00     0.032 A 
ENDBRANCH  22  26
ENDBRANCH   5  20
TORSDOF 6
ENDMDL
MODEL 8
REMARK VINA RESULT:      -7.7      5.939      8.778
REMARK  6 active torsions:
REMARK  status: ('A' for Active; 'I' for Inactive)
REMARK    1  A    between atoms: C_2  and  N_3 
REMARK    2  A    between atoms: C_2  and  C_25 
REMARK       I    between atoms: N_3  and  C_4 
REMARK    3  A    between atoms: C_4  and  C_5 
REMARK    4  A    between atoms: C_5  and  N_6 
REMARK    5  A    between atoms: C_10  and  N_11 
REMARK       I    between atoms: N_11  and  C_12 
REMARK       I    between atoms: C_12  and  N_13 
REMARK    6  A    between atoms: N_13  and  C_14 
ROOT
HETATM    1  N   UNL     1      40.080 -11.003   4.247  1.00  0.00    -0.063 N 
HETATM    2  H   UNL     1      39.686 -10.406   4.988  1.00  0.00     0.280 HD
HETATM    3  C   UNL     1      39.597 -12.406   4.535  1.00  0.00     0.237 C 
HETATM    4  C   UNL     1      40.397 -13.072   5.635  1.00  0.00     0.053 C 
HETATM    5  C   UNL     1      41.903 -13.029   5.407  1.00  0.00     0.089 C 
HETATM    6  C   UNL     1      42.365 -11.592   5.192  1.00  0.00     0.053 C 
HETATM    7  C   UNL     1      41.571 -10.788   4.177  1.00  0.00     0.237 C 
ENDROOT
BRANCH   1   8
HETATM    8  C   UNL     1      39.453 -10.488   2.935  1.00  0.00     0.337 C 
BRANCH   8   9
HETATM    9  C   UNL     1      39.050 -11.615   1.984  1.00  0.00     0.244 C 
HETATM   10  N   UNL     1      40.080 -12.421   1.574  1.00  0.00    -0.351 N 
HETATM   11  H   UNL     1      41.028 -12.268   1.904  1.00  0.00     0.163 HD
HETATM   12  O   UNL     1      37.870 -11.795   1.697  1.00  0.00    -0.272 OA
BRANCH  10  13
HETATM   13  C   UNL     1      39.888 -13.591   0.728  1.00  0.00     0.120 C 
HETATM   14  C   UNL     1      40.929 -14.675   1.005  1.00  0.00     0.038 C 
BRANCH  13  15
HETATM   15  C   UNL     1      39.923 -13.132  -0.710  1.00  0.00     0.005 A 
HETATM   16  S   UNL     1      38.643 -13.502  -1.800  1.00  0.00    -0.104 SA
HETATM   17  C   UNL     1      39.412 -12.689  -3.089  1.00  0.00     0.050 A 
HETATM   18  C   UNL     1      40.619 -12.147  -2.711  1.00  0.00     0.008 A 
HETATM   19  C   UNL     1      40.915 -12.402  -1.340  1.00  0.00     0.017 A 
ENDBRANCH  13  15
ENDBRANCH  10  13
ENDBRANCH   8   9
ENDBRANCH   1   8
BRANCH   5  20
HETATM   20  N   UNL     1      42.374 -14.021   4.435  1.00  0.00    -0.338 N 
HETATM   21  C   UNL     1      42.349 -15.388   4.572  1.00  0.00     0.321 C 
HETATM   22  N   UNL     1      43.145 -16.011   3.642  1.00  0.00    -0.309 N 
HETATM   23  O   UNL     1      41.754 -15.939   5.486  1.00  0.00    -0.247 OA
HETATM   24  H   UNL     1      43.796 -15.421   3.142  1.00  0.00     0.170 HD
HETATM   25  H   UNL     1      42.611 -13.674   3.513  1.00  0.00     0.164 HD
BRANCH  22  26
HETATM   26  C   UNL     1      43.384 -17.401   3.562  1.00  0.00     0.036 A 
HETATM   27  C   UNL     1      43.984 -18.141   4.588  1.00  0.00     0.032 A 
HETATM   28  C   UNL     1      44.230 -19.507   4.427  1.00  0.00     0.044 A 
HETATM   29  C   UNL     1      43.872 -20.133   3.242  1.00  0.00     0.116 A 
HETATM   30  F   UNL     1      44.123 -21.438   3.083  1.00  0.00    -0.206 F 
HETATM   31  C   UNL     1      43.255 -19.423   2.220  1.00  0.00     0.044 A 
HETATM   32  C   UNL     1      43.000 -18.059   2.384  1.00  0.00     0.032 A 
ENDBRANCH  22  26
ENDBRANCH   5  20
TORSDOF 6
ENDMDL
MODEL 9
REMARK VINA RESULT:      -7.6      5.973      8.965
REMARK  6 active torsions:
REMARK  status: ('A' for Active; 'I' for Inactive)
REMARK    1  A    between atoms: C_2  and  N_3 
REMARK    2  A    between atoms: C_2  and  C_25 
REMARK       I    between atoms: N_3  and  C_4 
REMARK    3  A    between atoms: C_4  and  C_5 
REMARK    4  A    between atoms: C_5  and  N_6 
REMARK    5  A    between atoms: C_10  and  N_11 
REMARK       I    between atoms: N_11  and  C_12 
REMARK       I    between atoms: C_12  and  N_13 
REMARK    6  A    between atoms: N_13  and  C_14 
ROOT
HETATM    1  N   UNL     1      40.185 -10.482   3.675  1.00  0.00    -0.063 N 
HETATM    2  H   UNL     1      39.368  -9.998   4.076  1.00  0.00     0.280 HD
HETATM    3  C   UNL     1      39.651 -11.726   3.003  1.00  0.00     0.237 C 
HETATM    4  C   UNL     1      39.359 -12.832   3.994  1.00  0.00     0.053 C 
HETATM    5  C   UNL     1      40.529 -13.147   4.919  1.00  0.00     0.089 C 
HETATM    6  C   UNL     1      40.994 -11.884   5.634  1.00  0.00     0.053 C 
HETATM    7  C   UNL     1      41.226 -10.672   4.749  1.00  0.00     0.237 C 
ENDROOT
BRANCH   1   8
HETATM    8  C   UNL     1      40.750  -9.511   2.617  1.00  0.00     0.337 C 
BRANCH   8   9
HETATM    9  C   UNL     1      41.415 -10.230   1.443  1.00  0.00     0.244 C 
HETATM   10  N   UNL     1      40.756 -10.114   0.246  1.00  0.00    -0.351 N 
HETATM   11  H   UNL     1      39.901  -9.574   0.170  1.00  0.00     0.163 HD
HETATM   12  O   UNL     1      42.498 -10.791   1.589  1.00  0.00    -0.272 OA
BRANCH  10  13
HETATM   13  C   UNL     1      41.268 -10.666  -1.000  1.00  0.00     0.120 C 
HETATM   14  C   UNL     1      41.360  -9.606  -2.099  1.00  0.00     0.038 C 
BRANCH  13  15
HETATM   15  C   UNL     1      40.373 -11.813  -1.400  1.00  0.00     0.005 A 
HETATM   16  S   UNL     1      40.274 -13.246  -0.449  1.00  0.00    -0.104 SA
HETATM   17  C   UNL     1      39.148 -13.959  -1.516  1.00  0.00     0.050 A 
HETATM   18  C   UNL     1      38.849 -13.136  -2.577  1.00  0.00     0.008 A 
HETATM   19  C   UNL     1      39.554 -11.900  -2.512  1.00  0.00     0.017 A 
ENDBRANCH  13  15
ENDBRANCH  10  13
ENDBRANCH   8   9
ENDBRANCH   1   8
BRANCH   5  20
HETATM   20  N   UNL     1      41.569 -13.962   4.284  1.00  0.00    -0.338 N 
HETATM   21  C   UNL     1      41.573 -15.328   4.136  1.00  0.00     0.321 C 
HETATM   22  N   UNL     1      42.816 -15.804   3.796  1.00  0.00    -0.309 N 
HETATM   23  O   UNL     1      40.589 -16.012   4.380  1.00  0.00    -0.247 OA
HETATM   24  H   UNL     1      43.588 -15.163   3.912  1.00  0.00     0.170 HD
HETATM   25  H   UNL     1      42.291 -13.462   3.778  1.00  0.00     0.164 HD
BRANCH  22  26
HETATM   26  C   UNL     1      43.161 -17.165   3.637  1.00  0.00     0.036 A 
HETATM   27  C   UNL     1      43.849 -17.904   4.607  1.00  0.00     0.032 A 
HETATM   28  C   UNL     1      44.197 -19.236   4.369  1.00  0.00     0.044 A 
HETATM   29  C   UNL     1      43.853 -19.830   3.162  1.00  0.00     0.116 A 
HETATM   30  F   UNL     1      44.201 -21.101   2.929  1.00  0.00    -0.206 F 
HETATM   31  C   UNL     1      43.150 -19.122   2.196  1.00  0.00     0.044 A 
HETATM   32  C   UNL     1      42.794 -17.792   2.437  1.00  0.00     0.032 A 
ENDBRANCH  22  26
ENDBRANCH   5  20
TORSDOF 6
ENDMDL
MODEL 10
REMARK VINA RESULT:      -7.6      2.435      3.037
REMARK  6 active torsions:
REMARK  status: ('A' for Active; 'I' for Inactive)
REMARK    1  A    between atoms: C_2  and  N_3 
REMARK    2  A    between atoms: C_2  and  C_25 
REMARK       I    between atoms: N_3  and  C_4 
REMARK    3  A    between atoms: C_4  and  C_5 
REMARK    4  A    between atoms: C_5  and  N_6 
REMARK    5  A    between atoms: C_10  and  N_11 
REMARK       I    between atoms: N_11  and  C_12 
REMARK       I    between atoms: C_12  and  N_13 
REMARK    6  A    between atoms: N_13  and  C_14 
ROOT
HETATM    1  N   UNL     1      40.122 -11.370   4.588  1.00  0.00    -0.063 N 
HETATM    2  H   UNL     1      39.927 -10.925   3.679  1.00  0.00     0.280 HD
HETATM    3  C   UNL     1      39.195 -10.714   5.586  1.00  0.00     0.237 C 
HETATM    4  C   UNL     1      39.701  -9.357   6.030  1.00  0.00     0.053 C 
HETATM    5  C   UNL     1      41.143  -9.374   6.523  1.00  0.00     0.089 C 
HETATM    6  C   UNL     1      42.058  -9.976   5.463  1.00  0.00     0.053 C 
HETATM    7  C   UNL     1      41.601 -11.297   4.869  1.00  0.00     0.237 C 
ENDROOT
BRANCH   1   8
HETATM    8  C   UNL     1      39.735 -12.853   4.404  1.00  0.00     0.337 C 
BRANCH   8   9
HETATM    9  C   UNL     1      40.429 -13.778   5.402  1.00  0.00     0.244 C 
HETATM   10  N   UNL     1      41.539 -14.423   4.918  1.00  0.00    -0.351 N 
HETATM   11  H   UNL     1      41.861 -14.268   3.968  1.00  0.00     0.163 HD
HETATM   12  O   UNL     1      40.036 -13.849   6.563  1.00  0.00    -0.272 OA
BRANCH  10  13
HETATM   13  C   UNL     1      42.377 -15.288   5.736  1.00  0.00     0.120 C 
HETATM   14  C   UNL     1      43.502 -14.513   6.421  1.00  0.00     0.038 C 
BRANCH  13  15
HETATM   15  C   UNL     1      42.911 -16.387   4.849  1.00  0.00     0.005 A 
HETATM   16  S   UNL     1      43.756 -17.736   5.505  1.00  0.00    -0.104 SA
HETATM   17  C   UNL     1      43.991 -18.428   3.962  1.00  0.00     0.050 A 
HETATM   18  C   UNL     1      43.445 -17.656   2.962  1.00  0.00     0.008 A 
HETATM   19  C   UNL     1      42.824 -16.480   3.472  1.00  0.00     0.017 A 
ENDBRANCH  13  15
ENDBRANCH  10  13
ENDBRANCH   8   9
ENDBRANCH   1   8
BRANCH   5  20
HETATM   20  N   UNL     1      41.285  -9.896   7.886  1.00  0.00    -0.338 N 
HETATM   21  C   UNL     1      41.225  -9.180   9.056  1.00  0.00     0.321 C 
HETATM   22  N   UNL     1      41.711  -9.896  10.123  1.00  0.00    -0.309 N 
HETATM   23  O   UNL     1      40.864  -8.012   9.086  1.00  0.00    -0.247 OA
HETATM   24  H   UNL     1      42.238 -10.729   9.900  1.00  0.00     0.170 HD
HETATM   25  H   UNL     1      41.288 -10.905   7.986  1.00  0.00     0.164 HD
BRANCH  22  26
HETATM   26  C   UNL     1      41.846  -9.415  11.445  1.00  0.00     0.036 A 
HETATM   27  C   UNL     1      42.920  -8.625  11.872  1.00  0.00     0.032 A 
HETATM   28  C   UNL     1      43.013  -8.218  13.206  1.00  0.00     0.044 A 
HETATM   29  C   UNL     1      42.031  -8.599  14.110  1.00  0.00     0.116 A 
HETATM   30  F   UNL     1      42.131  -8.222  15.390  1.00  0.00    -0.206 F 
HETATM   31  C   UNL     1      40.946  -9.363  13.701  1.00  0.00     0.044 A 
HETATM   32  C   UNL     1      40.847  -9.763  12.366  1.00  0.00     0.032 A 
ENDBRANCH  22  26
ENDBRANCH   5  20
TORSDOF 6
ENDMDL
