MODEL 1
REMARK VINA RESULT:      -8.7      0.000      0.000
REMARK  2 active torsions:
REMARK  status: ('A' for Active; 'I' for Inactive)
REMARK       I    between atoms: C_2  and  N_3 
REMARK    1  A    between atoms: N_3  and  C_4 
REMARK    2  A    between atoms: C_11  and  N_12 
REMARK       I    between atoms: N_12  and  C_13 
ROOT
HETATM    1  C   UNL     1      43.330 -12.137   6.889  1.00  0.00     0.035 A 
HETATM    2  C   UNL     1      43.554 -13.491   7.146  1.00  0.00     0.038 A 
HETATM    3  C   UNL     1      43.464 -14.389   6.091  1.00  0.00    -0.041 A 
HETATM    4  C   UNL     1      43.155 -13.970   4.782  1.00  0.00    -0.019 A 
HETATM    5  C   UNL     1      43.133 -15.129   3.916  1.00  0.00    -0.019 A 
HETATM    6  C   UNL     1      43.425 -16.275   4.681  1.00  0.00    -0.041 A 
HETATM    7  C   UNL     1      43.474 -17.545   4.118  1.00  0.00     0.038 A 
HETATM    8  C   UNL     1      43.222 -17.680   2.752  1.00  0.00     0.035 A 
HETATM    9  C   UNL     1      42.941 -16.522   1.988  1.00  0.00     0.030 A 
HETATM   10  C   UNL     1      42.891 -15.245   2.563  1.00  0.00     0.015 A 
HETATM   11  C   UNL     1      43.664 -15.890   6.130  1.00  0.00     0.079 A 
HETATM   12  C   UNL     1      42.931 -12.632   4.515  1.00  0.00     0.015 A 
HETATM   13  C   UNL     1      43.021 -11.720   5.575  1.00  0.00     0.030 A 
ENDROOT
BRANCH   1  14
HETATM   14  N   UNL     1      43.390 -11.131   7.878  1.00  0.00    -0.328 N 
HETATM   15  C   UNL     1      44.513 -10.666   8.538  1.00  0.00     0.218 C 
HETATM   16  C   UNL     1      44.189  -9.582   9.537  1.00  0.00     0.117 C 
HETATM   17  O   UNL     1      45.672 -11.024   8.364  1.00  0.00    -0.274 OA
HETATM   18  H   UNL     1      42.507 -10.701   8.121  1.00  0.00     0.169 HD
ENDBRANCH   1  14
BRANCH   8  19
HETATM   19  N   UNL     1      43.237 -18.891   2.035  1.00  0.00    -0.328 N 
HETATM   20  C   UNL     1      43.539 -20.182   2.345  1.00  0.00     0.218 C 
HETATM   21  C   UNL     1      43.888 -20.605   3.739  1.00  0.00     0.117 C 
HETATM   22  O   UNL     1      43.500 -21.017   1.436  1.00  0.00    -0.274 OA
HETATM   23  H   UNL     1      42.966 -18.829   1.059  1.00  0.00     0.169 HD
ENDBRANCH   8  19
TORSDOF 2
ENDMDL
MODEL 2
REMARK VINA RESULT:      -8.0      1.274      8.011
REMARK  2 active torsions:
REMARK  status: ('A' for Active; 'I' for Inactive)
REMARK       I    between atoms: C_2  and  N_3 
REMARK    1  A    between atoms: N_3  and  C_4 
REMARK    2  A    between atoms: C_11  and  N_12 
REMARK       I    between atoms: N_12  and  C_13 
ROOT
HETATM    1  C   UNL     1      43.006 -16.850   2.938  1.00  0.00     0.035 A 
HETATM    2  C   UNL     1      43.242 -16.668   4.302  1.00  0.00     0.038 A 
HETATM    3  C   UNL     1      43.286 -15.372   4.799  1.00  0.00    -0.041 A 
HETATM    4  C   UNL     1      43.100 -14.250   3.968  1.00  0.00    -0.019 A 
HETATM    5  C   UNL     1      43.204 -13.052   4.772  1.00  0.00    -0.019 A 
HETATM    6  C   UNL     1      43.459 -13.422   6.108  1.00  0.00    -0.041 A 
HETATM    7  C   UNL     1      43.610 -12.479   7.118  1.00  0.00     0.038 A 
HETATM    8  C   UNL     1      43.508 -11.127   6.791  1.00  0.00     0.035 A 
HETATM    9  C   UNL     1      43.241 -10.764   5.448  1.00  0.00     0.030 A 
HETATM   10  C   UNL     1      43.092 -11.719   4.435  1.00  0.00     0.015 A 
HETATM   11  C   UNL     1      43.526 -14.934   6.229  1.00  0.00     0.079 A 
HETATM   12  C   UNL     1      42.866 -14.418   2.616  1.00  0.00     0.015 A 
HETATM   13  C   UNL     1      42.820 -15.723   2.107  1.00  0.00     0.030 A 
ENDROOT
BRANCH   1  14
HETATM   14  N   UNL     1      42.943 -18.116   2.316  1.00  0.00    -0.328 N 
HETATM   15  C   UNL     1      43.649 -19.256   2.655  1.00  0.00     0.218 C 
HETATM   16  C   UNL     1      43.323 -20.426   1.758  1.00  0.00     0.117 C 
HETATM   17  O   UNL     1      44.443 -19.385   3.579  1.00  0.00    -0.274 OA
HETATM   18  H   UNL     1      42.300 -18.192   1.539  1.00  0.00     0.169 HD
ENDBRANCH   1  14
BRANCH   8  19
HETATM   19  N   UNL     1      43.633 -10.055   7.695  1.00  0.00    -0.328 N 
HETATM   20  C   UNL     1      44.683  -9.399   8.259  1.00  0.00     0.218 C 
HETATM   21  C   UNL     1      46.104  -9.707   7.896  1.00  0.00     0.117 C 
HETATM   22  O   UNL     1      44.433  -8.511   9.082  1.00  0.00    -0.274 OA
HETATM   23  H   UNL     1      42.762  -9.654   8.025  1.00  0.00     0.169 HD
ENDBRANCH   8  19
TORSDOF 2
ENDMDL
MODEL 3
REMARK VINA RESULT:      -7.7      3.581      8.224
REMARK  2 active torsions:
REMARK  status: ('A' for Active; 'I' for Inactive)
REMARK       I    between atoms: C_2  and  N_3 
REMARK    1  A    between atoms: N_3  and  C_4 
REMARK    2  A    between atoms: C_11  and  N_12 
REMARK       I    between atoms: N_12  and  C_13 
ROOT
HETATM    1  C   UNL     1      39.829 -14.652   0.472  1.00  0.00     0.035 A 
HETATM    2  C   UNL     1      40.012 -13.382   1.025  1.00  0.00     0.038 A 
HETATM    3  C   UNL     1      40.698 -13.276   2.227  1.00  0.00    -0.041 A 
HETATM    4  C   UNL     1      41.209 -14.408   2.894  1.00  0.00    -0.019 A 
HETATM    5  C   UNL     1      41.864 -13.975   4.109  1.00  0.00    -0.019 A 
HETATM    6  C   UNL     1      41.762 -12.573   4.206  1.00  0.00    -0.041 A 
HETATM    7  C   UNL     1      42.302 -11.867   5.276  1.00  0.00     0.038 A 
HETATM    8  C   UNL     1      42.959 -12.576   6.281  1.00  0.00     0.035 A 
HETATM    9  C   UNL     1      43.067 -13.983   6.170  1.00  0.00     0.030 A 
HETATM   10  C   UNL     1      42.520 -14.689   5.090  1.00  0.00     0.015 A 
HETATM   11  C   UNL     1      41.013 -12.017   3.009  1.00  0.00     0.079 A 
HETATM   12  C   UNL     1      41.035 -15.669   2.356  1.00  0.00     0.015 A 
HETATM   13  C   UNL     1      40.343 -15.784   1.143  1.00  0.00     0.030 A 
ENDROOT
BRANCH   1  14
HETATM   14  N   UNL     1      39.146 -14.887  -0.741  1.00  0.00    -0.328 N 
HETATM   15  C   UNL     1      39.498 -14.444  -2.004  1.00  0.00     0.218 C 
HETATM   16  C   UNL     1      38.521 -14.891  -3.066  1.00  0.00     0.117 C 
HETATM   17  O   UNL     1      40.487 -13.787  -2.307  1.00  0.00    -0.274 OA
HETATM   18  H   UNL     1      38.309 -15.450  -0.672  1.00  0.00     0.169 HD
ENDBRANCH   1  14
BRANCH   8  19
HETATM   19  N   UNL     1      43.559 -12.010   7.422  1.00  0.00    -0.328 N 
HETATM   20  C   UNL     1      44.770 -11.447   7.685  1.00  0.00     0.218 C 
HETATM   21  C   UNL     1      45.799 -11.236   6.617  1.00  0.00     0.117 C 
HETATM   22  O   UNL     1      44.999 -11.090   8.845  1.00  0.00    -0.274 OA
HETATM   23  H   UNL     1      42.989 -12.001   8.261  1.00  0.00     0.169 HD
ENDBRANCH   8  19
TORSDOF 2
ENDMDL
MODEL 4
REMARK VINA RESULT:      -7.7     15.169     16.726
REMARK  2 active torsions:
REMARK  status: ('A' for Active; 'I' for Inactive)
REMARK       I    between atoms: C_2  and  N_3 
REMARK    1  A    between atoms: N_3  and  C_4 
REMARK    2  A    between atoms: C_11  and  N_12 
REMARK       I    between atoms: N_12  and  C_13 
ROOT
HETATM    1  C   UNL     1      50.607 -30.287   3.756  1.00  0.00     0.035 A 
HETATM    2  C   UNL     1      50.804 -30.508   2.392  1.00  0.00     0.038 A 
HETATM    3  C   UNL     1      49.866 -30.011   1.497  1.00  0.00    -0.041 A 
HETATM    4  C   UNL     1      48.732 -29.295   1.930  1.00  0.00    -0.019 A 
HETATM    5  C   UNL     1      47.952 -28.915   0.773  1.00  0.00    -0.019 A 
HETATM    6  C   UNL     1      48.595 -29.394  -0.386  1.00  0.00    -0.041 A 
HETATM    7  C   UNL     1      48.075 -29.181  -1.658  1.00  0.00     0.038 A 
HETATM    8  C   UNL     1      46.879 -28.474  -1.782  1.00  0.00     0.035 A 
HETATM    9  C   UNL     1      46.246 -27.986  -0.613  1.00  0.00     0.030 A 
HETATM   10  C   UNL     1      46.774 -28.206   0.666  1.00  0.00     0.015 A 
HETATM   11  C   UNL     1      49.870 -30.127  -0.013  1.00  0.00     0.079 A 
HETATM   12  C   UNL     1      48.526 -29.070   3.278  1.00  0.00     0.015 A 
HETATM   13  C   UNL     1      49.468 -29.569   4.187  1.00  0.00     0.030 A 
ENDROOT
BRANCH   1  14
HETATM   14  N   UNL     1      51.487 -30.746   4.760  1.00  0.00    -0.328 N 
HETATM   15  C   UNL     1      51.242 -31.717   5.714  1.00  0.00     0.218 C 
HETATM   16  C   UNL     1      52.423 -31.941   6.627  1.00  0.00     0.117 C 
HETATM   17  O   UNL     1      50.221 -32.382   5.845  1.00  0.00    -0.274 OA
HETATM   18  H   UNL     1      52.402 -30.315   4.773  1.00  0.00     0.169 HD
ENDBRANCH   1  14
BRANCH   8  19
HETATM   19  N   UNL     1      46.229 -28.174  -2.994  1.00  0.00    -0.328 N 
HETATM   20  C   UNL     1      45.155 -28.686  -3.654  1.00  0.00     0.218 C 
HETATM   21  C   UNL     1      44.308 -29.777  -3.072  1.00  0.00     0.117 C 
HETATM   22  O   UNL     1      44.876 -28.210  -4.759  1.00  0.00    -0.274 OA
HETATM   23  H   UNL     1      46.622 -27.406  -3.526  1.00  0.00     0.169 HD
ENDBRANCH   8  19
TORSDOF 2
ENDMDL
MODEL 5
REMARK VINA RESULT:      -7.7      2.417      8.113
REMARK  2 active torsions:
REMARK  status: ('A' for Active; 'I' for Inactive)
REMARK       I    between atoms: C_2  and  N_3 
REMARK    1  A    between atoms: N_3  and  C_4 
REMARK    2  A    between atoms: C_11  and  N_12 
REMARK       I    between atoms: N_12  and  C_13 
ROOT
HETATM    1  C   UNL     1      42.967 -16.889   2.580  1.00  0.00     0.035 A 
HETATM    2  C   UNL     1      42.487 -16.507   3.834  1.00  0.00     0.038 A 
HETATM    3  C   UNL     1      42.424 -15.153   4.136  1.00  0.00    -0.041 A 
HETATM    4  C   UNL     1      42.829 -14.167   3.215  1.00  0.00    -0.019 A 
HETATM    5  C   UNL     1      42.647 -12.865   3.819  1.00  0.00    -0.019 A 
HETATM    6  C   UNL     1      42.131 -13.034   5.119  1.00  0.00    -0.041 A 
HETATM    7  C   UNL     1      41.853 -11.953   5.948  1.00  0.00     0.038 A 
HETATM    8  C   UNL     1      42.098 -10.665   5.472  1.00  0.00     0.035 A 
HETATM    9  C   UNL     1      42.606 -10.503   4.160  1.00  0.00     0.030 A 
HETATM   10  C   UNL     1      42.886 -11.597   3.330  1.00  0.00     0.015 A 
HETATM   11  C   UNL     1      41.944 -14.510   5.421  1.00  0.00     0.079 A 
HETATM   12  C   UNL     1      43.305 -14.532   1.970  1.00  0.00     0.015 A 
HETATM   13  C   UNL     1      43.372 -15.897   1.658  1.00  0.00     0.030 A 
ENDROOT
BRANCH   1  14
HETATM   14  N   UNL     1      43.081 -18.231   2.159  1.00  0.00    -0.328 N 
HETATM   15  C   UNL     1      43.818 -19.239   2.754  1.00  0.00     0.218 C 
HETATM   16  C   UNL     1      43.701 -20.553   2.018  1.00  0.00     0.117 C 
HETATM   17  O   UNL     1      44.488 -19.159   3.777  1.00  0.00    -0.274 OA
HETATM   18  H   UNL     1      42.555 -18.479   1.331  1.00  0.00     0.169 HD
ENDBRANCH   1  14
BRANCH   8  19
HETATM   19  N   UNL     1      41.867  -9.473   6.184  1.00  0.00    -0.328 N 
HETATM   20  C   UNL     1      40.778  -8.687   6.404  1.00  0.00     0.218 C 
HETATM   21  C   UNL     1      39.414  -9.058   5.907  1.00  0.00     0.117 C 
HETATM   22  O   UNL     1      40.939  -7.646   7.050  1.00  0.00    -0.274 OA
HETATM   23  H   UNL     1      42.674  -9.078   6.656  1.00  0.00     0.169 HD
ENDBRANCH   8  19
TORSDOF 2
ENDMDL
MODEL 6
REMARK VINA RESULT:      -7.4      3.559      4.751
REMARK  2 active torsions:
REMARK  status: ('A' for Active; 'I' for Inactive)
REMARK       I    between atoms: C_2  and  N_3 
REMARK    1  A    between atoms: N_3  and  C_4 
REMARK    2  A    between atoms: C_11  and  N_12 
REMARK       I    between atoms: N_12  and  C_13 
ROOT
HETATM    1  C   UNL     1      43.302 -12.476   5.918  1.00  0.00     0.035 A 
HETATM    2  C   UNL     1      42.684 -11.788   4.872  1.00  0.00     0.038 A 
HETATM    3  C   UNL     1      42.058 -12.522   3.874  1.00  0.00    -0.041 A 
HETATM    4  C   UNL     1      42.031 -13.931   3.893  1.00  0.00    -0.019 A 
HETATM    5  C   UNL     1      41.313 -14.399   2.728  1.00  0.00    -0.019 A 
HETATM    6  C   UNL     1      40.891 -13.284   1.976  1.00  0.00    -0.041 A 
HETATM    7  C   UNL     1      40.173 -13.422   0.793  1.00  0.00     0.038 A 
HETATM    8  C   UNL     1      39.868 -14.706   0.342  1.00  0.00     0.035 A 
HETATM    9  C   UNL     1      40.286 -15.820   1.109  1.00  0.00     0.030 A 
HETATM   10  C   UNL     1      41.011 -15.675   2.300  1.00  0.00     0.015 A 
HETATM   11  C   UNL     1      41.330 -11.999   2.653  1.00  0.00     0.079 A 
HETATM   12  C   UNL     1      42.639 -14.623   4.923  1.00  0.00     0.015 A 
HETATM   13  C   UNL     1      43.273 -13.889   5.934  1.00  0.00     0.030 A 
ENDROOT
BRANCH   1  14
HETATM   14  N   UNL     1      43.972 -11.841   6.986  1.00  0.00    -0.328 N 
HETATM   15  C   UNL     1      45.265 -11.351   6.995  1.00  0.00     0.218 C 
HETATM   16  C   UNL     1      45.642 -10.738   8.322  1.00  0.00     0.117 C 
HETATM   17  O   UNL     1      46.062 -11.354   6.064  1.00  0.00    -0.274 OA
HETATM   18  H   UNL     1      43.436 -11.729   7.837  1.00  0.00     0.169 HD
ENDBRANCH   1  14
BRANCH   8  19
HETATM   19  N   UNL     1      39.149 -15.012  -0.829  1.00  0.00    -0.328 N 
HETATM   20  C   UNL     1      39.247 -14.640  -2.134  1.00  0.00     0.218 C 
HETATM   21  C   UNL     1      40.356 -13.765  -2.633  1.00  0.00     0.117 C 
HETATM   22  O   UNL     1      38.392 -15.064  -2.920  1.00  0.00    -0.274 OA
HETATM   23  H   UNL     1      38.372 -15.653  -0.714  1.00  0.00     0.169 HD
ENDBRANCH   8  19
TORSDOF 2
ENDMDL
MODEL 7
REMARK VINA RESULT:      -7.4      3.113      7.631
REMARK  2 active torsions:
REMARK  status: ('A' for Active; 'I' for Inactive)
REMARK       I    between atoms: C_2  and  N_3 
REMARK    1  A    between atoms: N_3  and  C_4 
REMARK    2  A    between atoms: C_11  and  N_12 
REMARK       I    between atoms: N_12  and  C_13 
ROOT
HETATM    1  C   UNL     1      43.620 -17.521   3.807  1.00  0.00     0.035 A 
HETATM    2  C   UNL     1      43.571 -16.509   4.768  1.00  0.00     0.038 A 
HETATM    3  C   UNL     1      43.203 -15.231   4.366  1.00  0.00    -0.041 A 
HETATM    4  C   UNL     1      42.882 -14.937   3.026  1.00  0.00    -0.019 A 
HETATM    5  C   UNL     1      42.545 -13.534   2.926  1.00  0.00    -0.019 A 
HETATM    6  C   UNL     1      42.657 -12.947   4.202  1.00  0.00    -0.041 A 
HETATM    7  C   UNL     1      42.394 -11.599   4.420  1.00  0.00     0.038 A 
HETATM    8  C   UNL     1      42.012 -10.809   3.335  1.00  0.00     0.035 A 
HETATM    9  C   UNL     1      41.890 -11.409   2.058  1.00  0.00     0.030 A 
HETATM   10  C   UNL     1      42.158 -12.768   1.846  1.00  0.00     0.015 A 
HETATM   11  C   UNL     1      43.082 -13.988   5.222  1.00  0.00     0.079 A 
HETATM   12  C   UNL     1      42.927 -15.931   2.067  1.00  0.00     0.015 A 
HETATM   13  C   UNL     1      43.297 -17.222   2.464  1.00  0.00     0.030 A 
ENDROOT
BRANCH   1  14
HETATM   14  N   UNL     1      43.983 -18.855   4.093  1.00  0.00    -0.328 N 
HETATM   15  C   UNL     1      43.869 -19.518   5.301  1.00  0.00     0.218 C 
HETATM   16  C   UNL     1      44.364 -20.942   5.229  1.00  0.00     0.117 C 
HETATM   17  O   UNL     1      43.403 -19.075   6.345  1.00  0.00    -0.274 OA
HETATM   18  H   UNL     1      44.362 -19.383   3.318  1.00  0.00     0.169 HD
ENDBRANCH   1  14
BRANCH   8  19
HETATM   19  N   UNL     1      41.709  -9.436   3.391  1.00  0.00    -0.328 N 
HETATM   20  C   UNL     1      40.596  -8.714   3.694  1.00  0.00     0.218 C 
HETATM   21  C   UNL     1      39.330  -9.363   4.166  1.00  0.00     0.117 C 
HETATM   22  O   UNL     1      40.659  -7.485   3.587  1.00  0.00    -0.274 OA
HETATM   23  H   UNL     1      42.471  -8.807   3.158  1.00  0.00     0.169 HD
ENDBRANCH   8  19
TORSDOF 2
ENDMDL
MODEL 8
REMARK VINA RESULT:      -7.3      4.496      5.834
REMARK  2 active torsions:
REMARK  status: ('A' for Active; 'I' for Inactive)
REMARK       I    between atoms: C_2  and  N_3 
REMARK    1  A    between atoms: N_3  and  C_4 
REMARK    2  A    between atoms: C_11  and  N_12 
REMARK       I    between atoms: N_12  and  C_13 
ROOT
HETATM    1  C   UNL     1      39.343 -12.794   1.518  1.00  0.00     0.035 A 
HETATM    2  C   UNL     1      39.453 -13.330   2.803  1.00  0.00     0.038 A 
HETATM    3  C   UNL     1      40.361 -14.358   3.017  1.00  0.00    -0.041 A 
HETATM    4  C   UNL     1      41.166 -14.867   1.978  1.00  0.00    -0.019 A 
HETATM    5  C   UNL     1      41.999 -15.923   2.510  1.00  0.00    -0.019 A 
HETATM    6  C   UNL     1      41.715 -16.080   3.881  1.00  0.00    -0.041 A 
HETATM    7  C   UNL     1      42.365 -17.027   4.665  1.00  0.00     0.038 A 
HETATM    8  C   UNL     1      43.323 -17.846   4.067  1.00  0.00     0.035 A 
HETATM    9  C   UNL     1      43.610 -17.674   2.692  1.00  0.00     0.030 A 
HETATM   10  C   UNL     1      42.951 -16.719   1.907  1.00  0.00     0.015 A 
HETATM   11  C   UNL     1      40.650 -15.088   4.312  1.00  0.00     0.079 A 
HETATM   12  C   UNL     1      41.067 -14.344   0.703  1.00  0.00     0.015 A 
HETATM   13  C   UNL     1      40.152 -13.306   0.479  1.00  0.00     0.030 A 
ENDROOT
BRANCH   1  14
HETATM   14  N   UNL     1      38.455 -11.751   1.178  1.00  0.00    -0.328 N 
HETATM   15  C   UNL     1      37.789 -11.571  -0.021  1.00  0.00     0.218 C 
HETATM   16  C   UNL     1      36.922 -10.334  -0.021  1.00  0.00     0.117 C 
HETATM   17  O   UNL     1      37.827 -12.302  -1.004  1.00  0.00    -0.274 OA
HETATM   18  H   UNL     1      38.285 -11.064   1.901  1.00  0.00     0.169 HD
ENDBRANCH   1  14
BRANCH   8  19
HETATM   19  N   UNL     1      44.066 -18.846   4.722  1.00  0.00    -0.328 N 
HETATM   20  C   UNL     1      44.271 -20.175   4.514  1.00  0.00     0.218 C 
HETATM   21  C   UNL     1      43.709 -20.891   3.323  1.00  0.00     0.117 C 
HETATM   22  O   UNL     1      44.959 -20.788   5.337  1.00  0.00    -0.274 OA
HETATM   23  H   UNL     1      44.582 -18.545   5.542  1.00  0.00     0.169 HD
ENDBRANCH   8  19
TORSDOF 2
ENDMDL
MODEL 9
REMARK VINA RESULT:      -7.3      6.409     12.698
REMARK  2 active torsions:
REMARK  status: ('A' for Active; 'I' for Inactive)
REMARK       I    between atoms: C_2  and  N_3 
REMARK    1  A    between atoms: N_3  and  C_4 
REMARK    2  A    between atoms: C_11  and  N_12 
REMARK       I    between atoms: N_12  and  C_13 
ROOT
HETATM    1  C   UNL     1      43.992  -9.960   9.459  1.00  0.00     0.035 A 
HETATM    2  C   UNL     1      43.591  -8.623   9.498  1.00  0.00     0.038 A 
HETATM    3  C   UNL     1      43.152  -8.098  10.706  1.00  0.00    -0.041 A 
HETATM    4  C   UNL     1      43.103  -8.874  11.880  1.00  0.00    -0.019 A 
HETATM    5  C   UNL     1      42.605  -8.052  12.961  1.00  0.00    -0.019 A 
HETATM    6  C   UNL     1      42.339  -6.760  12.465  1.00  0.00    -0.041 A 
HETATM    7  C   UNL     1      41.845  -5.745  13.277  1.00  0.00     0.038 A 
HETATM    8  C   UNL     1      41.606  -6.023  14.623  1.00  0.00     0.035 A 
HETATM    9  C   UNL     1      41.887  -7.320  15.116  1.00  0.00     0.030 A 
HETATM   10  C   UNL     1      42.382  -8.339  14.292  1.00  0.00     0.015 A 
HETATM   11  C   UNL     1      42.672  -6.688  10.986  1.00  0.00     0.079 A 
HETATM   12  C   UNL     1      43.498 -10.198  11.854  1.00  0.00     0.015 A 
HETATM   13  C   UNL     1      43.942 -10.736  10.639  1.00  0.00     0.030 A 
ENDROOT
BRANCH   1  14
HETATM   14  N   UNL     1      44.453 -10.606   8.292  1.00  0.00    -0.328 N 
HETATM   15  C   UNL     1      45.628 -10.363   7.604  1.00  0.00     0.218 C 
HETATM   16  C   UNL     1      45.784 -11.251   6.393  1.00  0.00     0.117 C 
HETATM   17  O   UNL     1      46.503  -9.557   7.899  1.00  0.00    -0.274 OA
HETATM   18  H   UNL     1      43.853 -11.334   7.927  1.00  0.00     0.169 HD
ENDBRANCH   1  14
BRANCH   8  19
HETATM   19  N   UNL     1      41.113  -5.108  15.571  1.00  0.00    -0.328 N 
HETATM   20  C   UNL     1      39.886  -4.846  16.099  1.00  0.00     0.218 C 
HETATM   21  C   UNL     1      38.681  -5.669  15.760  1.00  0.00     0.117 C 
HETATM   22  O   UNL     1      39.790  -3.906  16.895  1.00  0.00    -0.274 OA
HETATM   23  H   UNL     1      41.800  -4.481  15.977  1.00  0.00     0.169 HD
ENDBRANCH   8  19
TORSDOF 2
ENDMDL
MODEL 10
REMARK VINA RESULT:      -7.0      4.226      7.680
REMARK  2 active torsions:
REMARK  status: ('A' for Active; 'I' for Inactive)
REMARK       I    between atoms: C_2  and  N_3 
REMARK    1  A    between atoms: N_3  and  C_4 
REMARK    2  A    between atoms: C_11  and  N_12 
REMARK       I    between atoms: N_12  and  C_13 
ROOT
HETATM    1  C   UNL     1      43.092 -17.562   3.306  1.00  0.00     0.035 A 
HETATM    2  C   UNL     1      42.195 -16.846   4.102  1.00  0.00     0.038 A 
HETATM    3  C   UNL     1      41.682 -15.652   3.612  1.00  0.00    -0.041 A 
HETATM    4  C   UNL     1      42.042 -15.153   2.344  1.00  0.00    -0.019 A 
HETATM    5  C   UNL     1      41.350 -13.902   2.124  1.00  0.00    -0.019 A 
HETATM    6  C   UNL     1      40.558 -13.615   3.253  1.00  0.00    -0.041 A 
HETATM    7  C   UNL     1      39.774 -12.469   3.332  1.00  0.00     0.038 A 
HETATM    8  C   UNL     1      39.780 -11.580   2.257  1.00  0.00     0.035 A 
HETATM    9  C   UNL     1      40.570 -11.882   1.121  1.00  0.00     0.030 A 
HETATM   10  C   UNL     1      41.359 -13.037   1.049  1.00  0.00     0.015 A 
HETATM   11  C   UNL     1      40.705 -14.714   4.290  1.00  0.00     0.079 A 
HETATM   12  C   UNL     1      42.929 -15.853   1.548  1.00  0.00     0.015 A 
HETATM   13  C   UNL     1      43.451 -17.059   2.036  1.00  0.00     0.030 A 
ENDROOT
BRANCH   1  14
HETATM   14  N   UNL     1      43.681 -18.784   3.696  1.00  0.00    -0.328 N 
HETATM   15  C   UNL     1      43.951 -19.216   4.982  1.00  0.00     0.218 C 
HETATM   16  C   UNL     1      44.593 -20.583   5.011  1.00  0.00     0.117 C 
HETATM   17  O   UNL     1      43.699 -18.626   6.027  1.00  0.00    -0.274 OA
HETATM   18  H   UNL     1      43.926 -19.414   2.943  1.00  0.00     0.169 HD
ENDBRANCH   1  14
BRANCH   8  19
HETATM   19  N   UNL     1      39.042 -10.384   2.182  1.00  0.00    -0.328 N 
HETATM   20  C   UNL     1      37.840 -10.035   1.650  1.00  0.00     0.218 C 
HETATM   21  C   UNL     1      36.924 -11.042   1.022  1.00  0.00     0.117 C 
HETATM   22  O   UNL     1      37.504  -8.847   1.713  1.00  0.00    -0.274 OA
HETATM   23  H   UNL     1      39.474  -9.573   2.612  1.00  0.00     0.169 HD
ENDBRANCH   8  19
TORSDOF 2
ENDMDL
