MODEL 1
REMARK VINA RESULT:      -8.7      0.000      0.000
REMARK  7 active torsions:
REMARK  status: ('A' for Active; 'I' for Inactive)
REMARK    1  A    between atoms: C_3  and  C_4 
REMARK       I    between atoms: C_4  and  N_5 
REMARK    2  A    between atoms: C_8  and  N_9 
REMARK       I    between atoms: N_9  and  C_10 
REMARK    3  A    between atoms: C_10  and  C_11 
REMARK    4  A    between atoms: C_11  and  N_12 
REMARK       I    between atoms: N_15  and  C_16 
REMARK    5  A    between atoms: C_16  and  C_17 
REMARK    6  A    between atoms: C_32  and  C_33 
REMARK    7  A    between atoms: C_33  and  O_34 
ROOT
HETATM    1  C   UNL     1      41.440 -12.997   4.195  1.00  0.00     0.375 C 
ENDROOT
BRANCH   1   2
HETATM    2  C   UNL     1      41.434 -14.530   4.286  1.00  0.00     0.251 C 
HETATM    3  N   UNL     1      42.546 -15.092   3.685  1.00  0.00    -0.319 N 
HETATM    4  H   UNL     1      43.254 -14.444   3.357  1.00  0.00     0.169 HD
HETATM    5  O   UNL     1      40.578 -15.123   4.936  1.00  0.00    -0.271 OA
BRANCH   3   6
HETATM    6  C   UNL     1      42.896 -16.417   3.800  1.00  0.00     0.094 C 
HETATM    7  S   UNL     1      42.380 -17.317   2.460  1.00  0.00    -0.065 SA
HETATM    8  C   UNL     1      43.278 -18.696   2.940  1.00  0.00     0.081 C 
HETATM    9  C   UNL     1      43.833 -18.516   4.206  1.00  0.00    -0.020 C 
HETATM   10  C   UNL     1      44.600 -19.567   4.959  1.00  0.00     0.051 C 
HETATM   11  C   UNL     1      43.573 -17.177   4.732  1.00  0.00     0.080 C 
BRANCH   8  12
HETATM   12  C   UNL     1      43.373 -19.863   2.066  1.00  0.00     0.256 C 
HETATM   13  N   UNL     1      42.197 -20.441   1.671  1.00  0.00    -0.365 N 
HETATM   14  H   UNL     1      41.299 -20.081   1.957  1.00  0.00     0.159 HD
HETATM   15  H   UNL     1      42.249 -21.239   1.054  1.00  0.00     0.159 HD
HETATM   16  O   UNL     1      44.423 -20.353   1.659  1.00  0.00    -0.267 OA
ENDBRANCH   8  12
BRANCH  11  17
HETATM   17  C   UNL     1      43.952 -16.725   6.071  1.00  0.00     0.296 C 
HETATM   18  O   UNL     1      45.099 -16.419   6.381  1.00  0.00    -0.259 OA
BRANCH  17  19
HETATM   19  O   UNL     1      42.918 -16.829   6.963  1.00  0.00    -0.322 OA
HETATM   20  C   UNL     1      42.703 -15.649   7.733  1.00  0.00     0.213 C 
ENDBRANCH  17  19
ENDBRANCH  11  17
ENDBRANCH   3   6
ENDBRANCH   1   2
BRANCH   1  21
HETATM   21  N   UNL     1      42.803 -12.461   4.410  1.00  0.00     0.100 N 
HETATM   22  C   UNL     1      42.949 -11.107   3.819  1.00  0.00     0.293 C 
HETATM   23  C   UNL     1      42.175  -9.985   4.540  1.00  0.00     0.156 C 
HETATM   24  N   UNL     1      42.359  -9.993   5.995  1.00  0.00    -0.344 N 
HETATM   25  C   UNL     1      42.086  -8.796   6.678  1.00  0.00     0.262 C 
HETATM   26  C   UNL     1      42.355 -11.310   6.640  1.00  0.00     0.156 C 
HETATM   27  O   UNL     1      41.859  -7.754   6.065  1.00  0.00    -0.267 OA
HETATM   28  C   UNL     1      43.134 -12.374   5.847  1.00  0.00     0.293 C 
BRANCH  25  29
HETATM   29  C   UNL     1      42.120  -8.818   8.123  1.00  0.00     0.096 A 
HETATM   30  S   UNL     1      40.670  -8.927   9.011  1.00  0.00    -0.082 SA
HETATM   31  C   UNL     1      41.497  -8.859  10.520  1.00  0.00     0.019 A 
HETATM   32  C   UNL     1      42.876  -8.698  10.342  1.00  0.00     0.004 A 
HETATM   33  C   UNL     1      40.918  -8.939  11.802  1.00  0.00     0.043 A 
HETATM   34  C   UNL     1      43.215  -8.669   8.943  1.00  0.00     0.068 A 
HETATM   35  C   UNL     1      43.685  -8.593  11.505  1.00  0.00     0.016 A 
HETATM   36 CL   UNL     1      44.832  -8.490   8.388  1.00  0.00    -0.082 Cl
HETATM   37  C   UNL     1      43.115  -8.666  12.781  1.00  0.00     0.025 A 
HETATM   38  C   UNL     1      41.747  -8.843  12.920  1.00  0.00     0.035 A 
HETATM   39 CL   UNL     1      41.059  -8.944  14.495  1.00  0.00    -0.084 Cl
ENDBRANCH  25  29
ENDBRANCH   1  21
TORSDOF 7
ENDMDL
MODEL 2
REMARK VINA RESULT:      -8.5      4.246     10.485
REMARK  7 active torsions:
REMARK  status: ('A' for Active; 'I' for Inactive)
REMARK    1  A    between atoms: C_3  and  C_4 
REMARK       I    between atoms: C_4  and  N_5 
REMARK    2  A    between atoms: C_8  and  N_9 
REMARK       I    between atoms: N_9  and  C_10 
REMARK    3  A    between atoms: C_10  and  C_11 
REMARK    4  A    between atoms: C_11  and  N_12 
REMARK       I    between atoms: N_15  and  C_16 
REMARK    5  A    between atoms: C_16  and  C_17 
REMARK    6  A    between atoms: C_32  and  C_33 
REMARK    7  A    between atoms: C_33  and  O_34 
ROOT
HETATM    1  C   UNL     1      39.030 -10.455   8.288  1.00  0.00     0.375 C 
ENDROOT
BRANCH   1   2
HETATM    2  C   UNL     1      39.272  -9.453   9.426  1.00  0.00     0.251 C 
HETATM    3  N   UNL     1      40.253  -9.886  10.300  1.00  0.00    -0.319 N 
HETATM    4  H   UNL     1      40.746 -10.733  10.038  1.00  0.00     0.169 HD
HETATM    5  O   UNL     1      38.717  -8.359   9.437  1.00  0.00    -0.271 OA
BRANCH   3   6
HETATM    6  C   UNL     1      40.812  -9.099  11.280  1.00  0.00     0.094 C 
HETATM    7  S   UNL     1      39.715  -8.797  12.537  1.00  0.00    -0.065 SA
HETATM    8  C   UNL     1      40.926  -8.108  13.535  1.00  0.00     0.081 C 
HETATM    9  C   UNL     1      42.125  -7.962  12.840  1.00  0.00    -0.020 C 
HETATM   10  C   UNL     1      43.358  -7.306  13.393  1.00  0.00     0.051 C 
HETATM   11  C   UNL     1      42.044  -8.516  11.489  1.00  0.00     0.080 C 
BRANCH   8  12
HETATM   12  C   UNL     1      40.630  -7.743  14.919  1.00  0.00     0.256 C 
HETATM   13  N   UNL     1      41.237  -8.478  15.899  1.00  0.00    -0.365 N 
HETATM   14  H   UNL     1      41.870  -9.235  15.690  1.00  0.00     0.159 HD
HETATM   15  H   UNL     1      41.052  -8.225  16.860  1.00  0.00     0.159 HD
HETATM   16  O   UNL     1      39.887  -6.826  15.259  1.00  0.00    -0.267 OA
ENDBRANCH   8  12
BRANCH  11  17
HETATM   17  C   UNL     1      43.114  -8.430  10.493  1.00  0.00     0.296 C 
HETATM   18  O   UNL     1      43.437  -7.383   9.940  1.00  0.00    -0.259 OA
BRANCH  17  19
HETATM   19  O   UNL     1      43.598  -9.662  10.147  1.00  0.00    -0.322 OA
HETATM   20  C   UNL     1      44.987  -9.831  10.421  1.00  0.00     0.213 C 
ENDBRANCH  17  19
ENDBRANCH  11  17
ENDBRANCH   3   6
ENDBRANCH   1   2
BRANCH   1  21
HETATM   21  N   UNL     1      39.339  -9.847   6.974  1.00  0.00     0.100 N 
HETATM   22  C   UNL     1      40.652  -9.156   6.996  1.00  0.00     0.293 C 
HETATM   23  C   UNL     1      41.883 -10.082   7.084  1.00  0.00     0.156 C 
HETATM   24  N   UNL     1      41.843 -11.196   6.132  1.00  0.00    -0.344 N 
HETATM   25  C   UNL     1      43.067 -11.810   5.818  1.00  0.00     0.262 C 
HETATM   26  C   UNL     1      40.542 -11.852   5.959  1.00  0.00     0.156 C 
HETATM   27  O   UNL     1      44.133 -11.332   6.202  1.00  0.00    -0.267 OA
HETATM   28  C   UNL     1      39.368 -10.859   5.899  1.00  0.00     0.293 C 
BRANCH  25  29
HETATM   29  C   UNL     1      43.037 -13.000   4.997  1.00  0.00     0.096 A 
HETATM   30  S   UNL     1      43.201 -14.537   5.713  1.00  0.00    -0.082 SA
HETATM   31  C   UNL     1      43.110 -15.341   4.193  1.00  0.00     0.019 A 
HETATM   32  C   UNL     1      43.010 -14.430   3.136  1.00  0.00     0.004 A 
HETATM   33  C   UNL     1      43.139 -16.733   3.973  1.00  0.00     0.043 A 
HETATM   34  C   UNL     1      42.976 -13.076   3.624  1.00  0.00     0.068 A 
HETATM   35  C   UNL     1      42.959 -14.951   1.815  1.00  0.00     0.016 A 
HETATM   36 CL   UNL     1      42.849 -11.719   2.578  1.00  0.00    -0.082 Cl
HETATM   37  C   UNL     1      42.992 -16.332   1.591  1.00  0.00     0.025 A 
HETATM   38  C   UNL     1      43.076 -17.207   2.662  1.00  0.00     0.035 A 
HETATM   39 CL   UNL     1      43.103 -18.903   2.374  1.00  0.00    -0.084 Cl
ENDBRANCH  25  29
ENDBRANCH   1  21
TORSDOF 7
ENDMDL
MODEL 3
REMARK VINA RESULT:      -8.0      3.831     10.638
REMARK  7 active torsions:
REMARK  status: ('A' for Active; 'I' for Inactive)
REMARK    1  A    between atoms: C_3  and  C_4 
REMARK       I    between atoms: C_4  and  N_5 
REMARK    2  A    between atoms: C_8  and  N_9 
REMARK       I    between atoms: N_9  and  C_10 
REMARK    3  A    between atoms: C_10  and  C_11 
REMARK    4  A    between atoms: C_11  and  N_12 
REMARK       I    between atoms: N_15  and  C_16 
REMARK    5  A    between atoms: C_16  and  C_17 
REMARK    6  A    between atoms: C_32  and  C_33 
REMARK    7  A    between atoms: C_33  and  O_34 
ROOT
HETATM    1  C   UNL     1      39.400 -11.093   7.320  1.00  0.00     0.375 C 
ENDROOT
BRANCH   1   2
HETATM    2  C   UNL     1      39.400  -9.665   7.885  1.00  0.00     0.251 C 
HETATM    3  N   UNL     1      40.354  -9.496   8.873  1.00  0.00    -0.319 N 
HETATM    4  H   UNL     1      40.982 -10.277   9.028  1.00  0.00     0.169 HD
HETATM    5  O   UNL     1      38.696  -8.788   7.394  1.00  0.00    -0.271 OA
BRANCH   3   6
HETATM    6  C   UNL     1      40.710  -8.276   9.399  1.00  0.00     0.094 C 
HETATM    7  S   UNL     1      39.711  -7.843  10.698  1.00  0.00    -0.065 SA
HETATM    8  C   UNL     1      40.712  -6.519  11.129  1.00  0.00     0.081 C 
HETATM    9  C   UNL     1      41.711  -6.317  10.178  1.00  0.00    -0.020 C 
HETATM   10  C   UNL     1      42.698  -5.184  10.206  1.00  0.00     0.051 C 
HETATM   11  C   UNL     1      41.685  -7.338   9.131  1.00  0.00     0.080 C 
BRANCH   8  12
HETATM   12  C   UNL     1      40.454  -5.758  12.349  1.00  0.00     0.256 C 
HETATM   13  N   UNL     1      39.636  -4.667  12.240  1.00  0.00    -0.365 N 
HETATM   14  H   UNL     1      39.216  -4.396  11.364  1.00  0.00     0.159 HD
HETATM   15  H   UNL     1      39.437  -4.142  13.080  1.00  0.00     0.159 HD
HETATM   16  O   UNL     1      40.909  -6.031  13.457  1.00  0.00    -0.267 OA
ENDBRANCH   8  12
BRANCH  11  17
HETATM   17  C   UNL     1      42.552  -7.337   7.952  1.00  0.00     0.296 C 
HETATM   18  O   UNL     1      42.484  -6.492   7.066  1.00  0.00    -0.259 OA
BRANCH  17  19
HETATM   19  O   UNL     1      43.330  -8.461   7.884  1.00  0.00    -0.322 OA
HETATM   20  C   UNL     1      44.527  -8.378   8.654  1.00  0.00     0.213 C 
ENDBRANCH  17  19
ENDBRANCH  11  17
ENDBRANCH   3   6
ENDBRANCH   1   2
BRANCH   1  21
HETATM   21  N   UNL     1      39.210 -11.080   5.852  1.00  0.00     0.100 N 
HETATM   22  C   UNL     1      40.224 -10.224   5.186  1.00  0.00     0.293 C 
HETATM   23  C   UNL     1      41.664 -10.776   5.199  1.00  0.00     0.156 C 
HETATM   24  N   UNL     1      41.752 -12.182   4.793  1.00  0.00    -0.344 N 
HETATM   25  C   UNL     1      43.003 -12.638   4.344  1.00  0.00     0.262 C 
HETATM   26  C   UNL     1      40.707 -13.071   5.310  1.00  0.00     0.156 C 
HETATM   27  O   UNL     1      43.932 -11.855   4.151  1.00  0.00    -0.267 OA
HETATM   28  C   UNL     1      39.305 -12.437   5.278  1.00  0.00     0.293 C 
BRANCH  25  29
HETATM   29  C   UNL     1      43.153 -14.051   4.076  1.00  0.00     0.096 A 
HETATM   30  S   UNL     1      42.785 -14.673   2.534  1.00  0.00    -0.082 SA
HETATM   31  C   UNL     1      43.153 -16.287   3.012  1.00  0.00     0.019 A 
HETATM   32  C   UNL     1      43.503 -16.354   4.365  1.00  0.00     0.004 A 
HETATM   33  C   UNL     1      43.114 -17.436   2.197  1.00  0.00     0.043 A 
HETATM   34  C   UNL     1      43.489 -15.046   4.967  1.00  0.00     0.068 A 
HETATM   35  C   UNL     1      43.802 -17.632   4.908  1.00  0.00     0.016 A 
HETATM   36 CL   UNL     1      43.881 -14.785   6.619  1.00  0.00    -0.082 Cl
HETATM   37  C   UNL     1      43.760 -18.777   4.106  1.00  0.00     0.025 A 
HETATM   38  C   UNL     1      43.425 -18.672   2.765  1.00  0.00     0.035 A 
HETATM   39 CL   UNL     1      43.390 -20.086   1.784  1.00  0.00    -0.084 Cl
ENDBRANCH  25  29
ENDBRANCH   1  21
TORSDOF 7
ENDMDL
MODEL 4
REMARK VINA RESULT:      -8.0      5.282      9.321
REMARK  7 active torsions:
REMARK  status: ('A' for Active; 'I' for Inactive)
REMARK    1  A    between atoms: C_3  and  C_4 
REMARK       I    between atoms: C_4  and  N_5 
REMARK    2  A    between atoms: C_8  and  N_9 
REMARK       I    between atoms: N_9  and  C_10 
REMARK    3  A    between atoms: C_10  and  C_11 
REMARK    4  A    between atoms: C_11  and  N_12 
REMARK       I    between atoms: N_15  and  C_16 
REMARK    5  A    between atoms: C_16  and  C_17 
REMARK    6  A    between atoms: C_32  and  C_33 
REMARK    7  A    between atoms: C_33  and  O_34 
ROOT
HETATM    1  C   UNL     1      40.912 -10.340   3.277  1.00  0.00     0.375 C 
ENDROOT
BRANCH   1   2
HETATM    2  C   UNL     1      40.696 -10.573   1.775  1.00  0.00     0.251 C 
HETATM    3  N   UNL     1      39.752 -11.555   1.532  1.00  0.00    -0.319 N 
HETATM    4  H   UNL     1      39.262 -11.917   2.342  1.00  0.00     0.169 HD
HETATM    5  O   UNL     1      41.236  -9.857   0.938  1.00  0.00    -0.271 OA
BRANCH   3   6
HETATM    6  C   UNL     1      39.216 -11.817   0.292  1.00  0.00     0.094 C 
HETATM    7  S   UNL     1      39.964 -13.151  -0.440  1.00  0.00    -0.065 SA
HETATM    8  C   UNL     1      38.799 -13.215  -1.696  1.00  0.00     0.081 C 
HETATM    9  C   UNL     1      37.943 -12.117  -1.642  1.00  0.00    -0.020 C 
HETATM   10  C   UNL     1      36.871 -11.820  -2.652  1.00  0.00     0.051 C 
HETATM   11  C   UNL     1      38.217 -11.267  -0.483  1.00  0.00     0.080 C 
BRANCH   8  12
HETATM   12  C   UNL     1      38.802 -14.316  -2.657  1.00  0.00     0.256 C 
HETATM   13  N   UNL     1      38.677 -15.582  -2.152  1.00  0.00    -0.365 N 
HETATM   14  H   UNL     1      38.578 -15.759  -1.164  1.00  0.00     0.159 HD
HETATM   15  H   UNL     1      38.662 -16.350  -2.807  1.00  0.00     0.159 HD
HETATM   16  O   UNL     1      38.901 -14.186  -3.874  1.00  0.00    -0.267 OA
ENDBRANCH   8  12
BRANCH  11  17
HETATM   17  C   UNL     1      37.543  -9.997  -0.211  1.00  0.00     0.296 C 
HETATM   18  O   UNL     1      36.561  -9.897   0.518  1.00  0.00    -0.259 OA
BRANCH  17  19
HETATM   19  O   UNL     1      38.039  -8.975  -0.974  1.00  0.00    -0.322 OA
HETATM   20  C   UNL     1      38.637  -7.927  -0.214  1.00  0.00     0.213 C 
ENDBRANCH  17  19
ENDBRANCH  11  17
ENDBRANCH   3   6
ENDBRANCH   1   2
BRANCH   1  21
HETATM   21  N   UNL     1      42.345 -10.457   3.629  1.00  0.00     0.100 N 
HETATM   22  C   UNL     1      42.535 -10.542   5.098  1.00  0.00     0.293 C 
HETATM   23  C   UNL     1      42.059 -11.857   5.750  1.00  0.00     0.156 C 
HETATM   24  N   UNL     1      42.525 -13.056   5.047  1.00  0.00    -0.344 N 
HETATM   25  C   UNL     1      42.539 -14.257   5.776  1.00  0.00     0.262 C 
HETATM   26  C   UNL     1      42.489 -13.002   3.581  1.00  0.00     0.156 C 
HETATM   27  O   UNL     1      42.323 -14.266   6.987  1.00  0.00    -0.267 OA
HETATM   28  C   UNL     1      42.961 -11.651   3.015  1.00  0.00     0.293 C 
BRANCH  25  29
HETATM   29  C   UNL     1      42.854 -15.477   5.067  1.00  0.00     0.096 A 
HETATM   30  S   UNL     1      41.997 -15.891   3.654  1.00  0.00    -0.082 SA
HETATM   31  C   UNL     1      42.868 -17.365   3.464  1.00  0.00     0.019 A 
HETATM   32  C   UNL     1      43.774 -17.564   4.512  1.00  0.00     0.004 A 
HETATM   33  C   UNL     1      42.725 -18.298   2.417  1.00  0.00     0.043 A 
HETATM   34  C   UNL     1      43.745 -16.460   5.435  1.00  0.00     0.068 A 
HETATM   35  C   UNL     1      44.541 -18.759   4.504  1.00  0.00     0.016 A 
HETATM   36 CL   UNL     1      44.747 -16.395   6.829  1.00  0.00    -0.082 Cl
HETATM   37  C   UNL     1      44.400 -19.692   3.471  1.00  0.00     0.025 A 
HETATM   38  C   UNL     1      43.505 -19.454   2.439  1.00  0.00     0.035 A 
HETATM   39 CL   UNL     1      43.350 -20.603   1.167  1.00  0.00    -0.084 Cl
ENDBRANCH  25  29
ENDBRANCH   1  21
TORSDOF 7
ENDMDL
MODEL 5
REMARK VINA RESULT:      -7.9      3.005      5.133
REMARK  7 active torsions:
REMARK  status: ('A' for Active; 'I' for Inactive)
REMARK    1  A    between atoms: C_3  and  C_4 
REMARK       I    between atoms: C_4  and  N_5 
REMARK    2  A    between atoms: C_8  and  N_9 
REMARK       I    between atoms: N_9  and  C_10 
REMARK    3  A    between atoms: C_10  and  C_11 
REMARK    4  A    between atoms: C_11  and  N_12 
REMARK       I    between atoms: N_15  and  C_16 
REMARK    5  A    between atoms: C_16  and  C_17 
REMARK    6  A    between atoms: C_32  and  C_33 
REMARK    7  A    between atoms: C_33  and  O_34 
ROOT
HETATM    1  C   UNL     1      44.165 -10.833   8.772  1.00  0.00     0.375 C 
ENDROOT
BRANCH   1   2
HETATM    2  C   UNL     1      44.440 -11.621   7.483  1.00  0.00     0.251 C 
HETATM    3  N   UNL     1      43.425 -12.516   7.194  1.00  0.00    -0.319 N 
HETATM    4  H   UNL     1      42.606 -12.474   7.791  1.00  0.00     0.169 HD
HETATM    5  O   UNL     1      45.404 -11.358   6.771  1.00  0.00    -0.271 OA
BRANCH   3   6
HETATM    6  C   UNL     1      43.313 -13.195   6.003  1.00  0.00     0.094 C 
HETATM    7  S   UNL     1      43.516 -14.864   6.215  1.00  0.00    -0.065 SA
HETATM    8  C   UNL     1      43.006 -15.209   4.615  1.00  0.00     0.081 C 
HETATM    9  C   UNL     1      42.843 -14.038   3.878  1.00  0.00    -0.020 C 
HETATM   10  C   UNL     1      42.494 -13.991   2.417  1.00  0.00     0.051 C 
HETATM   11  C   UNL     1      43.063 -12.844   4.692  1.00  0.00     0.080 C 
BRANCH   8  12
HETATM   12  C   UNL     1      42.812 -16.590   4.179  1.00  0.00     0.256 C 
HETATM   13  N   UNL     1      43.836 -17.466   4.414  1.00  0.00    -0.365 N 
HETATM   14  H   UNL     1      44.688 -17.185   4.875  1.00  0.00     0.159 HD
HETATM   15  H   UNL     1      43.708 -18.427   4.131  1.00  0.00     0.159 HD
HETATM   16  O   UNL     1      41.801 -17.018   3.627  1.00  0.00    -0.267 OA
ENDBRANCH   8  12
BRANCH  11  17
HETATM   17  C   UNL     1      43.051 -11.474   4.175  1.00  0.00     0.296 C 
HETATM   18  O   UNL     1      43.866 -11.054   3.361  1.00  0.00    -0.259 OA
BRANCH  17  19
HETATM   19  O   UNL     1      42.130 -10.690   4.814  1.00  0.00    -0.322 OA
HETATM   20  C   UNL     1      41.633  -9.619   4.013  1.00  0.00     0.213 C 
ENDBRANCH  17  19
ENDBRANCH  11  17
ENDBRANCH   3   6
ENDBRANCH   1   2
BRANCH   1  21
HETATM   21  N   UNL     1      44.039  -9.385   8.488  1.00  0.00     0.100 N 
HETATM   22  C   UNL     1      42.728  -9.070   7.869  1.00  0.00     0.293 C 
HETATM   23  C   UNL     1      41.508  -9.199   8.806  1.00  0.00     0.156 C 
HETATM   24  N   UNL     1      41.699  -8.541  10.102  1.00  0.00    -0.344 N 
HETATM   25  C   UNL     1      40.540  -8.212  10.825  1.00  0.00     0.262 C 
HETATM   26  C   UNL     1      43.019  -8.701  10.722  1.00  0.00     0.156 C 
HETATM   27  O   UNL     1      39.423  -8.327  10.322  1.00  0.00    -0.267 OA
HETATM   28  C   UNL     1      44.176  -8.576   9.716  1.00  0.00     0.293 C 
BRANCH  25  29
HETATM   29  C   UNL     1      40.702  -7.697  12.167  1.00  0.00     0.096 A 
HETATM   30  S   UNL     1      41.084  -6.056  12.412  1.00  0.00    -0.082 SA
HETATM   31  C   UNL     1      41.138  -6.243  14.123  1.00  0.00     0.019 A 
HETATM   32  C   UNL     1      40.919  -7.573  14.501  1.00  0.00     0.004 A 
HETATM   33  C   UNL     1      41.379  -5.231  15.074  1.00  0.00     0.043 A 
HETATM   34  C   UNL     1      40.675  -8.402  13.349  1.00  0.00     0.068 A 
HETATM   35  C   UNL     1      40.967  -7.883  15.886  1.00  0.00     0.016 A 
HETATM   36 CL   UNL     1      40.361 -10.086  13.474  1.00  0.00    -0.082 Cl
HETATM   37  C   UNL     1      41.211  -6.884  16.834  1.00  0.00     0.025 A 
HETATM   38  C   UNL     1      41.408  -5.574  16.426  1.00  0.00     0.035 A 
HETATM   39 CL   UNL     1      41.695  -4.351  17.603  1.00  0.00    -0.084 Cl
ENDBRANCH  25  29
ENDBRANCH   1  21
TORSDOF 7
ENDMDL
MODEL 6
REMARK VINA RESULT:      -7.9      3.730      5.289
REMARK  7 active torsions:
REMARK  status: ('A' for Active; 'I' for Inactive)
REMARK    1  A    between atoms: C_3  and  C_4 
REMARK       I    between atoms: C_4  and  N_5 
REMARK    2  A    between atoms: C_8  and  N_9 
REMARK       I    between atoms: N_9  and  C_10 
REMARK    3  A    between atoms: C_10  and  C_11 
REMARK    4  A    between atoms: C_11  and  N_12 
REMARK       I    between atoms: N_15  and  C_16 
REMARK    5  A    between atoms: C_16  and  C_17 
REMARK    6  A    between atoms: C_32  and  C_33 
REMARK    7  A    between atoms: C_33  and  O_34 
ROOT
HETATM    1  C   UNL     1      42.239 -10.266   4.443  1.00  0.00     0.375 C 
ENDROOT
BRANCH   1   2
HETATM    2  C   UNL     1      41.401 -10.433   3.168  1.00  0.00     0.251 C 
HETATM    3  N   UNL     1      41.926 -11.393   2.322  1.00  0.00    -0.319 N 
HETATM    4  H   UNL     1      42.714 -11.922   2.679  1.00  0.00     0.169 HD
HETATM    5  O   UNL     1      40.334  -9.842   3.027  1.00  0.00    -0.271 OA
BRANCH   3   6
HETATM    6  C   UNL     1      41.271 -11.888   1.218  1.00  0.00     0.094 C 
HETATM    7  S   UNL     1      41.520 -10.912  -0.145  1.00  0.00    -0.065 SA
HETATM    8  C   UNL     1      40.810 -12.063  -1.197  1.00  0.00     0.081 C 
HETATM    9  C   UNL     1      40.238 -13.112  -0.480  1.00  0.00    -0.020 C 
HETATM   10  C   UNL     1      39.454 -14.238  -1.093  1.00  0.00     0.051 C 
HETATM   11  C   UNL     1      40.479 -12.987   0.957  1.00  0.00     0.080 C 
BRANCH   8  12
HETATM   12  C   UNL     1      40.842 -11.866  -2.645  1.00  0.00     0.256 C 
HETATM   13  N   UNL     1      41.672 -12.680  -3.365  1.00  0.00    -0.365 N 
HETATM   14  H   UNL     1      42.235 -13.395  -2.929  1.00  0.00     0.159 HD
HETATM   15  H   UNL     1      41.691 -12.564  -4.368  1.00  0.00     0.159 HD
HETATM   16  O   UNL     1      40.177 -11.033  -3.255  1.00  0.00    -0.267 OA
ENDBRANCH   8  12
BRANCH  11  17
HETATM   17  C   UNL     1      39.926 -13.887   1.971  1.00  0.00     0.296 C 
HETATM   18  O   UNL     1      39.082 -13.541   2.791  1.00  0.00    -0.259 OA
BRANCH  17  19
HETATM   19  O   UNL     1      40.565 -15.097   1.991  1.00  0.00    -0.322 OA
HETATM   20  C   UNL     1      40.460 -15.782   3.237  1.00  0.00     0.213 C 
ENDBRANCH  17  19
ENDBRANCH  11  17
ENDBRANCH   3   6
ENDBRANCH   1   2
BRANCH   1  21
HETATM   21  N   UNL     1      42.108 -11.452   5.320  1.00  0.00     0.100 N 
HETATM   22  C   UNL     1      43.425 -12.093   5.559  1.00  0.00     0.293 C 
HETATM   23  C   UNL     1      44.397 -11.291   6.448  1.00  0.00     0.156 C 
HETATM   24  N   UNL     1      43.779 -10.787   7.678  1.00  0.00    -0.344 N 
HETATM   25  C   UNL     1      44.643 -10.453   8.735  1.00  0.00     0.262 C 
HETATM   26  C   UNL     1      42.420 -10.251   7.547  1.00  0.00     0.156 C 
HETATM   27  O   UNL     1      45.842 -10.722   8.683  1.00  0.00    -0.267 OA
HETATM   28  C   UNL     1      41.522 -11.100   6.629  1.00  0.00     0.293 C 
BRANCH  25  29
HETATM   29  C   UNL     1      44.072  -9.819   9.902  1.00  0.00     0.096 A 
HETATM   30  S   UNL     1      43.624 -10.756  11.252  1.00  0.00    -0.082 SA
HETATM   31  C   UNL     1      43.045  -9.381  12.113  1.00  0.00     0.019 A 
HETATM   32  C   UNL     1      43.144  -8.216  11.344  1.00  0.00     0.004 A 
HETATM   33  C   UNL     1      42.517  -9.367  13.420  1.00  0.00     0.043 A 
HETATM   34  C   UNL     1      43.735  -8.493  10.061  1.00  0.00     0.068 A 
HETATM   35  C   UNL     1      42.671  -7.005  11.916  1.00  0.00     0.016 A 
HETATM   36 CL   UNL     1      44.004  -7.271   8.884  1.00  0.00    -0.082 Cl
HETATM   37  C   UNL     1      42.141  -6.985  13.211  1.00  0.00     0.025 A 
HETATM   38  C   UNL     1      42.074  -8.155  13.950  1.00  0.00     0.035 A 
HETATM   39 CL   UNL     1      41.431  -8.116  15.547  1.00  0.00    -0.084 Cl
ENDBRANCH  25  29
ENDBRANCH   1  21
TORSDOF 7
ENDMDL
MODEL 7
REMARK VINA RESULT:      -7.9      2.355      3.367
REMARK  7 active torsions:
REMARK  status: ('A' for Active; 'I' for Inactive)
REMARK    1  A    between atoms: C_3  and  C_4 
REMARK       I    between atoms: C_4  and  N_5 
REMARK    2  A    between atoms: C_8  and  N_9 
REMARK       I    between atoms: N_9  and  C_10 
REMARK    3  A    between atoms: C_10  and  C_11 
REMARK    4  A    between atoms: C_11  and  N_12 
REMARK       I    between atoms: N_15  and  C_16 
REMARK    5  A    between atoms: C_16  and  C_17 
REMARK    6  A    between atoms: C_32  and  C_33 
REMARK    7  A    between atoms: C_33  and  O_34 
ROOT
HETATM    1  C   UNL     1      41.892 -11.476   6.173  1.00  0.00     0.375 C 
ENDROOT
BRANCH   1   2
HETATM    2  C   UNL     1      42.731 -12.567   5.492  1.00  0.00     0.251 C 
HETATM    3  N   UNL     1      42.180 -13.825   5.655  1.00  0.00    -0.319 N 
HETATM    4  H   UNL     1      41.270 -13.862   6.101  1.00  0.00     0.169 HD
HETATM    5  O   UNL     1      43.701 -12.280   4.797  1.00  0.00    -0.271 OA
BRANCH   3   6
HETATM    6  C   UNL     1      42.607 -14.946   4.981  1.00  0.00     0.094 C 
HETATM    7  S   UNL     1      43.431 -16.014   6.008  1.00  0.00    -0.065 SA
HETATM    8  C   UNL     1      43.452 -17.257   4.827  1.00  0.00     0.081 C 
HETATM    9  C   UNL     1      42.978 -16.792   3.602  1.00  0.00    -0.020 C 
HETATM   10  C   UNL     1      42.952 -17.600   2.335  1.00  0.00     0.051 C 
HETATM   11  C   UNL     1      42.512 -15.408   3.685  1.00  0.00     0.080 C 
BRANCH   8  12
HETATM   12  C   UNL     1      43.940 -18.592   5.164  1.00  0.00     0.256 C 
HETATM   13  N   UNL     1      43.447 -19.166   6.304  1.00  0.00    -0.365 N 
HETATM   14  H   UNL     1      42.769 -18.700   6.889  1.00  0.00     0.159 HD
HETATM   15  H   UNL     1      43.764 -20.095   6.538  1.00  0.00     0.159 HD
HETATM   16  O   UNL     1      44.748 -19.234   4.497  1.00  0.00    -0.267 OA
ENDBRANCH   8  12
BRANCH  11  17
HETATM   17  C   UNL     1      42.044 -14.622   2.543  1.00  0.00     0.296 C 
HETATM   18  O   UNL     1      42.787 -14.212   1.656  1.00  0.00    -0.259 OA
BRANCH  17  19
HETATM   19  O   UNL     1      40.726 -14.274   2.661  1.00  0.00    -0.322 OA
HETATM   20  C   UNL     1      39.823 -15.305   2.269  1.00  0.00     0.213 C 
ENDBRANCH  17  19
ENDBRANCH  11  17
ENDBRANCH   3   6
ENDBRANCH   1   2
BRANCH   1  21
HETATM   21  N   UNL     1      42.602 -10.177   6.159  1.00  0.00     0.100 N 
HETATM   22  C   UNL     1      41.703  -9.075   5.734  1.00  0.00     0.293 C 
HETATM   23  C   UNL     1      40.604  -8.693   6.747  1.00  0.00     0.156 C 
HETATM   24  N   UNL     1      41.107  -8.522   8.114  1.00  0.00    -0.344 N 
HETATM   25  C   UNL     1      40.318  -7.760   8.992  1.00  0.00     0.262 C 
HETATM   26  C   UNL     1      42.101  -9.502   8.565  1.00  0.00     0.156 C 
HETATM   27  O   UNL     1      39.338  -7.137   8.586  1.00  0.00    -0.267 OA
HETATM   28  C   UNL     1      43.147  -9.840   7.489  1.00  0.00     0.293 C 
BRANCH  25  29
HETATM   29  C   UNL     1      40.717  -7.697  10.380  1.00  0.00     0.096 A 
HETATM   30  S   UNL     1      39.714  -8.356  11.589  1.00  0.00    -0.082 SA
HETATM   31  C   UNL     1      40.787  -7.879  12.849  1.00  0.00     0.019 A 
HETATM   32  C   UNL     1      41.884  -7.168  12.347  1.00  0.00     0.004 A 
HETATM   33  C   UNL     1      40.633  -8.131  14.227  1.00  0.00     0.043 A 
HETATM   34  C   UNL     1      41.820  -7.068  10.912  1.00  0.00     0.068 A 
HETATM   35  C   UNL     1      42.839  -6.682  13.279  1.00  0.00     0.016 A 
HETATM   36 CL   UNL     1      43.023  -6.261   9.989  1.00  0.00    -0.082 Cl
HETATM   37  C   UNL     1      42.689  -6.925  14.649  1.00  0.00     0.025 A 
HETATM   38  C   UNL     1      41.599  -7.647  15.110  1.00  0.00     0.035 A 
HETATM   39 CL   UNL     1      41.431  -7.949  16.796  1.00  0.00    -0.084 Cl
ENDBRANCH  25  29
ENDBRANCH   1  21
TORSDOF 7
ENDMDL
MODEL 8
REMARK VINA RESULT:      -7.8      2.904      4.399
REMARK  7 active torsions:
REMARK  status: ('A' for Active; 'I' for Inactive)
REMARK    1  A    between atoms: C_3  and  C_4 
REMARK       I    between atoms: C_4  and  N_5 
REMARK    2  A    between atoms: C_8  and  N_9 
REMARK       I    between atoms: N_9  and  C_10 
REMARK    3  A    between atoms: C_10  and  C_11 
REMARK    4  A    between atoms: C_11  and  N_12 
REMARK       I    between atoms: N_15  and  C_16 
REMARK    5  A    between atoms: C_16  and  C_17 
REMARK    6  A    between atoms: C_32  and  C_33 
REMARK    7  A    between atoms: C_33  and  O_34 
ROOT
HETATM    1  C   UNL     1      44.138 -11.381   7.828  1.00  0.00     0.375 C 
ENDROOT
BRANCH   1   2
HETATM    2  C   UNL     1      43.816 -12.188   6.562  1.00  0.00     0.251 C 
HETATM    3  N   UNL     1      42.791 -13.093   6.769  1.00  0.00    -0.319 N 
HETATM    4  H   UNL     1      42.325 -13.046   7.669  1.00  0.00     0.169 HD
HETATM    5  O   UNL     1      44.356 -11.929   5.491  1.00  0.00    -0.271 OA
BRANCH   3   6
HETATM    6  C   UNL     1      42.165 -13.791   5.762  1.00  0.00     0.094 C 
HETATM    7  S   UNL     1      41.073 -12.813   4.911  1.00  0.00    -0.065 SA
HETATM    8  C   UNL     1      40.844 -13.994   3.690  1.00  0.00     0.081 C 
HETATM    9  C   UNL     1      41.474 -15.190   4.026  1.00  0.00    -0.020 C 
HETATM   10  C   UNL     1      41.390 -16.455   3.218  1.00  0.00     0.051 C 
HETATM   11  C   UNL     1      42.227 -15.080   5.275  1.00  0.00     0.080 C 
BRANCH   8  12
HETATM   12  C   UNL     1      40.058 -13.686   2.497  1.00  0.00     0.256 C 
HETATM   13  N   UNL     1      38.699 -13.627   2.646  1.00  0.00    -0.365 N 
HETATM   14  H   UNL     1      38.249 -13.779   3.536  1.00  0.00     0.159 HD
HETATM   15  H   UNL     1      38.146 -13.400   1.832  1.00  0.00     0.159 HD
HETATM   16  O   UNL     1      40.527 -13.471   1.383  1.00  0.00    -0.267 OA
ENDBRANCH   8  12
BRANCH  11  17
HETATM   17  C   UNL     1      42.916 -16.194   5.927  1.00  0.00     0.296 C 
HETATM   18  O   UNL     1      42.502 -16.741   6.944  1.00  0.00    -0.259 OA
BRANCH  17  19
HETATM   19  O   UNL     1      44.137 -16.448   5.362  1.00  0.00    -0.322 OA
HETATM   20  C   UNL     1      44.325 -17.810   4.988  1.00  0.00     0.213 C 
ENDBRANCH  17  19
ENDBRANCH  11  17
ENDBRANCH   3   6
ENDBRANCH   1   2
BRANCH   1  21
HETATM   21  N   UNL     1      43.956  -9.931   7.591  1.00  0.00     0.100 N 
HETATM   22  C   UNL     1      42.595  -9.635   7.079  1.00  0.00     0.293 C 
HETATM   23  C   UNL     1      41.453  -9.816   8.100  1.00  0.00     0.156 C 
HETATM   24  N   UNL     1      41.724  -9.183   9.395  1.00  0.00    -0.344 N 
HETATM   25  C   UNL     1      40.615  -8.901  10.210  1.00  0.00     0.262 C 
HETATM   26  C   UNL     1      43.090  -9.323   9.910  1.00  0.00     0.156 C 
HETATM   27  O   UNL     1      39.467  -9.033   9.788  1.00  0.00    -0.267 OA
HETATM   28  C   UNL     1      44.166  -9.146   8.824  1.00  0.00     0.293 C 
BRANCH  25  29
HETATM   29  C   UNL     1      40.865  -8.412  11.548  1.00  0.00     0.096 A 
HETATM   30  S   UNL     1      40.836  -9.485  12.870  1.00  0.00    -0.082 SA
HETATM   31  C   UNL     1      41.157  -8.225  14.000  1.00  0.00     0.019 A 
HETATM   32  C   UNL     1      41.231  -6.978  13.370  1.00  0.00     0.004 A 
HETATM   33  C   UNL     1      41.324  -8.365  15.393  1.00  0.00     0.043 A 
HETATM   34  C   UNL     1      41.051  -7.108  11.947  1.00  0.00     0.068 A 
HETATM   35  C   UNL     1      41.460  -5.838  14.186  1.00  0.00     0.016 A 
HETATM   36 CL   UNL     1      41.095  -5.759  10.884  1.00  0.00    -0.082 Cl
HETATM   37  C   UNL     1      41.620  -5.970  15.569  1.00  0.00     0.025 A 
HETATM   38  C   UNL     1      41.558  -7.223  16.158  1.00  0.00     0.035 A 
HETATM   39 CL   UNL     1      41.769  -7.374  17.860  1.00  0.00    -0.084 Cl
ENDBRANCH  25  29
ENDBRANCH   1  21
TORSDOF 7
ENDMDL
MODEL 9
REMARK VINA RESULT:      -7.8      4.829     11.633
REMARK  7 active torsions:
REMARK  status: ('A' for Active; 'I' for Inactive)
REMARK    1  A    between atoms: C_3  and  C_4 
REMARK       I    between atoms: C_4  and  N_5 
REMARK    2  A    between atoms: C_8  and  N_9 
REMARK       I    between atoms: N_9  and  C_10 
REMARK    3  A    between atoms: C_10  and  C_11 
REMARK    4  A    between atoms: C_11  and  N_12 
REMARK       I    between atoms: N_15  and  C_16 
REMARK    5  A    between atoms: C_16  and  C_17 
REMARK    6  A    between atoms: C_32  and  C_33 
REMARK    7  A    between atoms: C_33  and  O_34 
ROOT
HETATM    1  C   UNL     1      42.398  -9.091   9.967  1.00  0.00     0.375 C 
ENDROOT
BRANCH   1   2
HETATM    2  C   UNL     1      41.948  -8.112  11.061  1.00  0.00     0.251 C 
HETATM    3  N   UNL     1      41.063  -8.695  11.949  1.00  0.00    -0.319 N 
HETATM    4  H   UNL     1      40.902  -9.690  11.835  1.00  0.00     0.169 HD
HETATM    5  O   UNL     1      42.444  -6.993  11.155  1.00  0.00    -0.271 OA
BRANCH   3   6
HETATM    6  C   UNL     1      40.666  -8.117  13.133  1.00  0.00     0.094 C 
HETATM    7  S   UNL     1      41.626  -8.633  14.431  1.00  0.00    -0.065 SA
HETATM    8  C   UNL     1      40.957  -7.465  15.493  1.00  0.00     0.081 C 
HETATM    9  C   UNL     1      39.889  -6.799  14.896  1.00  0.00    -0.020 C 
HETATM   10  C   UNL     1      39.024  -5.782  15.586  1.00  0.00     0.051 C 
HETATM   11  C   UNL     1      39.693  -7.214  13.507  1.00  0.00     0.080 C 
BRANCH   8  12
HETATM   12  C   UNL     1      41.503  -7.283  16.836  1.00  0.00     0.256 C 
HETATM   13  N   UNL     1      42.525  -6.385  16.975  1.00  0.00    -0.365 N 
HETATM   14  H   UNL     1      42.889  -5.859  16.195  1.00  0.00     0.159 HD
HETATM   15  H   UNL     1      42.901  -6.238  17.902  1.00  0.00     0.159 HD
HETATM   16  O   UNL     1      41.108  -7.869  17.841  1.00  0.00    -0.267 OA
ENDBRANCH   8  12
BRANCH  11  17
HETATM   17  C   UNL     1      38.595  -6.757  12.653  1.00  0.00     0.296 C 
HETATM   18  O   UNL     1      37.415  -7.006  12.880  1.00  0.00    -0.259 OA
BRANCH  17  19
HETATM   19  O   UNL     1      39.047  -6.159  11.509  1.00  0.00    -0.322 OA
HETATM   20  C   UNL     1      39.462  -4.807  11.692  1.00  0.00     0.213 C 
ENDBRANCH  17  19
ENDBRANCH  11  17
ENDBRANCH   3   6
ENDBRANCH   1   2
BRANCH   1  21
HETATM   21  N   UNL     1      42.701  -8.373   8.708  1.00  0.00     0.100 N 
HETATM   22  C   UNL     1      44.160  -8.362   8.433  1.00  0.00     0.293 C 
HETATM   23  C   UNL     1      44.767  -9.724   8.039  1.00  0.00     0.156 C 
HETATM   24  N   UNL     1      43.999 -10.427   7.007  1.00  0.00    -0.344 N 
HETATM   25  C   UNL     1      44.674 -11.417   6.274  1.00  0.00     0.262 C 
HETATM   26  C   UNL     1      42.539 -10.376   7.140  1.00  0.00     0.156 C 
HETATM   27  O   UNL     1      45.890 -11.571   6.386  1.00  0.00    -0.267 OA
HETATM   28  C   UNL     1      42.018  -8.988   7.552  1.00  0.00     0.293 C 
BRANCH  25  29
HETATM   29  C   UNL     1      43.903 -12.224   5.354  1.00  0.00     0.096 A 
HETATM   30  S   UNL     1      43.634 -11.683   3.762  1.00  0.00    -0.082 SA
HETATM   31  C   UNL     1      42.686 -13.066   3.369  1.00  0.00     0.019 A 
HETATM   32  C   UNL     1      42.531 -13.912   4.473  1.00  0.00     0.004 A 
HETATM   33  C   UNL     1      42.104 -13.361   2.119  1.00  0.00     0.043 A 
HETATM   34  C   UNL     1      43.239 -13.400   5.618  1.00  0.00     0.068 A 
HETATM   35  C   UNL     1      41.742 -15.081   4.304  1.00  0.00     0.016 A 
HETATM   36 CL   UNL     1      43.254 -14.211   7.132  1.00  0.00    -0.082 Cl
HETATM   37  C   UNL     1      41.157 -15.377   3.068  1.00  0.00     0.025 A 
HETATM   38  C   UNL     1      41.346 -14.525   1.991  1.00  0.00     0.035 A 
HETATM   39 CL   UNL     1      40.632 -14.906   0.472  1.00  0.00    -0.084 Cl
ENDBRANCH  25  29
ENDBRANCH   1  21
TORSDOF 7
ENDMDL
MODEL 10
REMARK VINA RESULT:      -7.7     17.653     20.547
REMARK  7 active torsions:
REMARK  status: ('A' for Active; 'I' for Inactive)
REMARK    1  A    between atoms: C_3  and  C_4 
REMARK       I    between atoms: C_4  and  N_5 
REMARK    2  A    between atoms: C_8  and  N_9 
REMARK       I    between atoms: N_9  and  C_10 
REMARK    3  A    between atoms: C_10  and  C_11 
REMARK    4  A    between atoms: C_11  and  N_12 
REMARK       I    between atoms: N_15  and  C_16 
REMARK    5  A    between atoms: C_16  and  C_17 
REMARK    6  A    between atoms: C_32  and  C_33 
REMARK    7  A    between atoms: C_33  and  O_34 
ROOT
HETATM    1  C   UNL     1      43.327 -31.458   3.149  1.00  0.00     0.375 C 
ENDROOT
BRANCH   1   2
HETATM    2  C   UNL     1      41.982 -31.371   3.886  1.00  0.00     0.251 C 
HETATM    3  N   UNL     1      41.336 -32.593   3.936  1.00  0.00    -0.319 N 
HETATM    4  H   UNL     1      41.854 -33.390   3.583  1.00  0.00     0.169 HD
HETATM    5  O   UNL     1      41.632 -30.337   4.447  1.00  0.00    -0.271 OA
BRANCH   3   6
HETATM    6  C   UNL     1      40.225 -32.845   4.708  1.00  0.00     0.094 C 
HETATM    7  S   UNL     1      38.805 -32.824   3.781  1.00  0.00    -0.065 SA
HETATM    8  C   UNL     1      37.863 -33.454   5.066  1.00  0.00     0.081 C 
HETATM    9  C   UNL     1      38.603 -33.520   6.245  1.00  0.00    -0.020 C 
HETATM   10  C   UNL     1      38.050 -33.937   7.578  1.00  0.00     0.051 C 
HETATM   11  C   UNL     1      39.995 -33.121   6.039  1.00  0.00     0.080 C 
BRANCH   8  12
HETATM   12  C   UNL     1      36.467 -33.828   4.850  1.00  0.00     0.256 C 
HETATM   13  N   UNL     1      35.612 -32.836   4.454  1.00  0.00    -0.365 N 
HETATM   14  H   UNL     1      35.921 -31.887   4.305  1.00  0.00     0.159 HD
HETATM   15  H   UNL     1      34.647 -33.085   4.286  1.00  0.00     0.159 HD
HETATM   16  O   UNL     1      36.013 -34.960   4.991  1.00  0.00    -0.267 OA
ENDBRANCH   8  12
BRANCH  11  17
HETATM   17  C   UNL     1      40.989 -33.003   7.107  1.00  0.00     0.296 C 
HETATM   18  O   UNL     1      41.481 -33.969   7.681  1.00  0.00    -0.259 OA
BRANCH  17  19
HETATM   19  O   UNL     1      41.187 -31.703   7.486  1.00  0.00    -0.322 OA
HETATM   20  C   UNL     1      42.526 -31.418   7.884  1.00  0.00     0.213 C 
ENDBRANCH  17  19
ENDBRANCH  11  17
ENDBRANCH   3   6
ENDBRANCH   1   2
BRANCH   1  21
HETATM   21  N   UNL     1      43.269 -30.738   1.857  1.00  0.00     0.100 N 
HETATM   22  C   UNL     1      43.462 -29.279   2.045  1.00  0.00     0.293 C 
HETATM   23  C   UNL     1      44.887 -28.849   2.452  1.00  0.00     0.156 C 
HETATM   24  N   UNL     1      45.936 -29.460   1.631  1.00  0.00    -0.344 N 
HETATM   25  C   UNL     1      47.185 -28.818   1.611  1.00  0.00     0.262 C 
HETATM   26  C   UNL     1      45.751 -30.876   1.294  1.00  0.00     0.156 C 
HETATM   27  O   UNL     1      47.338 -27.712   2.129  1.00  0.00    -0.267 OA
HETATM   28  C   UNL     1      44.300 -31.223   0.917  1.00  0.00     0.293 C 
BRANCH  25  29
HETATM   29  C   UNL     1      48.276 -29.477   0.928  1.00  0.00     0.096 A 
HETATM   30  S   UNL     1      49.353 -30.471   1.795  1.00  0.00    -0.082 SA
HETATM   31  C   UNL     1      50.294 -30.809   0.393  1.00  0.00     0.019 A 
HETATM   32  C   UNL     1      49.815 -30.117  -0.725  1.00  0.00     0.004 A 
HETATM   33  C   UNL     1      51.419 -31.655   0.318  1.00  0.00     0.043 A 
HETATM   34  C   UNL     1      48.647 -29.344  -0.391  1.00  0.00     0.068 A 
HETATM   35  C   UNL     1      50.515 -30.276  -1.951  1.00  0.00     0.016 A 
HETATM   36 CL   UNL     1      47.813 -28.385  -1.547  1.00  0.00    -0.082 Cl
HETATM   37  C   UNL     1      51.636 -31.109  -2.031  1.00  0.00     0.025 A 
HETATM   38  C   UNL     1      52.073 -31.793  -0.907  1.00  0.00     0.035 A 
HETATM   39 CL   UNL     1      53.445 -32.826  -1.021  1.00  0.00    -0.084 Cl
ENDBRANCH  25  29
ENDBRANCH   1  21
TORSDOF 7
ENDMDL
