MODEL 1
REMARK VINA RESULT:      -9.6      0.000      0.000
REMARK  4 active torsions:
REMARK  status: ('A' for Active; 'I' for Inactive)
REMARK    1  A    between atoms: N_4  and  C_5 
REMARK    2  A    between atoms: C_16  and  N_17 
REMARK       I    between atoms: N_17  and  C_18 
REMARK    3  A    between atoms: C_18  and  C_19 
REMARK       I    between atoms: C_19  and  N_20 
REMARK    4  A    between atoms: N_20  and  C_21 
ROOT
HETATM    1  N   UNL     1      40.731 -11.820   2.917  1.00  0.00    -0.303 N 
HETATM    2  C   UNL     1      41.724 -10.866   2.787  1.00  0.00     0.315 C 
HETATM    3  O   UNL     1      42.482 -10.697   1.839  1.00  0.00    -0.262 OA
HETATM    4  H   UNL     1      39.984 -11.602   3.572  1.00  0.00     0.171 HD
ENDROOT
BRANCH   1   5
HETATM    5  C   UNL     1      40.583 -12.830   1.986  1.00  0.00     0.152 C 
HETATM    6  N   UNL     1      41.267 -14.045   1.966  1.00  0.00    -0.045 N 
HETATM    7  N   UNL     1      41.041 -14.716   0.787  1.00  0.00    -0.156 NA
HETATM    8  C   UNL     1      40.047 -14.036   0.205  1.00  0.00     0.055 C 
HETATM    9  C   UNL     1      39.471 -14.501  -1.082  1.00  0.00     0.072 C 
HETATM   10  C   UNL     1      39.692 -12.882   0.938  1.00  0.00     0.079 C 
BRANCH   6  11
HETATM   11  C   UNL     1      41.944 -14.722   3.006  1.00  0.00     0.732 A 
HETATM   12  N   UNL     1      41.954 -14.343   4.245  1.00  0.00    -0.067 NA
HETATM   13  C   UNL     1      42.640 -15.143   5.130  1.00  0.00     0.065 A 
HETATM   14  C   UNL     1      43.238 -16.302   4.796  1.00  0.00     0.036 A 
HETATM   15  C   UNL     1      42.666 -14.635   6.554  1.00  0.00     0.060 C 
HETATM   16  C   UNL     1      43.985 -17.180   5.755  1.00  0.00     0.046 C 
HETATM   17  C   UNL     1      43.158 -16.738   3.381  1.00  0.00     0.268 A 
HETATM   18  C   UNL     1      44.291 -16.484   7.083  1.00  0.00     0.005 C 
HETATM   19  C   UNL     1      43.088 -15.690   7.578  1.00  0.00     0.006 C 
HETATM   20  O   UNL     1      43.615 -17.811   3.000  1.00  0.00    -0.267 OA
HETATM   21  N   UNL     1      42.532 -15.869   2.545  1.00  0.00    -0.152 N 
HETATM   22  H   UNL     1      42.413 -16.120   1.569  1.00  0.00     0.188 HD
ENDBRANCH   6  11
ENDBRANCH   1   5
BRANCH   2  23
HETATM   23  C   UNL     1      41.772  -9.884   3.975  1.00  0.00     0.310 C 
HETATM   24  N   UNL     1      42.390 -10.411   5.086  1.00  0.00    -0.348 N 
HETATM   25  H   UNL     1      42.660 -11.387   4.982  1.00  0.00     0.163 HD
HETATM   26  O   UNL     1      41.273  -8.775   3.862  1.00  0.00    -0.262 OA
BRANCH  24  27
HETATM   27  C   UNL     1      42.301  -9.842   6.430  1.00  0.00     0.084 C 
HETATM   28  C   UNL     1      40.810  -9.840   6.852  1.00  0.00     0.025 C 
HETATM   29  C   UNL     1      40.502  -8.936   8.054  1.00  0.00     0.002 C 
HETATM   30  C   UNL     1      40.115  -9.725   9.312  1.00  0.00     0.000 C 
HETATM   31  C   UNL     1      40.261  -8.905  10.604  1.00  0.00     0.000 C 
HETATM   32  C   UNL     1      41.500  -9.304  11.421  1.00  0.00     0.000 C 
HETATM   33  C   UNL     1      42.821  -8.952  10.735  1.00  0.00     0.000 C 
HETATM   34  C   UNL     1      43.944  -9.913  11.120  1.00  0.00     0.000 C 
HETATM   35  C   UNL     1      45.225  -9.706  10.304  1.00  0.00     0.000 C 
HETATM   36  C   UNL     1      45.270 -10.447   8.956  1.00  0.00     0.000 C 
HETATM   37  C   UNL     1      44.465  -9.799   7.819  1.00  0.00     0.002 C 
HETATM   38  C   UNL     1      43.203 -10.595   7.442  1.00  0.00     0.025 C 
ENDBRANCH  24  27
ENDBRANCH   2  23
TORSDOF 4
ENDMDL
MODEL 2
REMARK VINA RESULT:      -9.6      3.065      8.320
REMARK  4 active torsions:
REMARK  status: ('A' for Active; 'I' for Inactive)
REMARK    1  A    between atoms: N_4  and  C_5 
REMARK    2  A    between atoms: C_16  and  N_17 
REMARK       I    between atoms: N_17  and  C_18 
REMARK    3  A    between atoms: C_18  and  C_19 
REMARK       I    between atoms: C_19  and  N_20 
REMARK    4  A    between atoms: N_20  and  C_21 
ROOT
HETATM    1  N   UNL     1      39.740  -9.541   5.871  1.00  0.00    -0.303 N 
HETATM    2  C   UNL     1      39.225 -10.814   6.030  1.00  0.00     0.315 C 
HETATM    3  O   UNL     1      38.202 -11.140   6.621  1.00  0.00    -0.262 OA
HETATM    4  H   UNL     1      40.365  -9.405   5.080  1.00  0.00     0.171 HD
ENDROOT
BRANCH   1   5
HETATM    5  C   UNL     1      39.188  -8.458   6.528  1.00  0.00     0.152 C 
HETATM    6  N   UNL     1      39.231  -8.211   7.900  1.00  0.00    -0.045 N 
HETATM    7  N   UNL     1      38.397  -7.171   8.239  1.00  0.00    -0.156 NA
HETATM    8  C   UNL     1      38.040  -6.638   7.064  1.00  0.00     0.055 C 
HETATM    9  C   UNL     1      37.178  -5.431   7.017  1.00  0.00     0.072 C 
HETATM   10  C   UNL     1      38.550  -7.373   5.971  1.00  0.00     0.079 C 
BRANCH   6  11
HETATM   11  C   UNL     1      40.109  -8.716   8.886  1.00  0.00     0.732 A 
HETATM   12  N   UNL     1      41.360  -8.990   8.685  1.00  0.00    -0.067 NA
HETATM   13  C   UNL     1      42.075  -9.442   9.769  1.00  0.00     0.065 A 
HETATM   14  C   UNL     1      41.573  -9.558  11.012  1.00  0.00     0.036 A 
HETATM   15  C   UNL     1      43.516  -9.796   9.475  1.00  0.00     0.060 C 
HETATM   16  C   UNL     1      42.347 -10.049  12.200  1.00  0.00     0.046 C 
HETATM   17  C   UNL     1      40.154  -9.181  11.223  1.00  0.00     0.268 A 
HETATM   18  C   UNL     1      43.667 -10.718  11.812  1.00  0.00     0.005 C 
HETATM   19  C   UNL     1      44.386  -9.928  10.726  1.00  0.00     0.006 C 
HETATM   20  O   UNL     1      39.632  -9.191  12.333  1.00  0.00    -0.267 OA
HETATM   21  N   UNL     1      39.484  -8.813  10.100  1.00  0.00    -0.152 N 
HETATM   22  H   UNL     1      38.518  -8.511  10.176  1.00  0.00     0.188 HD
ENDBRANCH   6  11
ENDBRANCH   1   5
BRANCH   2  23
HETATM   23  C   UNL     1      40.039 -11.888   5.281  1.00  0.00     0.310 C 
HETATM   24  N   UNL     1      39.536 -13.158   5.444  1.00  0.00    -0.348 N 
HETATM   25  H   UNL     1      38.747 -13.208   6.087  1.00  0.00     0.163 HD
HETATM   26  O   UNL     1      41.028 -11.560   4.643  1.00  0.00    -0.262 OA
BRANCH  24  27
HETATM   27  C   UNL     1      40.264 -14.385   5.122  1.00  0.00     0.084 C 
HETATM   28  C   UNL     1      40.352 -14.499   3.579  1.00  0.00     0.025 C 
HETATM   29  C   UNL     1      40.736 -15.897   3.077  1.00  0.00     0.002 C 
HETATM   30  C   UNL     1      42.133 -15.943   2.444  1.00  0.00     0.000 C 
HETATM   31  C   UNL     1      42.712 -17.365   2.369  1.00  0.00     0.000 C 
HETATM   32  C   UNL     1      43.801 -17.617   3.425  1.00  0.00     0.000 C 
HETATM   33  C   UNL     1      43.268 -17.625   4.859  1.00  0.00     0.000 C 
HETATM   34  C   UNL     1      44.318 -17.161   5.866  1.00  0.00     0.000 C 
HETATM   35  C   UNL     1      43.759 -16.973   7.280  1.00  0.00     0.000 C 
HETATM   36  C   UNL     1      43.121 -15.600   7.556  1.00  0.00     0.000 C 
HETATM   37  C   UNL     1      41.705 -15.405   6.992  1.00  0.00     0.002 C 
HETATM   38  C   UNL     1      41.656 -14.431   5.801  1.00  0.00     0.025 C 
ENDBRANCH  24  27
ENDBRANCH   2  23
TORSDOF 4
ENDMDL
MODEL 3
REMARK VINA RESULT:      -9.6      2.308      7.920
REMARK  4 active torsions:
REMARK  status: ('A' for Active; 'I' for Inactive)
REMARK    1  A    between atoms: N_4  and  C_5 
REMARK    2  A    between atoms: C_16  and  N_17 
REMARK       I    between atoms: N_17  and  C_18 
REMARK    3  A    between atoms: C_18  and  C_19 
REMARK       I    between atoms: C_19  and  N_20 
REMARK    4  A    between atoms: N_20  and  C_21 
ROOT
HETATM    1  N   UNL     1      42.120 -11.440   4.617  1.00  0.00    -0.303 N 
HETATM    2  C   UNL     1      42.731 -11.182   3.404  1.00  0.00     0.315 C 
HETATM    3  O   UNL     1      43.930 -11.203   3.149  1.00  0.00    -0.262 OA
HETATM    4  H   UNL     1      41.147 -11.730   4.575  1.00  0.00     0.171 HD
ENDROOT
BRANCH   1   5
HETATM    5  C   UNL     1      42.863 -11.621   5.768  1.00  0.00     0.152 C 
HETATM    6  N   UNL     1      43.229 -12.841   6.335  1.00  0.00    -0.045 N 
HETATM    7  N   UNL     1      43.770 -12.659   7.587  1.00  0.00    -0.156 NA
HETATM    8  C   UNL     1      43.952 -11.336   7.679  1.00  0.00     0.055 C 
HETATM    9  C   UNL     1      44.587 -10.748   8.884  1.00  0.00     0.072 C 
HETATM   10  C   UNL     1      43.450 -10.652   6.550  1.00  0.00     0.079 C 
BRANCH   6  11
HETATM   11  C   UNL     1      43.304 -14.126   5.751  1.00  0.00     0.732 A 
HETATM   12  N   UNL     1      43.092 -14.377   4.497  1.00  0.00    -0.067 NA
HETATM   13  C   UNL     1      43.242 -15.684   4.095  1.00  0.00     0.065 A 
HETATM   14  C   UNL     1      43.643 -16.683   4.902  1.00  0.00     0.036 A 
HETATM   15  C   UNL     1      42.935 -15.937   2.636  1.00  0.00     0.060 C 
HETATM   16  C   UNL     1      43.809 -18.110   4.471  1.00  0.00     0.046 C 
HETATM   17  C   UNL     1      43.934 -16.353   6.319  1.00  0.00     0.268 A 
HETATM   18  C   UNL     1      43.170 -18.398   3.111  1.00  0.00     0.005 C 
HETATM   19  C   UNL     1      43.459 -17.278   2.119  1.00  0.00     0.006 C 
HETATM   20  O   UNL     1      44.369 -17.185   7.108  1.00  0.00    -0.267 OA
HETATM   21  N   UNL     1      43.697 -15.062   6.669  1.00  0.00    -0.152 N 
HETATM   22  H   UNL     1      43.906 -14.759   7.615  1.00  0.00     0.188 HD
ENDBRANCH   6  11
ENDBRANCH   1   5
BRANCH   2  23
HETATM   23  C   UNL     1      41.722 -10.926   2.266  1.00  0.00     0.310 C 
HETATM   24  N   UNL     1      40.501 -11.521   2.484  1.00  0.00    -0.348 N 
HETATM   25  H   UNL     1      40.468 -12.096   3.325  1.00  0.00     0.163 HD
HETATM   26  O   UNL     1      42.060 -10.263   1.298  1.00  0.00    -0.262 OA
BRANCH  24  27
HETATM   27  C   UNL     1      39.479 -11.714   1.457  1.00  0.00     0.084 C 
HETATM   28  C   UNL     1      38.795 -10.347   1.200  1.00  0.00     0.025 C 
HETATM   29  C   UNL     1      37.461 -10.448   0.446  1.00  0.00     0.002 C 
HETATM   30  C   UNL     1      37.531  -9.871  -0.973  1.00  0.00     0.000 C 
HETATM   31  C   UNL     1      36.395 -10.370  -1.881  1.00  0.00     0.000 C 
HETATM   32  C   UNL     1      36.867 -11.424  -2.895  1.00  0.00     0.000 C 
HETATM   33  C   UNL     1      37.287 -12.746  -2.248  1.00  0.00     0.000 C 
HETATM   34  C   UNL     1      38.363 -13.468  -3.058  1.00  0.00     0.000 C 
HETATM   35  C   UNL     1      38.941 -14.692  -2.340  1.00  0.00     0.000 C 
HETATM   36  C   UNL     1      40.097 -14.397  -1.368  1.00  0.00     0.000 C 
HETATM   37  C   UNL     1      39.684 -13.819  -0.006  1.00  0.00     0.002 C 
HETATM   38  C   UNL     1      40.063 -12.337   0.164  1.00  0.00     0.025 C 
ENDBRANCH  24  27
ENDBRANCH   2  23
TORSDOF 4
ENDMDL
MODEL 4
REMARK VINA RESULT:      -9.5      2.861      5.481
REMARK  4 active torsions:
REMARK  status: ('A' for Active; 'I' for Inactive)
REMARK    1  A    between atoms: N_4  and  C_5 
REMARK    2  A    between atoms: C_16  and  N_17 
REMARK       I    between atoms: N_17  and  C_18 
REMARK    3  A    between atoms: C_18  and  C_19 
REMARK       I    between atoms: C_19  and  N_20 
REMARK    4  A    between atoms: N_20  and  C_21 
ROOT
HETATM    1  N   UNL     1      43.425 -13.092   7.498  1.00  0.00    -0.303 N 
HETATM    2  C   UNL     1      44.280 -12.074   7.119  1.00  0.00     0.315 C 
HETATM    3  O   UNL     1      44.748 -11.863   6.006  1.00  0.00    -0.262 OA
HETATM    4  H   UNL     1      42.863 -12.919   8.328  1.00  0.00     0.171 HD
ENDROOT
BRANCH   1   5
HETATM    5  C   UNL     1      43.105 -14.118   6.630  1.00  0.00     0.152 C 
HETATM    6  N   UNL     1      41.990 -14.181   5.795  1.00  0.00    -0.045 N 
HETATM    7  N   UNL     1      41.865 -15.431   5.235  1.00  0.00    -0.156 NA
HETATM    8  C   UNL     1      43.018 -16.043   5.532  1.00  0.00     0.055 C 
HETATM    9  C   UNL     1      43.290 -17.414   5.034  1.00  0.00     0.072 C 
HETATM   10  C   UNL     1      43.844 -15.247   6.355  1.00  0.00     0.079 C 
BRANCH   6  11
HETATM   11  C   UNL     1      41.152 -13.146   5.322  1.00  0.00     0.732 A 
HETATM   12  N   UNL     1      41.154 -11.933   5.777  1.00  0.00    -0.067 NA
HETATM   13  C   UNL     1      40.293 -11.045   5.174  1.00  0.00     0.065 A 
HETATM   14  C   UNL     1      39.508 -11.347   4.124  1.00  0.00     0.036 A 
HETATM   15  C   UNL     1      40.294  -9.656   5.772  1.00  0.00     0.060 C 
HETATM   16  C   UNL     1      38.568 -10.385   3.461  1.00  0.00     0.046 C 
HETATM   17  C   UNL     1      39.571 -12.729   3.588  1.00  0.00     0.268 A 
HETATM   18  C   UNL     1      38.334  -9.118   4.286  1.00  0.00     0.005 C 
HETATM   19  C   UNL     1      39.639  -8.600   4.880  1.00  0.00     0.006 C 
HETATM   20  O   UNL     1      38.943 -13.074   2.593  1.00  0.00    -0.267 OA
HETATM   21  N   UNL     1      40.385 -13.575   4.272  1.00  0.00    -0.152 N 
HETATM   22  H   UNL     1      40.501 -14.526   3.941  1.00  0.00     0.188 HD
ENDBRANCH   6  11
ENDBRANCH   1   5
BRANCH   2  23
HETATM   23  C   UNL     1      44.573 -11.080   8.261  1.00  0.00     0.310 C 
HETATM   24  N   UNL     1      43.434 -10.521   8.795  1.00  0.00    -0.348 N 
HETATM   25  H   UNL     1      42.578 -10.793   8.313  1.00  0.00     0.163 HD
HETATM   26  O   UNL     1      45.729 -10.857   8.586  1.00  0.00    -0.262 OA
BRANCH  24  27
HETATM   27  C   UNL     1      43.416  -9.337   9.652  1.00  0.00     0.084 C 
HETATM   28  C   UNL     1      43.133  -8.104   8.757  1.00  0.00     0.025 C 
HETATM   29  C   UNL     1      43.460  -6.760   9.424  1.00  0.00     0.002 C 
HETATM   30  C   UNL     1      42.211  -5.925   9.733  1.00  0.00     0.000 C 
HETATM   31  C   UNL     1      42.462  -4.836  10.789  1.00  0.00     0.000 C 
HETATM   32  C   UNL     1      41.873  -5.195  12.162  1.00  0.00     0.000 C 
HETATM   33  C   UNL     1      42.572  -6.378  12.834  1.00  0.00     0.000 C 
HETATM   34  C   UNL     1      41.629  -7.161  13.747  1.00  0.00     0.000 C 
HETATM   35  C   UNL     1      42.243  -8.459  14.280  1.00  0.00     0.000 C 
HETATM   36  C   UNL     1      42.101  -9.681  13.355  1.00  0.00     0.000 C 
HETATM   37  C   UNL     1      43.079  -9.729  12.171  1.00  0.00     0.002 C 
HETATM   38  C   UNL     1      42.400  -9.473  10.813  1.00  0.00     0.025 C 
ENDBRANCH  24  27
ENDBRANCH   2  23
TORSDOF 4
ENDMDL
MODEL 5
REMARK VINA RESULT:      -9.4      2.398      7.944
REMARK  4 active torsions:
REMARK  status: ('A' for Active; 'I' for Inactive)
REMARK    1  A    between atoms: N_4  and  C_5 
REMARK    2  A    between atoms: C_16  and  N_17 
REMARK       I    between atoms: N_17  and  C_18 
REMARK    3  A    between atoms: C_18  and  C_19 
REMARK       I    between atoms: C_19  and  N_20 
REMARK    4  A    between atoms: N_20  and  C_21 
ROOT
HETATM    1  N   UNL     1      42.194 -10.836   5.113  1.00  0.00    -0.303 N 
HETATM    2  C   UNL     1      40.815 -10.839   5.215  1.00  0.00     0.315 C 
HETATM    3  O   UNL     1      40.139 -10.961   6.231  1.00  0.00    -0.262 OA
HETATM    4  H   UNL     1      42.581 -10.376   4.293  1.00  0.00     0.171 HD
ENDROOT
BRANCH   1   5
HETATM    5  C   UNL     1      42.993 -11.130   6.201  1.00  0.00     0.152 C 
HETATM    6  N   UNL     1      43.352 -12.403   6.645  1.00  0.00    -0.045 N 
HETATM    7  N   UNL     1      43.967 -12.338   7.875  1.00  0.00    -0.156 NA
HETATM    8  C   UNL     1      44.195 -11.033   8.061  1.00  0.00     0.055 C 
HETATM    9  C   UNL     1      44.915 -10.562   9.271  1.00  0.00     0.072 C 
HETATM   10  C   UNL     1      43.654 -10.245   7.022  1.00  0.00     0.079 C 
BRANCH   6  11
HETATM   11  C   UNL     1      43.354 -13.637   5.957  1.00  0.00     0.732 A 
HETATM   12  N   UNL     1      43.074 -13.778   4.700  1.00  0.00    -0.067 NA
HETATM   13  C   UNL     1      43.158 -15.052   4.187  1.00  0.00     0.065 A 
HETATM   14  C   UNL     1      43.562 -16.125   4.891  1.00  0.00     0.036 A 
HETATM   15  C   UNL     1      42.774 -15.174   2.730  1.00  0.00     0.060 C 
HETATM   16  C   UNL     1      43.657 -17.517   4.338  1.00  0.00     0.046 C 
HETATM   17  C   UNL     1      43.932 -15.922   6.312  1.00  0.00     0.268 A 
HETATM   18  C   UNL     1      42.944 -17.672   2.994  1.00  0.00     0.005 C 
HETATM   19  C   UNL     1      43.225 -16.484   2.081  1.00  0.00     0.006 C 
HETATM   20  O   UNL     1      44.374 -16.829   7.010  1.00  0.00    -0.267 OA
HETATM   21  N   UNL     1      43.757 -14.657   6.777  1.00  0.00    -0.152 N 
HETATM   22  H   UNL     1      44.021 -14.439   7.732  1.00  0.00     0.188 HD
ENDBRANCH   6  11
ENDBRANCH   1   5
BRANCH   2  23
HETATM   23  C   UNL     1      40.113 -10.572   3.868  1.00  0.00     0.310 C 
HETATM   24  N   UNL     1      40.504 -11.439   2.874  1.00  0.00    -0.348 N 
HETATM   25  H   UNL     1      41.245 -12.080   3.156  1.00  0.00     0.163 HD
HETATM   26  O   UNL     1      39.315  -9.652   3.776  1.00  0.00    -0.262 OA
BRANCH  24  27
HETATM   27  C   UNL     1      40.254 -11.232   1.449  1.00  0.00     0.084 C 
HETATM   28  C   UNL     1      40.990  -9.939   1.017  1.00  0.00     0.025 C 
HETATM   29  C   UNL     1      40.522  -9.375  -0.332  1.00  0.00     0.002 C 
HETATM   30  C   UNL     1      41.586  -9.492  -1.431  1.00  0.00     0.000 C 
HETATM   31  C   UNL     1      41.001  -9.378  -2.848  1.00  0.00     0.000 C 
HETATM   32  C   UNL     1      40.920 -10.735  -3.566  1.00  0.00     0.000 C 
HETATM   33  C   UNL     1      39.908 -11.696  -2.939  1.00  0.00     0.000 C 
HETATM   34  C   UNL     1      40.307 -13.158  -3.132  1.00  0.00     0.000 C 
HETATM   35  C   UNL     1      39.420 -14.135  -2.352  1.00  0.00     0.000 C 
HETATM   36  C   UNL     1      39.840 -14.380  -0.892  1.00  0.00     0.000 C 
HETATM   37  C   UNL     1      39.457 -13.271   0.100  1.00  0.00     0.002 C 
HETATM   38  C   UNL     1      40.667 -12.461   0.600  1.00  0.00     0.025 C 
ENDBRANCH  24  27
ENDBRANCH   2  23
TORSDOF 4
ENDMDL
MODEL 6
REMARK VINA RESULT:      -9.4      3.354      9.562
REMARK  4 active torsions:
REMARK  status: ('A' for Active; 'I' for Inactive)
REMARK    1  A    between atoms: N_4  and  C_5 
REMARK    2  A    between atoms: C_16  and  N_17 
REMARK       I    between atoms: N_17  and  C_18 
REMARK    3  A    between atoms: C_18  and  C_19 
REMARK       I    between atoms: C_19  and  N_20 
REMARK    4  A    between atoms: N_20  and  C_21 
ROOT
HETATM    1  N   UNL     1      43.128 -10.279   8.682  1.00  0.00    -0.303 N 
HETATM    2  C   UNL     1      44.350 -10.866   8.406  1.00  0.00     0.315 C 
HETATM    3  O   UNL     1      45.382 -10.792   9.063  1.00  0.00    -0.262 OA
HETATM    4  H   UNL     1      42.315 -10.718   8.259  1.00  0.00     0.171 HD
ENDROOT
BRANCH   1   5
HETATM    5  C   UNL     1      42.985  -9.379   9.720  1.00  0.00     0.152 C 
HETATM    6  N   UNL     1      42.535  -8.063   9.620  1.00  0.00    -0.045 N 
HETATM    7  N   UNL     1      42.725  -7.387  10.803  1.00  0.00    -0.156 NA
HETATM    8  C   UNL     1      43.060  -8.342  11.679  1.00  0.00     0.055 C 
HETATM    9  C   UNL     1      43.286  -8.005  13.106  1.00  0.00     0.072 C 
HETATM   10  C   UNL     1      43.184  -9.607  11.064  1.00  0.00     0.079 C 
BRANCH   6  11
HETATM   11  C   UNL     1      41.776  -7.438   8.604  1.00  0.00     0.732 A 
HETATM   12  N   UNL     1      42.282  -6.778   7.610  1.00  0.00    -0.067 NA
HETATM   13  C   UNL     1      41.394  -6.264   6.694  1.00  0.00     0.065 A 
HETATM   14  C   UNL     1      40.062  -6.455   6.741  1.00  0.00     0.036 A 
HETATM   15  C   UNL     1      42.026  -5.459   5.581  1.00  0.00     0.060 C 
HETATM   16  C   UNL     1      39.088  -5.899   5.746  1.00  0.00     0.046 C 
HETATM   17  C   UNL     1      39.519  -7.266   7.859  1.00  0.00     0.268 A 
HETATM   18  C   UNL     1      39.703  -4.822   4.851  1.00  0.00     0.005 C 
HETATM   19  C   UNL     1      41.098  -5.222   4.388  1.00  0.00     0.006 C 
HETATM   20  O   UNL     1      38.329  -7.547   7.945  1.00  0.00    -0.267 OA
HETATM   21  N   UNL     1      40.439  -7.681   8.768  1.00  0.00    -0.152 N 
HETATM   22  H   UNL     1      40.142  -8.268   9.541  1.00  0.00     0.188 HD
ENDBRANCH   6  11
ENDBRANCH   1   5
BRANCH   2  23
HETATM   23  C   UNL     1      44.313 -11.769   7.157  1.00  0.00     0.310 C 
HETATM   24  N   UNL     1      43.057 -12.262   6.884  1.00  0.00    -0.348 N 
HETATM   25  H   UNL     1      42.358 -12.014   7.583  1.00  0.00     0.163 HD
HETATM   26  O   UNL     1      45.343 -11.986   6.538  1.00  0.00    -0.262 OA
BRANCH  24  27
HETATM   27  C   UNL     1      42.783 -13.372   5.974  1.00  0.00     0.084 C 
HETATM   28  C   UNL     1      42.900 -12.841   4.522  1.00  0.00     0.025 C 
HETATM   29  C   UNL     1      42.273 -13.764   3.468  1.00  0.00     0.002 C 
HETATM   30  C   UNL     1      43.315 -14.417   2.549  1.00  0.00     0.000 C 
HETATM   31  C   UNL     1      42.780 -15.662   1.824  1.00  0.00     0.000 C 
HETATM   32  C   UNL     1      43.315 -16.972   2.424  1.00  0.00     0.000 C 
HETATM   33  C   UNL     1      42.801 -17.249   3.838  1.00  0.00     0.000 C 
HETATM   34  C   UNL     1      43.798 -18.058   4.666  1.00  0.00     0.000 C 
HETATM   35  C   UNL     1      43.399 -18.185   6.140  1.00  0.00     0.000 C 
HETATM   36  C   UNL     1      43.841 -17.019   7.042  1.00  0.00     0.000 C 
HETATM   37  C   UNL     1      42.987 -15.746   6.941  1.00  0.00     0.002 C 
HETATM   38  C   UNL     1      43.712 -14.585   6.238  1.00  0.00     0.025 C 
ENDBRANCH  24  27
ENDBRANCH   2  23
TORSDOF 4
ENDMDL
MODEL 7
REMARK VINA RESULT:      -9.3      3.073      8.328
REMARK  4 active torsions:
REMARK  status: ('A' for Active; 'I' for Inactive)
REMARK    1  A    between atoms: N_4  and  C_5 
REMARK    2  A    between atoms: C_16  and  N_17 
REMARK       I    between atoms: N_17  and  C_18 
REMARK    3  A    between atoms: C_18  and  C_19 
REMARK       I    between atoms: C_19  and  N_20 
REMARK    4  A    between atoms: N_20  and  C_21 
ROOT
HETATM    1  N   UNL     1      40.354 -10.359   5.772  1.00  0.00    -0.303 N 
HETATM    2  C   UNL     1      39.579 -11.305   6.416  1.00  0.00     0.315 C 
HETATM    3  O   UNL     1      38.495 -11.139   6.966  1.00  0.00    -0.262 OA
HETATM    4  H   UNL     1      41.011 -10.713   5.082  1.00  0.00     0.171 HD
ENDROOT
BRANCH   1   5
HETATM    5  C   UNL     1      40.025  -9.017   5.811  1.00  0.00     0.152 C 
HETATM    6  N   UNL     1      40.159  -8.163   6.905  1.00  0.00    -0.045 N 
HETATM    7  N   UNL     1      39.535  -6.960   6.668  1.00  0.00    -0.156 NA
HETATM    8  C   UNL     1      39.239  -6.993   5.364  1.00  0.00     0.055 C 
HETATM    9  C   UNL     1      38.604  -5.823   4.708  1.00  0.00     0.072 C 
HETATM   10  C   UNL     1      39.571  -8.233   4.775  1.00  0.00     0.079 C 
BRANCH   6  11
HETATM   11  C   UNL     1      40.968  -8.285   8.058  1.00  0.00     0.732 A 
HETATM   12  N   UNL     1      40.607  -8.889   9.147  1.00  0.00    -0.067 NA
HETATM   13  C   UNL     1      41.537  -8.941  10.160  1.00  0.00     0.065 A 
HETATM   14  C   UNL     1      42.791  -8.462  10.063  1.00  0.00     0.036 A 
HETATM   15  C   UNL     1      41.055  -9.610  11.428  1.00  0.00     0.060 C 
HETATM   16  C   UNL     1      43.809  -8.516  11.162  1.00  0.00     0.046 C 
HETATM   17  C   UNL     1      43.192  -7.829   8.782  1.00  0.00     0.268 A 
HETATM   18  C   UNL     1      43.200  -8.872  12.519  1.00  0.00     0.005 C 
HETATM   19  C   UNL     1      42.182  -9.998  12.387  1.00  0.00     0.006 C 
HETATM   20  O   UNL     1      44.332  -7.426   8.581  1.00  0.00    -0.267 OA
HETATM   21  N   UNL     1      42.207  -7.743   7.850  1.00  0.00    -0.152 N 
HETATM   22  H   UNL     1      42.421  -7.351   6.939  1.00  0.00     0.188 HD
ENDBRANCH   6  11
ENDBRANCH   1   5
BRANCH   2  23
HETATM   23  C   UNL     1      40.167 -12.727   6.322  1.00  0.00     0.310 C 
HETATM   24  N   UNL     1      41.536 -12.737   6.188  1.00  0.00    -0.348 N 
HETATM   25  H   UNL     1      41.947 -11.809   6.102  1.00  0.00     0.163 HD
HETATM   26  O   UNL     1      39.420 -13.693   6.355  1.00  0.00    -0.262 OA
BRANCH  24  27
HETATM   27  C   UNL     1      42.318 -13.898   5.766  1.00  0.00     0.084 C 
HETATM   28  C   UNL     1      42.285 -14.940   6.912  1.00  0.00     0.025 C 
HETATM   29  C   UNL     1      43.356 -16.033   6.794  1.00  0.00     0.002 C 
HETATM   30  C   UNL     1      42.769 -17.416   6.485  1.00  0.00     0.000 C 
HETATM   31  C   UNL     1      43.806 -18.396   5.911  1.00  0.00     0.000 C 
HETATM   32  C   UNL     1      43.642 -18.612   4.398  1.00  0.00     0.000 C 
HETATM   33  C   UNL     1      43.966 -17.368   3.567  1.00  0.00     0.000 C 
HETATM   34  C   UNL     1      43.168 -17.322   2.265  1.00  0.00     0.000 C 
HETATM   35  C   UNL     1      43.324 -16.000   1.507  1.00  0.00     0.000 C 
HETATM   36  C   UNL     1      42.369 -14.875   1.944  1.00  0.00     0.000 C 
HETATM   37  C   UNL     1      42.753 -14.152   3.244  1.00  0.00     0.002 C 
HETATM   38  C   UNL     1      41.817 -14.480   4.420  1.00  0.00     0.025 C 
ENDBRANCH  24  27
ENDBRANCH   2  23
TORSDOF 4
ENDMDL
MODEL 8
REMARK VINA RESULT:      -9.0      4.390      8.530
REMARK  4 active torsions:
REMARK  status: ('A' for Active; 'I' for Inactive)
REMARK    1  A    between atoms: N_4  and  C_5 
REMARK    2  A    between atoms: C_16  and  N_17 
REMARK       I    between atoms: N_17  and  C_18 
REMARK    3  A    between atoms: C_18  and  C_19 
REMARK       I    between atoms: C_19  and  N_20 
REMARK    4  A    between atoms: N_20  and  C_21 
ROOT
HETATM    1  N   UNL     1      39.595 -12.891  -0.844  1.00  0.00    -0.303 N 
HETATM    2  C   UNL     1      39.611 -12.773   0.534  1.00  0.00     0.315 C 
HETATM    3  O   UNL     1      38.758 -12.264   1.253  1.00  0.00    -0.262 OA
HETATM    4  H   UNL     1      40.172 -13.630  -1.237  1.00  0.00     0.171 HD
ENDROOT
BRANCH   1   5
HETATM    5  C   UNL     1      38.615 -12.281  -1.603  1.00  0.00     0.152 C 
HETATM    6  N   UNL     1      38.537 -10.925  -1.921  1.00  0.00    -0.045 N 
HETATM    7  N   UNL     1      37.325 -10.625  -2.499  1.00  0.00    -0.156 NA
HETATM    8  C   UNL     1      36.774 -11.819  -2.750  1.00  0.00     0.055 C 
HETATM    9  C   UNL     1      35.465 -11.911  -3.443  1.00  0.00     0.072 C 
HETATM   10  C   UNL     1      37.563 -12.881  -2.258  1.00  0.00     0.079 C 
BRANCH   6  11
HETATM   11  C   UNL     1      39.543  -9.932  -1.916  1.00  0.00     0.732 A 
HETATM   12  N   UNL     1      40.159  -9.506  -2.974  1.00  0.00    -0.067 NA
HETATM   13  C   UNL     1      41.089  -8.509  -2.787  1.00  0.00     0.065 A 
HETATM   14  C   UNL     1      41.346  -7.927  -1.601  1.00  0.00     0.036 A 
HETATM   15  C   UNL     1      41.817  -8.080  -4.040  1.00  0.00     0.060 C 
HETATM   16  C   UNL     1      42.357  -6.839  -1.390  1.00  0.00     0.046 C 
HETATM   17  C   UNL     1      40.583  -8.396  -0.419  1.00  0.00     0.268 A 
HETATM   18  C   UNL     1      43.306  -6.672  -2.578  1.00  0.00     0.005 C 
HETATM   19  C   UNL     1      42.552  -6.745  -3.900  1.00  0.00     0.006 C 
HETATM   20  O   UNL     1      40.703  -7.878   0.685  1.00  0.00    -0.267 OA
HETATM   21  N   UNL     1      39.734  -9.431  -0.657  1.00  0.00    -0.152 N 
HETATM   22  H   UNL     1      39.156  -9.781   0.100  1.00  0.00     0.188 HD
ENDBRANCH   6  11
ENDBRANCH   1   5
BRANCH   2  23
HETATM   23  C   UNL     1      40.834 -13.454   1.180  1.00  0.00     0.310 C 
HETATM   24  N   UNL     1      40.492 -14.377   2.142  1.00  0.00    -0.348 N 
HETATM   25  H   UNL     1      39.492 -14.422   2.331  1.00  0.00     0.163 HD
HETATM   26  O   UNL     1      41.959 -13.136   0.826  1.00  0.00    -0.262 OA
BRANCH  24  27
HETATM   27  C   UNL     1      41.423 -14.933   3.123  1.00  0.00     0.084 C 
HETATM   28  C   UNL     1      40.932 -14.522   4.534  1.00  0.00     0.025 C 
HETATM   29  C   UNL     1      41.988 -14.690   5.636  1.00  0.00     0.002 C 
HETATM   30  C   UNL     1      41.645 -15.810   6.627  1.00  0.00     0.000 C 
HETATM   31  C   UNL     1      42.864 -16.299   7.426  1.00  0.00     0.000 C 
HETATM   32  C   UNL     1      43.384 -17.661   6.938  1.00  0.00     0.000 C 
HETATM   33  C   UNL     1      43.991 -17.613   5.534  1.00  0.00     0.000 C 
HETATM   34  C   UNL     1      43.838 -18.941   4.795  1.00  0.00     0.000 C 
HETATM   35  C   UNL     1      44.261 -18.867   3.324  1.00  0.00     0.000 C 
HETATM   36  C   UNL     1      43.169 -18.385   2.352  1.00  0.00     0.000 C 
HETATM   37  C   UNL     1      42.922 -16.869   2.336  1.00  0.00     0.002 C 
HETATM   38  C   UNL     1      41.579 -16.467   2.973  1.00  0.00     0.025 C 
ENDBRANCH  24  27
ENDBRANCH   2  23
TORSDOF 4
ENDMDL
MODEL 9
REMARK VINA RESULT:      -9.0      1.289      2.947
REMARK  4 active torsions:
REMARK  status: ('A' for Active; 'I' for Inactive)
REMARK    1  A    between atoms: N_4  and  C_5 
REMARK    2  A    between atoms: C_16  and  N_17 
REMARK       I    between atoms: N_17  and  C_18 
REMARK    3  A    between atoms: C_18  and  C_19 
REMARK       I    between atoms: C_19  and  N_20 
REMARK    4  A    between atoms: N_20  and  C_21 
ROOT
HETATM    1  N   UNL     1      40.936 -12.148   2.842  1.00  0.00    -0.303 N 
HETATM    2  C   UNL     1      41.863 -11.130   2.718  1.00  0.00     0.315 C 
HETATM    3  O   UNL     1      42.375 -10.703   1.689  1.00  0.00    -0.262 OA
HETATM    4  H   UNL     1      40.362 -12.132   3.681  1.00  0.00     0.171 HD
ENDROOT
BRANCH   1   5
HETATM    5  C   UNL     1      40.580 -12.928   1.758  1.00  0.00     0.152 C 
HETATM    6  N   UNL     1      41.110 -14.174   1.423  1.00  0.00    -0.045 N 
HETATM    7  N   UNL     1      40.694 -14.565   0.172  1.00  0.00    -0.156 NA
HETATM    8  C   UNL     1      39.735 -13.687  -0.147  1.00  0.00     0.055 C 
HETATM    9  C   UNL     1      38.987 -13.821  -1.421  1.00  0.00     0.072 C 
HETATM   10  C   UNL     1      39.592 -12.679   0.832  1.00  0.00     0.079 C 
BRANCH   6  11
HETATM   11  C   UNL     1      41.801 -15.111   2.225  1.00  0.00     0.732 A 
HETATM   12  N   UNL     1      42.106 -16.314   1.851  1.00  0.00    -0.067 NA
HETATM   13  C   UNL     1      42.811 -17.079   2.751  1.00  0.00     0.065 A 
HETATM   14  C   UNL     1      43.241 -16.638   3.947  1.00  0.00     0.036 A 
HETATM   15  C   UNL     1      43.100 -18.491   2.292  1.00  0.00     0.060 C 
HETATM   16  C   UNL     1      44.011 -17.467   4.933  1.00  0.00     0.046 C 
HETATM   17  C   UNL     1      42.926 -15.238   4.322  1.00  0.00     0.268 A 
HETATM   18  C   UNL     1      43.985 -18.960   4.601  1.00  0.00     0.005 C 
HETATM   19  C   UNL     1      44.184 -19.195   3.109  1.00  0.00     0.006 C 
HETATM   20  O   UNL     1      43.335 -14.731   5.361  1.00  0.00    -0.267 OA
HETATM   21  N   UNL     1      42.166 -14.559   3.423  1.00  0.00    -0.152 N 
HETATM   22  H   UNL     1      41.941 -13.586   3.600  1.00  0.00     0.188 HD
ENDBRANCH   6  11
ENDBRANCH   1   5
BRANCH   2  23
HETATM   23  C   UNL     1      42.182 -10.443   4.061  1.00  0.00     0.310 C 
HETATM   24  N   UNL     1      42.836 -11.267   4.947  1.00  0.00    -0.348 N 
HETATM   25  H   UNL     1      42.949 -12.223   4.613  1.00  0.00     0.163 HD
HETATM   26  O   UNL     1      41.840  -9.284   4.242  1.00  0.00    -0.262 OA
BRANCH  24  27
HETATM   27  C   UNL     1      42.978 -10.998   6.377  1.00  0.00     0.084 C 
HETATM   28  C   UNL     1      44.490 -11.005   6.717  1.00  0.00     0.025 C 
HETATM   29  C   UNL     1      44.792 -11.124   8.218  1.00  0.00     0.002 C 
HETATM   30  C   UNL     1      45.397  -9.844   8.809  1.00  0.00     0.000 C 
HETATM   31  C   UNL     1      45.270  -9.771  10.340  1.00  0.00     0.000 C 
HETATM   32  C   UNL     1      44.177  -8.792  10.797  1.00  0.00     0.000 C 
HETATM   33  C   UNL     1      42.762  -9.248  10.437  1.00  0.00     0.000 C 
HETATM   34  C   UNL     1      41.815  -8.069  10.220  1.00  0.00     0.000 C 
HETATM   35  C   UNL     1      40.446  -8.486   9.671  1.00  0.00     0.000 C 
HETATM   36  C   UNL     1      40.368  -8.624   8.141  1.00  0.00     0.000 C 
HETATM   37  C   UNL     1      40.970  -9.913   7.562  1.00  0.00     0.002 C 
HETATM   38  C   UNL     1      42.283  -9.677   6.794  1.00  0.00     0.025 C 
ENDBRANCH  24  27
ENDBRANCH   2  23
TORSDOF 4
ENDMDL
MODEL 10
REMARK VINA RESULT:      -9.0      1.441      1.962
REMARK  4 active torsions:
REMARK  status: ('A' for Active; 'I' for Inactive)
REMARK    1  A    between atoms: N_4  and  C_5 
REMARK    2  A    between atoms: C_16  and  N_17 
REMARK       I    between atoms: N_17  and  C_18 
REMARK    3  A    between atoms: C_18  and  C_19 
REMARK       I    between atoms: C_19  and  N_20 
REMARK    4  A    between atoms: N_20  and  C_21 
ROOT
HETATM    1  N   UNL     1      41.075 -12.062   2.386  1.00  0.00    -0.303 N 
HETATM    2  C   UNL     1      40.288 -11.715   3.468  1.00  0.00     0.315 C 
HETATM    3  O   UNL     1      39.247 -12.246   3.839  1.00  0.00    -0.262 OA
HETATM    4  H   UNL     1      42.050 -11.775   2.430  1.00  0.00     0.171 HD
ENDROOT
BRANCH   1   5
HETATM    5  C   UNL     1      40.660 -13.016   1.476  1.00  0.00     0.152 C 
HETATM    6  N   UNL     1      40.994 -14.370   1.484  1.00  0.00    -0.045 N 
HETATM    7  N   UNL     1      40.595 -14.981   0.318  1.00  0.00    -0.156 NA
HETATM    8  C   UNL     1      39.818 -14.072  -0.283  1.00  0.00     0.055 C 
HETATM    9  C   UNL     1      39.137 -14.393  -1.561  1.00  0.00     0.072 C 
HETATM   10  C   UNL     1      39.786 -12.850   0.425  1.00  0.00     0.079 C 
BRANCH   6  11
HETATM   11  C   UNL     1      41.467 -15.181   2.540  1.00  0.00     0.732 A 
HETATM   12  N   UNL     1      42.393 -16.080   2.418  1.00  0.00    -0.067 NA
HETATM   13  C   UNL     1      42.753 -16.754   3.562  1.00  0.00     0.065 A 
HETATM   14  C   UNL     1      42.250 -16.497   4.783  1.00  0.00     0.036 A 
HETATM   15  C   UNL     1      43.800 -17.827   3.361  1.00  0.00     0.060 C 
HETATM   16  C   UNL     1      42.639 -17.227   6.034  1.00  0.00     0.046 C 
HETATM   17  C   UNL     1      41.234 -15.422   4.900  1.00  0.00     0.268 A 
HETATM   18  C   UNL     1      43.420 -18.512   5.754  1.00  0.00     0.005 C 
HETATM   19  C   UNL     1      44.458 -18.297   4.660  1.00  0.00     0.006 C 
HETATM   20  O   UNL     1      40.771 -15.074   5.981  1.00  0.00    -0.267 OA
HETATM   21  N   UNL     1      40.869 -14.846   3.725  1.00  0.00    -0.152 N 
HETATM   22  H   UNL     1      40.203 -14.080   3.735  1.00  0.00     0.188 HD
ENDBRANCH   6  11
ENDBRANCH   1   5
BRANCH   2  23
HETATM   23  C   UNL     1      40.894 -10.573   4.309  1.00  0.00     0.310 C 
HETATM   24  N   UNL     1      41.484 -11.013   5.471  1.00  0.00    -0.348 N 
HETATM   25  H   UNL     1      41.373 -12.013   5.636  1.00  0.00     0.163 HD
HETATM   26  O   UNL     1      40.801  -9.420   3.916  1.00  0.00    -0.262 OA
BRANCH  24  27
HETATM   27  C   UNL     1      41.850 -10.149   6.592  1.00  0.00     0.084 C 
HETATM   28  C   UNL     1      40.558  -9.812   7.378  1.00  0.00     0.025 C 
HETATM   29  C   UNL     1      40.703  -8.622   8.337  1.00  0.00     0.002 C 
HETATM   30  C   UNL     1      40.637  -9.033   9.814  1.00  0.00     0.000 C 
HETATM   31  C   UNL     1      41.233  -7.977  10.759  1.00  0.00     0.000 C 
HETATM   32  C   UNL     1      42.617  -8.375  11.294  1.00  0.00     0.000 C 
HETATM   33  C   UNL     1      43.701  -8.405  10.215  1.00  0.00     0.000 C 
HETATM   34  C   UNL     1      44.797  -9.423  10.528  1.00  0.00     0.000 C 
HETATM   35  C   UNL     1      45.791  -9.615   9.377  1.00  0.00     0.000 C 
HETATM   36  C   UNL     1      45.368 -10.638   8.309  1.00  0.00     0.000 C 
HETATM   37  C   UNL     1      44.324 -10.143   7.297  1.00  0.00     0.002 C 
HETATM   38  C   UNL     1      42.940 -10.789   7.490  1.00  0.00     0.025 C 
ENDBRANCH  24  27
ENDBRANCH   2  23
TORSDOF 4
ENDMDL
