MODEL 1
REMARK VINA RESULT:      -8.2      0.000      0.000
REMARK  3 active torsions:
REMARK  status: ('A' for Active; 'I' for Inactive)
REMARK       I    between atoms: C_2  and  N_3 
REMARK    1  A    between atoms: N_3  and  N_4 
REMARK       I    between atoms: N_4  and  C_5 
REMARK    2  A    between atoms: C_5  and  C_6 
REMARK    3  A    between atoms: C_11  and  C_12 
ROOT
HETATM    1  C   UNL     1      42.883 -15.358   5.356  1.00  0.00     0.115 A 
HETATM    2  N   UNL     1      43.547 -16.416   5.946  1.00  0.00    -0.350 N 
HETATM    3  H   UNL     1      43.937 -16.399   6.879  1.00  0.00     0.166 HD
HETATM    4  C   UNL     1      43.664 -17.481   5.089  1.00  0.00     0.044 A 
HETATM    5  C   UNL     1      43.068 -17.103   3.889  1.00  0.00     0.005 A 
HETATM    6  C   UNL     1      42.585 -15.763   4.058  1.00  0.00     0.019 A 
HETATM    7  C   UNL     1      44.258 -18.733   5.284  1.00  0.00     0.032 A 
HETATM    8  C   UNL     1      44.232 -19.635   4.215  1.00  0.00     0.021 A 
HETATM    9  C   UNL     1      43.635 -19.285   3.007  1.00  0.00     0.012 A 
HETATM   10 BR   UNL     1      43.619 -20.531   1.582  1.00  0.00    -0.051 Br
HETATM   11  C   UNL     1      43.047 -18.030   2.825  1.00  0.00     0.033 A 
ENDROOT
BRANCH   1  12
HETATM   12  C   UNL     1      42.650 -14.091   6.021  1.00  0.00     0.287 C 
HETATM   13  N   UNL     1      43.746 -13.603   6.718  1.00  0.00    -0.262 N 
HETATM   14  H   UNL     1      44.488 -14.225   7.034  1.00  0.00     0.190 HD
HETATM   15  O   UNL     1      41.590 -13.466   6.002  1.00  0.00    -0.264 OA
BRANCH  13  16
HETATM   16  N   UNL     1      43.561 -12.457   7.510  1.00  0.00    -0.268 N 
HETATM   17  C   UNL     1      44.557 -11.506   7.481  1.00  0.00     0.232 C 
HETATM   18  C   UNL     1      44.380 -10.386   8.469  1.00  0.00     0.119 C 
HETATM   19  O   UNL     1      45.501 -11.559   6.696  1.00  0.00    -0.272 OA
HETATM   20  H   UNL     1      42.929 -12.568   8.305  1.00  0.00     0.190 HD
ENDBRANCH  13  16
ENDBRANCH   1  12
BRANCH   6  21
HETATM   21  C   UNL     1      41.898 -14.943   3.072  1.00  0.00    -0.023 A 
HETATM   22  C   UNL     1      40.545 -15.157   2.779  1.00  0.00     0.012 A 
HETATM   23  C   UNL     1      39.906 -14.385   1.806  1.00  0.00     0.001 A 
HETATM   24  C   UNL     1      40.615 -13.402   1.116  1.00  0.00     0.000 A 
HETATM   25  C   UNL     1      41.963 -13.187   1.398  1.00  0.00     0.001 A 
HETATM   26  C   UNL     1      42.603 -13.955   2.373  1.00  0.00     0.012 A 
ENDBRANCH   6  21
TORSDOF 3
ENDMDL
MODEL 2
REMARK VINA RESULT:      -8.1      1.854      2.512
REMARK  3 active torsions:
REMARK  status: ('A' for Active; 'I' for Inactive)
REMARK       I    between atoms: C_2  and  N_3 
REMARK    1  A    between atoms: N_3  and  N_4 
REMARK       I    between atoms: N_4  and  C_5 
REMARK    2  A    between atoms: C_5  and  C_6 
REMARK    3  A    between atoms: C_11  and  C_12 
ROOT
HETATM    1  C   UNL     1      42.809 -14.578   4.942  1.00  0.00     0.115 A 
HETATM    2  N   UNL     1      43.616 -15.492   5.593  1.00  0.00    -0.350 N 
HETATM    3  H   UNL     1      44.103 -15.311   6.460  1.00  0.00     0.166 HD
HETATM    4  C   UNL     1      43.722 -16.664   4.888  1.00  0.00     0.044 A 
HETATM    5  C   UNL     1      42.970 -16.510   3.727  1.00  0.00     0.005 A 
HETATM    6  C   UNL     1      42.404 -15.192   3.760  1.00  0.00     0.019 A 
HETATM    7  C   UNL     1      44.431 -17.834   5.187  1.00  0.00     0.032 A 
HETATM    8  C   UNL     1      44.360 -18.886   4.268  1.00  0.00     0.021 A 
HETATM    9  C   UNL     1      43.608 -18.760   3.103  1.00  0.00     0.012 A 
HETATM   10 BR   UNL     1      43.535 -20.205   1.882  1.00  0.00    -0.051 Br
HETATM   11  C   UNL     1      42.906 -17.586   2.816  1.00  0.00     0.033 A 
ENDROOT
BRANCH   1  12
HETATM   12  C   UNL     1      42.551 -13.242   5.442  1.00  0.00     0.287 C 
HETATM   13  N   UNL     1      41.450 -13.151   6.280  1.00  0.00    -0.262 N 
HETATM   14  H   UNL     1      40.705 -13.844   6.248  1.00  0.00     0.190 HD
HETATM   15  O   UNL     1      43.219 -12.245   5.172  1.00  0.00    -0.264 OA
BRANCH  13  16
HETATM   16  N   UNL     1      41.044 -11.868   6.690  1.00  0.00    -0.268 N 
HETATM   17  C   UNL     1      39.740 -11.509   6.429  1.00  0.00     0.232 C 
HETATM   18  C   UNL     1      39.412 -10.075   6.741  1.00  0.00     0.119 C 
HETATM   19  O   UNL     1      38.908 -12.304   5.997  1.00  0.00    -0.272 OA
HETATM   20  H   UNL     1      41.792 -11.182   6.796  1.00  0.00     0.190 HD
ENDBRANCH  13  16
ENDBRANCH   1  12
BRANCH   6  21
HETATM   21  C   UNL     1      41.550 -14.574   2.757  1.00  0.00    -0.023 A 
HETATM   22  C   UNL     1      42.090 -14.082   1.561  1.00  0.00     0.012 A 
HETATM   23  C   UNL     1      41.265 -13.460   0.621  1.00  0.00     0.001 A 
HETATM   24  C   UNL     1      39.900 -13.321   0.873  1.00  0.00     0.000 A 
HETATM   25  C   UNL     1      39.358 -13.802   2.062  1.00  0.00     0.001 A 
HETATM   26  C   UNL     1      40.180 -14.427   3.002  1.00  0.00     0.012 A 
ENDBRANCH   6  21
TORSDOF 3
ENDMDL
MODEL 3
REMARK VINA RESULT:      -7.8      3.287      5.699
REMARK  3 active torsions:
REMARK  status: ('A' for Active; 'I' for Inactive)
REMARK       I    between atoms: C_2  and  N_3 
REMARK    1  A    between atoms: N_3  and  N_4 
REMARK       I    between atoms: N_4  and  C_5 
REMARK    2  A    between atoms: C_5  and  C_6 
REMARK    3  A    between atoms: C_11  and  C_12 
ROOT
HETATM    1  C   UNL     1      40.438 -12.757   2.401  1.00  0.00     0.115 A 
HETATM    2  N   UNL     1      39.522 -11.903   1.816  1.00  0.00    -0.350 N 
HETATM    3  H   UNL     1      39.159 -11.067   2.252  1.00  0.00     0.166 HD
HETATM    4  C   UNL     1      39.120 -12.359   0.586  1.00  0.00     0.044 A 
HETATM    5  C   UNL     1      39.785 -13.561   0.362  1.00  0.00     0.005 A 
HETATM    6  C   UNL     1      40.607 -13.813   1.510  1.00  0.00     0.019 A 
HETATM    7  C   UNL     1      38.217 -11.805  -0.329  1.00  0.00     0.032 A 
HETATM    8  C   UNL     1      37.993 -12.503  -1.520  1.00  0.00     0.021 A 
HETATM    9  C   UNL     1      38.652 -13.703  -1.773  1.00  0.00     0.012 A 
HETATM   10 BR   UNL     1      38.325 -14.620  -3.397  1.00  0.00    -0.051 Br
HETATM   11  C   UNL     1      39.550 -14.246  -0.850  1.00  0.00     0.033 A 
ENDROOT
BRANCH   1  12
HETATM   12  C   UNL     1      41.004 -12.539   3.718  1.00  0.00     0.287 C 
HETATM   13  N   UNL     1      41.826 -11.426   3.808  1.00  0.00    -0.262 N 
HETATM   14  H   UNL     1      42.273 -11.032   2.982  1.00  0.00     0.190 HD
HETATM   15  O   UNL     1      40.806 -13.254   4.699  1.00  0.00    -0.264 OA
BRANCH  13  16
HETATM   16  N   UNL     1      42.530 -11.227   5.009  1.00  0.00    -0.268 N 
HETATM   17  C   UNL     1      43.903 -11.334   4.957  1.00  0.00     0.232 C 
HETATM   18  C   UNL     1      44.585 -11.275   6.295  1.00  0.00     0.119 C 
HETATM   19  O   UNL     1      44.519 -11.447   3.899  1.00  0.00    -0.272 OA
HETATM   20  H   UNL     1      41.998 -11.392   5.864  1.00  0.00     0.190 HD
ENDBRANCH  13  16
ENDBRANCH   1  12
BRANCH   6  21
HETATM   21  C   UNL     1      41.478 -14.956   1.737  1.00  0.00    -0.023 A 
HETATM   22  C   UNL     1      40.971 -16.149   2.267  1.00  0.00     0.012 A 
HETATM   23  C   UNL     1      41.825 -17.228   2.512  1.00  0.00     0.001 A 
HETATM   24  C   UNL     1      43.188 -17.117   2.236  1.00  0.00     0.000 A 
HETATM   25  C   UNL     1      43.700 -15.931   1.714  1.00  0.00     0.001 A 
HETATM   26  C   UNL     1      42.848 -14.853   1.465  1.00  0.00     0.012 A 
ENDBRANCH   6  21
TORSDOF 3
ENDMDL
MODEL 4
REMARK VINA RESULT:      -7.8      1.179      1.699
REMARK  3 active torsions:
REMARK  status: ('A' for Active; 'I' for Inactive)
REMARK       I    between atoms: C_2  and  N_3 
REMARK    1  A    between atoms: N_3  and  N_4 
REMARK       I    between atoms: N_4  and  C_5 
REMARK    2  A    between atoms: C_5  and  C_6 
REMARK    3  A    between atoms: C_11  and  C_12 
ROOT
HETATM    1  C   UNL     1      43.005 -14.047   5.756  1.00  0.00     0.115 A 
HETATM    2  N   UNL     1      43.730 -15.079   6.322  1.00  0.00    -0.350 N 
HETATM    3  H   UNL     1      44.220 -15.019   7.203  1.00  0.00     0.166 HD
HETATM    4  C   UNL     1      43.752 -16.185   5.510  1.00  0.00     0.044 A 
HETATM    5  C   UNL     1      43.027 -15.864   4.366  1.00  0.00     0.005 A 
HETATM    6  C   UNL     1      42.566 -14.514   4.520  1.00  0.00     0.019 A 
HETATM    7  C   UNL     1      44.363 -17.430   5.699  1.00  0.00     0.032 A 
HETATM    8  C   UNL     1      44.219 -18.383   4.685  1.00  0.00     0.021 A 
HETATM    9  C   UNL     1      43.493 -18.089   3.535  1.00  0.00     0.012 A 
HETATM   10 BR   UNL     1      43.319 -19.403   2.183  1.00  0.00    -0.051 Br
HETATM   11  C   UNL     1      42.889 -16.842   3.358  1.00  0.00     0.033 A 
ENDROOT
BRANCH   1  12
HETATM   12  C   UNL     1      42.848 -12.748   6.380  1.00  0.00     0.287 C 
HETATM   13  N   UNL     1      43.757 -12.489   7.395  1.00  0.00    -0.262 N 
HETATM   14  H   UNL     1      44.224 -13.247   7.889  1.00  0.00     0.190 HD
HETATM   15  O   UNL     1      41.995 -11.916   6.074  1.00  0.00    -0.264 OA
BRANCH  13  16
HETATM   16  N   UNL     1      43.580 -11.316   8.148  1.00  0.00    -0.268 N 
HETATM   17  C   UNL     1      44.713 -10.609   8.486  1.00  0.00     0.232 C 
HETATM   18  C   UNL     1      44.476  -9.459   9.425  1.00  0.00     0.119 C 
HETATM   19  O   UNL     1      45.824 -10.885   8.037  1.00  0.00    -0.272 OA
HETATM   20  H   UNL     1      42.720 -11.269   8.696  1.00  0.00     0.190 HD
ENDBRANCH  13  16
ENDBRANCH   1  12
BRANCH   6  21
HETATM   21  C   UNL     1      41.774 -13.739   3.577  1.00  0.00    -0.023 A 
HETATM   22  C   UNL     1      42.393 -12.883   2.656  1.00  0.00     0.012 A 
HETATM   23  C   UNL     1      41.620 -12.119   1.778  1.00  0.00     0.001 A 
HETATM   24  C   UNL     1      40.228 -12.200   1.821  1.00  0.00     0.000 A 
HETATM   25  C   UNL     1      39.607 -13.045   2.738  1.00  0.00     0.001 A 
HETATM   26  C   UNL     1      40.377 -13.812   3.613  1.00  0.00     0.012 A 
ENDBRANCH   6  21
TORSDOF 3
ENDMDL
MODEL 5
REMARK VINA RESULT:      -7.7      4.551      7.401
REMARK  3 active torsions:
REMARK  status: ('A' for Active; 'I' for Inactive)
REMARK       I    between atoms: C_2  and  N_3 
REMARK    1  A    between atoms: N_3  and  N_4 
REMARK       I    between atoms: N_4  and  C_5 
REMARK    2  A    between atoms: C_5  and  C_6 
REMARK    3  A    between atoms: C_11  and  C_12 
ROOT
HETATM    1  C   UNL     1      40.908 -13.915   2.002  1.00  0.00     0.115 A 
HETATM    2  N   UNL     1      40.706 -12.564   2.208  1.00  0.00    -0.350 N 
HETATM    3  H   UNL     1      40.035 -12.001   1.703  1.00  0.00     0.166 HD
HETATM    4  C   UNL     1      41.572 -12.061   3.146  1.00  0.00     0.044 A 
HETATM    5  C   UNL     1      42.379 -13.116   3.561  1.00  0.00     0.005 A 
HETATM    6  C   UNL     1      41.964 -14.280   2.833  1.00  0.00     0.019 A 
HETATM    7  C   UNL     1      41.704 -10.759   3.644  1.00  0.00     0.032 A 
HETATM    8  C   UNL     1      42.692 -10.532   4.607  1.00  0.00     0.021 A 
HETATM    9  C   UNL     1      43.507 -11.572   5.046  1.00  0.00     0.012 A 
HETATM   10 BR   UNL     1      44.833 -11.228   6.352  1.00  0.00    -0.051 Br
HETATM   11  C   UNL     1      43.365 -12.867   4.539  1.00  0.00     0.033 A 
ENDROOT
BRANCH   1  12
HETATM   12  C   UNL     1      40.157 -14.696   1.039  1.00  0.00     0.287 C 
HETATM   13  N   UNL     1      39.948 -14.057  -0.174  1.00  0.00    -0.262 N 
HETATM   14  H   UNL     1      39.986 -13.042  -0.248  1.00  0.00     0.190 HD
HETATM   15  O   UNL     1      39.718 -15.829   1.235  1.00  0.00    -0.264 OA
BRANCH  13  16
HETATM   16  N   UNL     1      39.105 -14.684  -1.108  1.00  0.00    -0.268 N 
HETATM   17  C   UNL     1      39.370 -14.463  -2.442  1.00  0.00     0.232 C 
HETATM   18  C   UNL     1      38.341 -15.024  -3.384  1.00  0.00     0.119 C 
HETATM   19  O   UNL     1      40.377 -13.873  -2.828  1.00  0.00    -0.272 OA
HETATM   20  H   UNL     1      38.176 -14.932  -0.766  1.00  0.00     0.190 HD
ENDBRANCH  13  16
ENDBRANCH   1  12
BRANCH   6  21
HETATM   21  C   UNL     1      42.521 -15.621   2.922  1.00  0.00    -0.023 A 
HETATM   22  C   UNL     1      43.079 -16.242   1.797  1.00  0.00     0.012 A 
HETATM   23  C   UNL     1      43.580 -17.543   1.888  1.00  0.00     0.001 A 
HETATM   24  C   UNL     1      43.519 -18.232   3.100  1.00  0.00     0.000 A 
HETATM   25  C   UNL     1      42.960 -17.623   4.221  1.00  0.00     0.001 A 
HETATM   26  C   UNL     1      42.462 -16.321   4.133  1.00  0.00     0.012 A 
ENDBRANCH   6  21
TORSDOF 3
ENDMDL
MODEL 6
REMARK VINA RESULT:      -7.7      3.326      6.045
REMARK  3 active torsions:
REMARK  status: ('A' for Active; 'I' for Inactive)
REMARK       I    between atoms: C_2  and  N_3 
REMARK    1  A    between atoms: N_3  and  N_4 
REMARK       I    between atoms: N_4  and  C_5 
REMARK    2  A    between atoms: C_5  and  C_6 
REMARK    3  A    between atoms: C_11  and  C_12 
ROOT
HETATM    1  C   UNL     1      43.305 -15.475   5.485  1.00  0.00     0.115 A 
HETATM    2  N   UNL     1      43.854 -14.750   6.525  1.00  0.00    -0.350 N 
HETATM    3  H   UNL     1      44.413 -15.146   7.268  1.00  0.00     0.166 HD
HETATM    4  C   UNL     1      43.500 -13.426   6.460  1.00  0.00     0.044 A 
HETATM    5  C   UNL     1      42.679 -13.280   5.345  1.00  0.00     0.005 A 
HETATM    6  C   UNL     1      42.551 -14.574   4.739  1.00  0.00     0.019 A 
HETATM    7  C   UNL     1      43.835 -12.361   7.304  1.00  0.00     0.032 A 
HETATM    8  C   UNL     1      43.318 -11.100   6.991  1.00  0.00     0.021 A 
HETATM    9  C   UNL     1      42.501 -10.925   5.877  1.00  0.00     0.012 A 
HETATM   10 BR   UNL     1      41.820  -9.203   5.484  1.00  0.00    -0.051 Br
HETATM   11  C   UNL     1      42.173 -11.997   5.043  1.00  0.00     0.033 A 
ENDROOT
BRANCH   1  12
HETATM   12  C   UNL     1      43.485 -16.905   5.327  1.00  0.00     0.287 C 
HETATM   13  N   UNL     1      44.271 -17.264   4.242  1.00  0.00    -0.262 N 
HETATM   14  H   UNL     1      44.393 -16.637   3.449  1.00  0.00     0.190 HD
HETATM   15  O   UNL     1      43.000 -17.765   6.062  1.00  0.00    -0.264 OA
BRANCH  13  16
HETATM   16  N   UNL     1      44.374 -18.632   3.932  1.00  0.00    -0.268 N 
HETATM   17  C   UNL     1      43.649 -19.087   2.853  1.00  0.00     0.232 C 
HETATM   18  C   UNL     1      43.670 -20.580   2.672  1.00  0.00     0.119 C 
HETATM   19  O   UNL     1      43.052 -18.331   2.089  1.00  0.00    -0.272 OA
HETATM   20  H   UNL     1      44.650 -19.240   4.705  1.00  0.00     0.190 HD
ENDBRANCH  13  16
ENDBRANCH   1  12
BRANCH   6  21
HETATM   21  C   UNL     1      41.783 -14.920   3.553  1.00  0.00    -0.023 A 
HETATM   22  C   UNL     1      40.486 -15.439   3.666  1.00  0.00     0.012 A 
HETATM   23  C   UNL     1      39.771 -15.799   2.520  1.00  0.00     0.001 A 
HETATM   24  C   UNL     1      40.350 -15.649   1.260  1.00  0.00     0.000 A 
HETATM   25  C   UNL     1      41.641 -15.140   1.141  1.00  0.00     0.001 A 
HETATM   26  C   UNL     1      42.356 -14.776   2.284  1.00  0.00     0.012 A 
ENDBRANCH   6  21
TORSDOF 3
ENDMDL
MODEL 7
REMARK VINA RESULT:      -7.4      4.387      6.295
REMARK  3 active torsions:
REMARK  status: ('A' for Active; 'I' for Inactive)
REMARK       I    between atoms: C_2  and  N_3 
REMARK    1  A    between atoms: N_3  and  N_4 
REMARK       I    between atoms: N_4  and  C_5 
REMARK    2  A    between atoms: C_5  and  C_6 
REMARK    3  A    between atoms: C_11  and  C_12 
ROOT
HETATM    1  C   UNL     1      41.437 -14.052   1.417  1.00  0.00     0.115 A 
HETATM    2  N   UNL     1      41.933 -15.328   1.233  1.00  0.00    -0.350 N 
HETATM    3  H   UNL     1      41.826 -15.868   0.386  1.00  0.00     0.166 HD
HETATM    4  C   UNL     1      42.543 -15.801   2.368  1.00  0.00     0.044 A 
HETATM    5  C   UNL     1      42.433 -14.805   3.334  1.00  0.00     0.005 A 
HETATM    6  C   UNL     1      41.728 -13.709   2.735  1.00  0.00     0.019 A 
HETATM    7  C   UNL     1      43.169 -17.030   2.609  1.00  0.00     0.032 A 
HETATM    8  C   UNL     1      43.709 -17.243   3.881  1.00  0.00     0.021 A 
HETATM    9  C   UNL     1      43.619 -16.260   4.863  1.00  0.00     0.012 A 
HETATM   10 BR   UNL     1      44.361 -16.583   6.574  1.00  0.00    -0.051 Br
HETATM   11  C   UNL     1      42.990 -15.038   4.610  1.00  0.00     0.033 A 
ENDROOT
BRANCH   1  12
HETATM   12  C   UNL     1      40.713 -13.322   0.395  1.00  0.00     0.287 C 
HETATM   13  N   UNL     1      39.381 -13.689   0.269  1.00  0.00    -0.262 N 
HETATM   14  H   UNL     1      39.053 -14.600   0.585  1.00  0.00     0.190 HD
HETATM   15  O   UNL     1      41.194 -12.450  -0.327  1.00  0.00    -0.264 OA
BRANCH  13  16
HETATM   16  N   UNL     1      38.647 -13.137  -0.795  1.00  0.00    -0.268 N 
HETATM   17  C   UNL     1      38.530 -13.897  -1.938  1.00  0.00     0.232 C 
HETATM   18  C   UNL     1      37.878 -13.190  -3.094  1.00  0.00     0.119 C 
HETATM   19  O   UNL     1      38.909 -15.065  -1.999  1.00  0.00    -0.272 OA
HETATM   20  H   UNL     1      38.582 -12.118  -0.803  1.00  0.00     0.190 HD
ENDBRANCH  13  16
ENDBRANCH   1  12
BRANCH   6  21
HETATM   21  C   UNL     1      41.367 -12.446   3.360  1.00  0.00    -0.023 A 
HETATM   22  C   UNL     1      40.122 -12.283   3.981  1.00  0.00     0.012 A 
HETATM   23  C   UNL     1      39.774 -11.055   4.548  1.00  0.00     0.001 A 
HETATM   24  C   UNL     1      40.664  -9.982   4.492  1.00  0.00     0.000 A 
HETATM   25  C   UNL     1      41.902 -10.135   3.871  1.00  0.00     0.001 A 
HETATM   26  C   UNL     1      42.253 -11.363   3.306  1.00  0.00     0.012 A 
ENDBRANCH   6  21
TORSDOF 3
ENDMDL
MODEL 8
REMARK VINA RESULT:      -7.2      3.928      6.166
REMARK  3 active torsions:
REMARK  status: ('A' for Active; 'I' for Inactive)
REMARK       I    between atoms: C_2  and  N_3 
REMARK    1  A    between atoms: N_3  and  N_4 
REMARK       I    between atoms: N_4  and  C_5 
REMARK    2  A    between atoms: C_5  and  C_6 
REMARK    3  A    between atoms: C_11  and  C_12 
ROOT
HETATM    1  C   UNL     1      40.453 -14.098   5.905  1.00  0.00     0.115 A 
HETATM    2  N   UNL     1      39.747 -13.092   6.536  1.00  0.00    -0.350 N 
HETATM    3  H   UNL     1      39.422 -13.132   7.492  1.00  0.00     0.166 HD
HETATM    4  C   UNL     1      39.491 -12.045   5.686  1.00  0.00     0.044 A 
HETATM    5  C   UNL     1      40.035 -12.384   4.450  1.00  0.00     0.005 A 
HETATM    6  C   UNL     1      40.632 -13.680   4.590  1.00  0.00     0.019 A 
HETATM    7  C   UNL     1      38.814 -10.842   5.917  1.00  0.00     0.032 A 
HETATM    8  C   UNL     1      38.698  -9.949   4.846  1.00  0.00     0.021 A 
HETATM    9  C   UNL     1      39.241 -10.259   3.602  1.00  0.00     0.012 A 
HETATM   10 BR   UNL     1      39.065  -9.027   2.177  1.00  0.00    -0.051 Br
HETATM   11  C   UNL     1      39.913 -11.465   3.385  1.00  0.00     0.033 A 
ENDROOT
BRANCH   1  12
HETATM   12  C   UNL     1      40.828 -15.338   6.556  1.00  0.00     0.287 C 
HETATM   13  N   UNL     1      42.196 -15.540   6.653  1.00  0.00    -0.262 N 
HETATM   14  H   UNL     1      42.844 -15.070   6.024  1.00  0.00     0.190 HD
HETATM   15  O   UNL     1      40.038 -16.173   6.996  1.00  0.00    -0.264 OA
BRANCH  13  16
HETATM   16  N   UNL     1      42.642 -16.782   7.137  1.00  0.00    -0.268 N 
HETATM   17  C   UNL     1      43.109 -17.687   6.209  1.00  0.00     0.232 C 
HETATM   18  C   UNL     1      43.417 -19.049   6.764  1.00  0.00     0.119 C 
HETATM   19  O   UNL     1      43.280 -17.394   5.027  1.00  0.00    -0.272 OA
HETATM   20  H   UNL     1      42.257 -17.069   8.038  1.00  0.00     0.190 HD
ENDBRANCH  13  16
ENDBRANCH   1  12
BRANCH   6  21
HETATM   21  C   UNL     1      41.316 -14.451   3.562  1.00  0.00    -0.023 A 
HETATM   22  C   UNL     1      40.705 -15.570   2.980  1.00  0.00     0.012 A 
HETATM   23  C   UNL     1      41.386 -16.321   2.019  1.00  0.00     0.001 A 
HETATM   24  C   UNL     1      42.680 -15.965   1.641  1.00  0.00     0.000 A 
HETATM   25  C   UNL     1      43.296 -14.857   2.220  1.00  0.00     0.001 A 
HETATM   26  C   UNL     1      42.616 -14.102   3.178  1.00  0.00     0.012 A 
ENDBRANCH   6  21
TORSDOF 3
ENDMDL
MODEL 9
REMARK VINA RESULT:      -7.2      3.999      6.335
REMARK  3 active torsions:
REMARK  status: ('A' for Active; 'I' for Inactive)
REMARK       I    between atoms: C_2  and  N_3 
REMARK    1  A    between atoms: N_3  and  N_4 
REMARK       I    between atoms: N_4  and  C_5 
REMARK    2  A    between atoms: C_5  and  C_6 
REMARK    3  A    between atoms: C_11  and  C_12 
ROOT
HETATM    1  C   UNL     1      40.451 -14.850   1.498  1.00  0.00     0.115 A 
HETATM    2  N   UNL     1      39.817 -15.303   0.357  1.00  0.00    -0.350 N 
HETATM    3  H   UNL     1      39.469 -16.243   0.229  1.00  0.00     0.166 HD
HETATM    4  C   UNL     1      39.766 -14.332  -0.611  1.00  0.00     0.044 A 
HETATM    5  C   UNL     1      40.400 -13.207  -0.092  1.00  0.00     0.005 A 
HETATM    6  C   UNL     1      40.839 -13.540   1.233  1.00  0.00     0.019 A 
HETATM    7  C   UNL     1      39.218 -14.371  -1.899  1.00  0.00     0.032 A 
HETATM    8  C   UNL     1      39.316 -13.215  -2.680  1.00  0.00     0.021 A 
HETATM    9  C   UNL     1      39.939 -12.074  -2.182  1.00  0.00     0.012 A 
HETATM   10 BR   UNL     1      40.053 -10.527  -3.267  1.00  0.00    -0.051 Br
HETATM   11  C   UNL     1      40.483 -12.048  -0.894  1.00  0.00     0.033 A 
ENDROOT
BRANCH   1  12
HETATM   12  C   UNL     1      40.678 -15.678   2.666  1.00  0.00     0.287 C 
HETATM   13  N   UNL     1      40.074 -15.209   3.823  1.00  0.00    -0.262 N 
HETATM   14  H   UNL     1      39.824 -14.227   3.926  1.00  0.00     0.190 HD
HETATM   15  O   UNL     1      41.345 -16.712   2.682  1.00  0.00    -0.264 OA
BRANCH  13  16
HETATM   16  N   UNL     1      40.366 -15.871   5.029  1.00  0.00    -0.268 N 
HETATM   17  C   UNL     1      41.305 -15.291   5.853  1.00  0.00     0.232 C 
HETATM   18  C   UNL     1      41.692 -16.124   7.043  1.00  0.00     0.119 C 
HETATM   19  O   UNL     1      41.770 -14.173   5.642  1.00  0.00    -0.272 OA
HETATM   20  H   UNL     1      40.168 -16.873   5.041  1.00  0.00     0.190 HD
ENDBRANCH  13  16
ENDBRANCH   1  12
BRANCH   6  21
HETATM   21  C   UNL     1      41.559 -12.685   2.164  1.00  0.00    -0.023 A 
HETATM   22  C   UNL     1      40.939 -11.565   2.735  1.00  0.00     0.012 A 
HETATM   23  C   UNL     1      41.652 -10.733   3.601  1.00  0.00     0.001 A 
HETATM   24  C   UNL     1      42.987 -11.010   3.896  1.00  0.00     0.000 A 
HETATM   25  C   UNL     1      43.611 -12.119   3.327  1.00  0.00     0.001 A 
HETATM   26  C   UNL     1      42.900 -12.954   2.464  1.00  0.00     0.012 A 
ENDBRANCH   6  21
TORSDOF 3
ENDMDL
MODEL 10
REMARK VINA RESULT:      -7.1     12.331     15.282
REMARK  3 active torsions:
REMARK  status: ('A' for Active; 'I' for Inactive)
REMARK       I    between atoms: C_2  and  N_3 
REMARK    1  A    between atoms: N_3  and  N_4 
REMARK       I    between atoms: N_4  and  C_5 
REMARK    2  A    between atoms: C_5  and  C_6 
REMARK    3  A    between atoms: C_11  and  C_12 
ROOT
HETATM    1  C   UNL     1      40.315  -6.604  16.588  1.00  0.00     0.115 A 
HETATM    2  N   UNL     1      39.300  -5.729  16.923  1.00  0.00    -0.350 N 
HETATM    3  H   UNL     1      39.028  -5.502  17.870  1.00  0.00     0.166 HD
HETATM    4  C   UNL     1      38.664  -5.243  15.809  1.00  0.00     0.044 A 
HETATM    5  C   UNL     1      39.274  -5.830  14.704  1.00  0.00     0.005 A 
HETATM    6  C   UNL     1      40.307  -6.694  15.198  1.00  0.00     0.019 A 
HETATM    7  C   UNL     1      37.597  -4.343  15.701  1.00  0.00     0.032 A 
HETATM    8  C   UNL     1      37.144  -4.026  14.416  1.00  0.00     0.021 A 
HETATM    9  C   UNL     1      37.742  -4.594  13.294  1.00  0.00     0.012 A 
HETATM   10 BR   UNL     1      37.103  -4.142  11.571  1.00  0.00    -0.051 Br
HETATM   11  C   UNL     1      38.806  -5.492  13.416  1.00  0.00     0.033 A 
ENDROOT
BRANCH   1  12
HETATM   12  C   UNL     1      41.129  -7.295  17.568  1.00  0.00     0.287 C 
HETATM   13  N   UNL     1      40.495  -8.363  18.185  1.00  0.00    -0.262 N 
HETATM   14  H   UNL     1      39.479  -8.422  18.222  1.00  0.00     0.190 HD
HETATM   15  O   UNL     1      42.285  -6.995  17.866  1.00  0.00    -0.264 OA
BRANCH  13  16
HETATM   16  N   UNL     1      41.160  -8.993  19.251  1.00  0.00    -0.268 N 
HETATM   17  C   UNL     1      40.411  -9.301  20.366  1.00  0.00     0.232 C 
HETATM   18  C   UNL     1      41.208  -9.821  21.530  1.00  0.00     0.119 C 
HETATM   19  O   UNL     1      39.188  -9.179  20.396  1.00  0.00    -0.272 OA
HETATM   20  H   UNL     1      42.169  -8.842  19.292  1.00  0.00     0.190 HD
ENDBRANCH  13  16
ENDBRANCH   1  12
BRANCH   6  21
HETATM   21  C   UNL     1      41.208  -7.527  14.417  1.00  0.00    -0.023 A 
HETATM   22  C   UNL     1      42.463  -7.047  14.019  1.00  0.00     0.012 A 
HETATM   23  C   UNL     1      43.305  -7.845  13.240  1.00  0.00     0.001 A 
HETATM   24  C   UNL     1      42.896  -9.120  12.850  1.00  0.00     0.000 A 
HETATM   25  C   UNL     1      41.648  -9.601  13.238  1.00  0.00     0.001 A 
HETATM   26  C   UNL     1      40.806  -8.807  14.019  1.00  0.00     0.012 A 
ENDBRANCH   6  21
TORSDOF 3
ENDMDL
