MODEL 1
REMARK VINA RESULT:      -7.4      0.000      0.000
REMARK  4 active torsions:
REMARK  status: ('A' for Active; 'I' for Inactive)
REMARK    1  A    between atoms: S_2  and  N_3 
REMARK    2  A    between atoms: N_3  and  N_4 
REMARK    3  A    between atoms: C_10  and  C_11 
REMARK    4  A    between atoms: C_12  and  O_13 
ROOT
HETATM    1  N   UNL     1      42.539 -15.583   3.310  1.00  0.00    -0.224 N 
HETATM    2  C   UNL     1      43.083 -16.746   2.768  1.00  0.00     0.276 C 
HETATM    3  O   UNL     1      43.281 -16.955   1.577  1.00  0.00    -0.266 OA
HETATM    4  C   UNL     1      43.440 -17.786   3.764  1.00  0.00     0.055 A 
HETATM    5  C   UNL     1      43.172 -17.547   5.120  1.00  0.00     0.026 A 
HETATM    6  N   UNL     1      42.558 -16.351   5.549  1.00  0.00    -0.265 NA
HETATM    7  C   UNL     1      42.874 -15.215   4.678  1.00  0.00     0.224 C 
HETATM    8  C   UNL     1      43.992 -19.003   3.343  1.00  0.00     0.019 A 
HETATM    9  C   UNL     1      44.251 -20.004   4.275  1.00  0.00     0.001 A 
HETATM   10  C   UNL     1      43.942 -19.798   5.619  1.00  0.00     0.002 A 
HETATM   11  C   UNL     1      43.391 -18.583   6.036  1.00  0.00     0.024 A 
HETATM   12  H   UNL     1      42.793 -16.150   6.520  1.00  0.00     0.130 HD
ENDROOT
BRANCH   7  13
HETATM   13  C   UNL     1      42.142 -13.993   5.204  1.00  0.00     0.014 A 
HETATM   14  C   UNL     1      40.781 -14.013   5.545  1.00  0.00     0.075 A 
HETATM   15  C   UNL     1      40.124 -12.857   5.962  1.00  0.00     0.037 A 
HETATM   16  C   UNL     1      40.821 -11.655   6.050  1.00  0.00     0.003 A 
HETATM   17  C   UNL     1      42.172 -11.609   5.718  1.00  0.00     0.001 A 
HETATM   18  C   UNL     1      42.829 -12.767   5.295  1.00  0.00     0.013 A 
BRANCH  14  19
HETATM   19  O   UNL     1      40.026 -15.150   5.480  1.00  0.00    -0.360 OA
HETATM   20  H   UNL     1      39.936 -15.421   4.542  1.00  0.00     0.217 HD
ENDBRANCH  14  19
ENDBRANCH   7  13
BRANCH   1  21
HETATM   21  N   UNL     1      41.976 -14.528   2.423  1.00  0.00    -0.220 N 
HETATM   22  H   UNL     1      42.173 -13.558   2.678  1.00  0.00     0.200 HD
BRANCH  21  23
HETATM   23  S   UNL     1      40.421 -14.761   1.754  1.00  0.00     0.240 S 
HETATM   24  C   UNL     1      39.702 -13.173   2.104  1.00  0.00     0.187 C 
HETATM   25  O   UNL     1      39.699 -15.726   2.554  1.00  0.00    -0.205 OA
HETATM   26  O   UNL     1      40.540 -14.855   0.315  1.00  0.00    -0.205 OA
ENDBRANCH  21  23
ENDBRANCH   1  21
TORSDOF 4
ENDMDL
MODEL 2
REMARK VINA RESULT:      -7.4      2.194      3.858
REMARK  4 active torsions:
REMARK  status: ('A' for Active; 'I' for Inactive)
REMARK    1  A    between atoms: S_2  and  N_3 
REMARK    2  A    between atoms: N_3  and  N_4 
REMARK    3  A    between atoms: C_10  and  C_11 
REMARK    4  A    between atoms: C_12  and  O_13 
ROOT
HETATM    1  N   UNL     1      43.042 -16.148   4.306  1.00  0.00    -0.224 N 
HETATM    2  C   UNL     1      43.674 -17.231   4.914  1.00  0.00     0.276 C 
HETATM    3  O   UNL     1      44.221 -17.216   6.011  1.00  0.00    -0.266 OA
HETATM    4  C   UNL     1      43.651 -18.488   4.125  1.00  0.00     0.055 A 
HETATM    5  C   UNL     1      43.055 -18.479   2.855  1.00  0.00     0.026 A 
HETATM    6  N   UNL     1      42.498 -17.301   2.312  1.00  0.00    -0.265 NA
HETATM    7  C   UNL     1      41.979 -16.399   3.343  1.00  0.00     0.224 C 
HETATM    8  C   UNL     1      44.256 -19.646   4.629  1.00  0.00     0.019 A 
HETATM    9  C   UNL     1      44.298 -20.799   3.848  1.00  0.00     0.001 A 
HETATM   10  C   UNL     1      43.755 -20.788   2.565  1.00  0.00     0.002 A 
HETATM   11  C   UNL     1      43.151 -19.630   2.065  1.00  0.00     0.024 A 
HETATM   12  H   UNL     1      41.782 -17.524   1.620  1.00  0.00     0.130 HD
ENDROOT
BRANCH   7  13
HETATM   13  C   UNL     1      41.436 -15.155   2.661  1.00  0.00     0.014 A 
HETATM   14  C   UNL     1      42.213 -14.359   1.806  1.00  0.00     0.075 A 
HETATM   15  C   UNL     1      41.704 -13.189   1.248  1.00  0.00     0.037 A 
HETATM   16  C   UNL     1      40.400 -12.794   1.532  1.00  0.00     0.003 A 
HETATM   17  C   UNL     1      39.608 -13.567   2.376  1.00  0.00     0.001 A 
HETATM   18  C   UNL     1      40.121 -14.738   2.940  1.00  0.00     0.013 A 
BRANCH  14  19
HETATM   19  O   UNL     1      43.503 -14.675   1.482  1.00  0.00    -0.360 OA
HETATM   20  H   UNL     1      43.498 -15.310   0.734  1.00  0.00     0.217 HD
ENDBRANCH  14  19
ENDBRANCH   7  13
BRANCH   1  21
HETATM   21  N   UNL     1      43.138 -14.787   4.900  1.00  0.00    -0.220 N 
HETATM   22  H   UNL     1      44.056 -14.337   4.875  1.00  0.00     0.200 HD
BRANCH  21  23
HETATM   23  S   UNL     1      42.242 -14.442   6.314  1.00  0.00     0.240 S 
HETATM   24  C   UNL     1      41.582 -12.852   5.871  1.00  0.00     0.187 C 
HETATM   25  O   UNL     1      43.156 -14.218   7.413  1.00  0.00    -0.205 OA
HETATM   26  O   UNL     1      41.119 -15.352   6.389  1.00  0.00    -0.205 OA
ENDBRANCH  21  23
ENDBRANCH   1  21
TORSDOF 4
ENDMDL
MODEL 3
REMARK VINA RESULT:      -7.2      2.416      4.297
REMARK  4 active torsions:
REMARK  status: ('A' for Active; 'I' for Inactive)
REMARK    1  A    between atoms: S_2  and  N_3 
REMARK    2  A    between atoms: N_3  and  N_4 
REMARK    3  A    between atoms: C_10  and  C_11 
REMARK    4  A    between atoms: C_12  and  O_13 
ROOT
HETATM    1  N   UNL     1      40.647 -15.045   3.817  1.00  0.00    -0.224 N 
HETATM    2  C   UNL     1      40.929 -15.721   5.003  1.00  0.00     0.276 C 
HETATM    3  O   UNL     1      40.306 -15.613   6.053  1.00  0.00    -0.266 OA
HETATM    4  C   UNL     1      42.092 -16.640   4.932  1.00  0.00     0.055 A 
HETATM    5  C   UNL     1      42.819 -16.723   3.735  1.00  0.00     0.026 A 
HETATM    6  N   UNL     1      42.477 -15.941   2.611  1.00  0.00    -0.265 NA
HETATM    7  C   UNL     1      41.043 -15.644   2.550  1.00  0.00     0.224 C 
HETATM    8  C   UNL     1      42.478 -17.373   6.061  1.00  0.00     0.019 A 
HETATM    9  C   UNL     1      43.617 -18.173   6.009  1.00  0.00     0.001 A 
HETATM   10  C   UNL     1      44.376 -18.225   4.842  1.00  0.00     0.002 A 
HETATM   11  C   UNL     1      43.988 -17.492   3.716  1.00  0.00     0.024 A 
HETATM   12  H   UNL     1      42.800 -16.381   1.750  1.00  0.00     0.130 HD
ENDROOT
BRANCH   7  13
HETATM   13  C   UNL     1      40.786 -14.776   1.331  1.00  0.00     0.014 A 
HETATM   14  C   UNL     1      41.364 -13.507   1.169  1.00  0.00     0.075 A 
HETATM   15  C   UNL     1      41.056 -12.709   0.069  1.00  0.00     0.037 A 
HETATM   16  C   UNL     1      40.164 -13.169  -0.895  1.00  0.00     0.003 A 
HETATM   17  C   UNL     1      39.578 -14.424  -0.758  1.00  0.00     0.001 A 
HETATM   18  C   UNL     1      39.883 -15.222   0.347  1.00  0.00     0.013 A 
BRANCH  14  19
HETATM   19  O   UNL     1      42.245 -12.983   2.072  1.00  0.00    -0.360 OA
HETATM   20  H   UNL     1      42.760 -13.713   2.477  1.00  0.00     0.217 HD
ENDBRANCH  14  19
ENDBRANCH   7  13
BRANCH   1  21
HETATM   21  N   UNL     1      39.622 -13.966   3.788  1.00  0.00    -0.220 N 
HETATM   22  H   UNL     1      39.157 -13.797   2.894  1.00  0.00     0.200 HD
BRANCH  21  23
HETATM   23  S   UNL     1      39.898 -12.547   4.699  1.00  0.00     0.240 S 
HETATM   24  C   UNL     1      39.207 -11.340   3.592  1.00  0.00     0.187 C 
HETATM   25  O   UNL     1      41.320 -12.288   4.757  1.00  0.00    -0.205 OA
HETATM   26  O   UNL     1      39.048 -12.571   5.870  1.00  0.00    -0.205 OA
ENDBRANCH  21  23
ENDBRANCH   1  21
TORSDOF 4
ENDMDL
MODEL 4
REMARK VINA RESULT:      -7.1      8.445     11.409
REMARK  4 active torsions:
REMARK  status: ('A' for Active; 'I' for Inactive)
REMARK    1  A    between atoms: S_2  and  N_3 
REMARK    2  A    between atoms: N_3  and  N_4 
REMARK    3  A    between atoms: C_10  and  C_11 
REMARK    4  A    between atoms: C_12  and  O_13 
ROOT
HETATM    1  N   UNL     1      41.778  -9.394  12.004  1.00  0.00    -0.224 N 
HETATM    2  C   UNL     1      40.977  -9.402  13.144  1.00  0.00     0.276 C 
HETATM    3  O   UNL     1      39.943 -10.045  13.287  1.00  0.00    -0.266 OA
HETATM    4  C   UNL     1      41.463  -8.544  14.252  1.00  0.00     0.055 A 
HETATM    5  C   UNL     1      42.627  -7.784  14.059  1.00  0.00     0.026 A 
HETATM    6  N   UNL     1      43.327  -7.807  12.834  1.00  0.00    -0.265 NA
HETATM    7  C   UNL     1      43.196  -9.091  12.138  1.00  0.00     0.224 C 
HETATM    8  C   UNL     1      40.742  -8.464  15.450  1.00  0.00     0.019 A 
HETATM    9  C   UNL     1      41.164  -7.597  16.454  1.00  0.00     0.001 A 
HETATM   10  C   UNL     1      42.289  -6.799  16.255  1.00  0.00     0.002 A 
HETATM   11  C   UNL     1      43.007  -6.880  15.058  1.00  0.00     0.024 A 
HETATM   12  H   UNL     1      44.306  -7.558  12.969  1.00  0.00     0.130 HD
ENDROOT
BRANCH   7  13
HETATM   13  C   UNL     1      43.952  -9.002  10.824  1.00  0.00     0.014 A 
HETATM   14  C   UNL     1      43.764  -7.952   9.912  1.00  0.00     0.075 A 
HETATM   15  C   UNL     1      44.426  -7.935   8.686  1.00  0.00     0.037 A 
HETATM   16  C   UNL     1      45.295  -8.969   8.350  1.00  0.00     0.003 A 
HETATM   17  C   UNL     1      45.499 -10.021   9.238  1.00  0.00     0.001 A 
HETATM   18  C   UNL     1      44.832 -10.041  10.465  1.00  0.00     0.013 A 
BRANCH  14  19
HETATM   19  O   UNL     1      42.926  -6.903  10.164  1.00  0.00    -0.360 OA
HETATM   20  H   UNL     1      42.790  -6.829  11.133  1.00  0.00     0.217 HD
ENDBRANCH  14  19
ENDBRANCH   7  13
BRANCH   1  21
HETATM   21  N   UNL     1      41.324 -10.068  10.757  1.00  0.00    -0.220 N 
HETATM   22  H   UNL     1      42.034 -10.573  10.222  1.00  0.00     0.200 HD
BRANCH  21  23
HETATM   23  S   UNL     1      40.151  -9.295   9.784  1.00  0.00     0.240 S 
HETATM   24  C   UNL     1      40.921  -9.467   8.191  1.00  0.00     0.187 C 
HETATM   25  O   UNL     1      40.142  -7.880  10.088  1.00  0.00    -0.205 OA
HETATM   26  O   UNL     1      38.955 -10.108   9.758  1.00  0.00    -0.205 OA
ENDBRANCH  21  23
ENDBRANCH   1  21
TORSDOF 4
ENDMDL
MODEL 5
REMARK VINA RESULT:      -7.1      2.503      3.886
REMARK  4 active torsions:
REMARK  status: ('A' for Active; 'I' for Inactive)
REMARK    1  A    between atoms: S_2  and  N_3 
REMARK    2  A    between atoms: N_3  and  N_4 
REMARK    3  A    between atoms: C_10  and  C_11 
REMARK    4  A    between atoms: C_12  and  O_13 
ROOT
HETATM    1  N   UNL     1      42.388 -14.254   4.291  1.00  0.00    -0.224 N 
HETATM    2  C   UNL     1      43.141 -15.155   5.042  1.00  0.00     0.276 C 
HETATM    3  O   UNL     1      43.576 -14.956   6.171  1.00  0.00    -0.266 OA
HETATM    4  C   UNL     1      43.407 -16.452   4.373  1.00  0.00     0.055 A 
HETATM    5  C   UNL     1      42.935 -16.649   3.066  1.00  0.00     0.026 A 
HETATM    6  N   UNL     1      42.233 -15.637   2.376  1.00  0.00    -0.265 NA
HETATM    7  C   UNL     1      41.476 -14.766   3.279  1.00  0.00     0.224 C 
HETATM    8  C   UNL     1      44.157 -17.439   5.024  1.00  0.00     0.019 A 
HETATM    9  C   UNL     1      44.468 -18.622   4.359  1.00  0.00     0.001 A 
HETATM   10  C   UNL     1      44.049 -18.809   3.043  1.00  0.00     0.002 A 
HETATM   11  C   UNL     1      43.301 -17.822   2.394  1.00  0.00     0.024 A 
HETATM   12  H   UNL     1      41.632 -16.038   1.657  1.00  0.00     0.130 HD
ENDROOT
BRANCH   7  13
HETATM   13  C   UNL     1      40.788 -13.698   2.446  1.00  0.00     0.014 A 
HETATM   14  C   UNL     1      39.661 -12.995   2.898  1.00  0.00     0.075 A 
HETATM   15  C   UNL     1      39.015 -12.068   2.083  1.00  0.00     0.037 A 
HETATM   16  C   UNL     1      39.489 -11.822   0.798  1.00  0.00     0.003 A 
HETATM   17  C   UNL     1      40.606 -12.506   0.327  1.00  0.00     0.001 A 
HETATM   18  C   UNL     1      41.250 -13.439   1.142  1.00  0.00     0.013 A 
BRANCH  14  19
HETATM   19  O   UNL     1      39.131 -13.181   4.144  1.00  0.00    -0.360 OA
HETATM   20  H   UNL     1      39.063 -14.144   4.321  1.00  0.00     0.217 HD
ENDBRANCH  14  19
ENDBRANCH   7  13
BRANCH   1  21
HETATM   21  N   UNL     1      42.193 -12.856   4.763  1.00  0.00    -0.220 N 
HETATM   22  H   UNL     1      41.235 -12.500   4.766  1.00  0.00     0.200 HD
BRANCH  21  23
HETATM   23  S   UNL     1      43.362 -11.679   4.351  1.00  0.00     0.240 S 
HETATM   24  C   UNL     1      42.315 -10.248   4.221  1.00  0.00     0.187 C 
HETATM   25  O   UNL     1      43.859 -11.949   3.020  1.00  0.00    -0.205 OA
HETATM   26  O   UNL     1      44.225 -11.459   5.491  1.00  0.00    -0.205 OA
ENDBRANCH  21  23
ENDBRANCH   1  21
TORSDOF 4
ENDMDL
MODEL 6
REMARK VINA RESULT:      -7.1      2.806      3.928
REMARK  4 active torsions:
REMARK  status: ('A' for Active; 'I' for Inactive)
REMARK    1  A    between atoms: S_2  and  N_3 
REMARK    2  A    between atoms: N_3  and  N_4 
REMARK    3  A    between atoms: C_10  and  C_11 
REMARK    4  A    between atoms: C_12  and  O_13 
ROOT
HETATM    1  N   UNL     1      42.504 -14.129   5.525  1.00  0.00    -0.224 N 
HETATM    2  C   UNL     1      43.323 -15.250   5.641  1.00  0.00     0.276 C 
HETATM    3  O   UNL     1      44.127 -15.458   6.542  1.00  0.00    -0.266 OA
HETATM    4  C   UNL     1      43.166 -16.249   4.555  1.00  0.00     0.055 A 
HETATM    5  C   UNL     1      42.270 -15.979   3.510  1.00  0.00     0.026 A 
HETATM    6  N   UNL     1      41.534 -14.775   3.465  1.00  0.00    -0.265 NA
HETATM    7  C   UNL     1      41.247 -14.243   4.800  1.00  0.00     0.224 C 
HETATM    8  C   UNL     1      43.938 -17.418   4.557  1.00  0.00     0.019 A 
HETATM    9  C   UNL     1      43.841 -18.312   3.494  1.00  0.00     0.001 A 
HETATM   10  C   UNL     1      42.992 -18.030   2.425  1.00  0.00     0.002 A 
HETATM   11  C   UNL     1      42.223 -16.862   2.425  1.00  0.00     0.024 A 
HETATM   12  H   UNL     1      40.679 -14.892   2.921  1.00  0.00     0.130 HD
ENDROOT
BRANCH   7  13
HETATM   13  C   UNL     1      40.485 -12.939   4.641  1.00  0.00     0.014 A 
HETATM   14  C   UNL     1      39.714 -12.381   5.673  1.00  0.00     0.075 A 
HETATM   15  C   UNL     1      38.976 -11.217   5.473  1.00  0.00     0.037 A 
HETATM   16  C   UNL     1      38.998 -10.584   4.234  1.00  0.00     0.003 A 
HETATM   17  C   UNL     1      39.755 -11.117   3.194  1.00  0.00     0.001 A 
HETATM   18  C   UNL     1      40.492 -12.287   3.394  1.00  0.00     0.013 A 
BRANCH  14  19
HETATM   19  O   UNL     1      39.636 -12.944   6.915  1.00  0.00    -0.360 OA
HETATM   20  H   UNL     1      40.401 -12.644   7.451  1.00  0.00     0.217 HD
ENDBRANCH  14  19
ENDBRANCH   7  13
BRANCH   1  21
HETATM   21  N   UNL     1      42.676 -12.970   6.443  1.00  0.00    -0.220 N 
HETATM   22  H   UNL     1      41.875 -12.722   7.027  1.00  0.00     0.200 HD
BRANCH  21  23
HETATM   23  S   UNL     1      43.577 -11.622   5.904  1.00  0.00     0.240 S 
HETATM   24  C   UNL     1      45.056 -11.845   6.864  1.00  0.00     0.187 C 
HETATM   25  O   UNL     1      42.952 -10.409   6.385  1.00  0.00    -0.205 OA
HETATM   26  O   UNL     1      43.946 -11.829   4.520  1.00  0.00    -0.205 OA
ENDBRANCH  21  23
ENDBRANCH   1  21
TORSDOF 4
ENDMDL
MODEL 7
REMARK VINA RESULT:      -6.8      1.261      1.591
REMARK  4 active torsions:
REMARK  status: ('A' for Active; 'I' for Inactive)
REMARK    1  A    between atoms: S_2  and  N_3 
REMARK    2  A    between atoms: N_3  and  N_4 
REMARK    3  A    between atoms: C_10  and  C_11 
REMARK    4  A    between atoms: C_12  and  O_13 
ROOT
HETATM    1  N   UNL     1      42.413 -15.064   2.885  1.00  0.00    -0.224 N 
HETATM    2  C   UNL     1      42.995 -16.223   2.373  1.00  0.00     0.276 C 
HETATM    3  O   UNL     1      43.199 -16.456   1.188  1.00  0.00    -0.266 OA
HETATM    4  C   UNL     1      43.384 -17.226   3.394  1.00  0.00     0.055 A 
HETATM    5  C   UNL     1      43.108 -16.961   4.745  1.00  0.00     0.026 A 
HETATM    6  N   UNL     1      42.456 -15.775   5.143  1.00  0.00    -0.265 NA
HETATM    7  C   UNL     1      42.736 -14.652   4.244  1.00  0.00     0.224 C 
HETATM    8  C   UNL     1      43.975 -18.434   3.004  1.00  0.00     0.019 A 
HETATM    9  C   UNL     1      44.265 -19.403   3.962  1.00  0.00     0.001 A 
HETATM   10  C   UNL     1      43.949 -19.173   5.300  1.00  0.00     0.002 A 
HETATM   11  C   UNL     1      43.359 -17.966   5.687  1.00  0.00     0.024 A 
HETATM   12  H   UNL     1      42.684 -15.542   6.109  1.00  0.00     0.130 HD
ENDROOT
BRANCH   7  13
HETATM   13  C   UNL     1      41.966 -13.440   4.738  1.00  0.00     0.014 A 
HETATM   14  C   UNL     1      42.405 -12.124   4.524  1.00  0.00     0.075 A 
HETATM   15  C   UNL     1      41.709 -11.037   5.048  1.00  0.00     0.037 A 
HETATM   16  C   UNL     1      40.553 -11.246   5.795  1.00  0.00     0.003 A 
HETATM   17  C   UNL     1      40.096 -12.542   6.021  1.00  0.00     0.001 A 
HETATM   18  C   UNL     1      40.797 -13.632   5.500  1.00  0.00     0.013 A 
BRANCH  14  19
HETATM   19  O   UNL     1      43.531 -11.835   3.807  1.00  0.00    -0.360 OA
HETATM   20  H   UNL     1      43.877 -12.662   3.408  1.00  0.00     0.217 HD
ENDBRANCH  14  19
ENDBRANCH   7  13
BRANCH   1  21
HETATM   21  N   UNL     1      41.818 -14.051   1.972  1.00  0.00    -0.220 N 
HETATM   22  H   UNL     1      42.081 -13.076   2.131  1.00  0.00     0.200 HD
BRANCH  21  23
HETATM   23  S   UNL     1      40.197 -14.252   1.467  1.00  0.00     0.240 S 
HETATM   24  C   UNL     1      39.518 -12.702   2.011  1.00  0.00     0.187 C 
HETATM   25  O   UNL     1      39.573 -15.281   2.270  1.00  0.00    -0.205 OA
HETATM   26  O   UNL     1      40.154 -14.239   0.021  1.00  0.00    -0.205 OA
ENDBRANCH  21  23
ENDBRANCH   1  21
TORSDOF 4
ENDMDL
MODEL 8
REMARK VINA RESULT:      -6.8      3.163      5.606
REMARK  4 active torsions:
REMARK  status: ('A' for Active; 'I' for Inactive)
REMARK    1  A    between atoms: S_2  and  N_3 
REMARK    2  A    between atoms: N_3  and  N_4 
REMARK    3  A    between atoms: C_10  and  C_11 
REMARK    4  A    between atoms: C_12  and  O_13 
ROOT
HETATM    1  N   UNL     1      39.977 -13.949   1.745  1.00  0.00    -0.224 N 
HETATM    2  C   UNL     1      40.287 -14.422   3.018  1.00  0.00     0.276 C 
HETATM    3  O   UNL     1      39.731 -14.091   4.059  1.00  0.00    -0.266 OA
HETATM    4  C   UNL     1      41.392 -15.411   3.061  1.00  0.00     0.055 A 
HETATM    5  C   UNL     1      42.045 -15.750   1.866  1.00  0.00     0.026 A 
HETATM    6  N   UNL     1      41.684 -15.158   0.637  1.00  0.00    -0.265 NA
HETATM    7  C   UNL     1      40.267 -14.785   0.589  1.00  0.00     0.224 C 
HETATM    8  C   UNL     1      41.800 -15.957   4.285  1.00  0.00     0.019 A 
HETATM    9  C   UNL     1      42.888 -16.825   4.326  1.00  0.00     0.001 A 
HETATM   10  C   UNL     1      43.577 -17.130   3.153  1.00  0.00     0.002 A 
HETATM   11  C   UNL     1      43.168 -16.583   1.933  1.00  0.00     0.024 A 
HETATM   12  H   UNL     1      41.934 -15.763  -0.145  1.00  0.00     0.130 HD
ENDROOT
BRANCH   7  13
HETATM   13  C   UNL     1      39.991 -14.131  -0.754  1.00  0.00     0.014 A 
HETATM   14  C   UNL     1      40.631 -12.953  -1.168  1.00  0.00     0.075 A 
HETATM   15  C   UNL     1      40.306 -12.343  -2.377  1.00  0.00     0.037 A 
HETATM   16  C   UNL     1      39.335 -12.904  -3.201  1.00  0.00     0.003 A 
HETATM   17  C   UNL     1      38.686 -14.073  -2.813  1.00  0.00     0.001 A 
HETATM   18  C   UNL     1      39.008 -14.682  -1.598  1.00  0.00     0.013 A 
BRANCH  14  19
HETATM   19  O   UNL     1      41.591 -12.337  -0.416  1.00  0.00    -0.360 OA
HETATM   20  H   UNL     1      42.071 -11.692  -0.977  1.00  0.00     0.217 HD
ENDBRANCH  14  19
ENDBRANCH   7  13
BRANCH   1  21
HETATM   21  N   UNL     1      39.012 -12.829   1.569  1.00  0.00    -0.220 N 
HETATM   22  H   UNL     1      38.467 -12.821   0.705  1.00  0.00     0.200 HD
BRANCH  21  23
HETATM   23  S   UNL     1      39.454 -11.271   2.117  1.00  0.00     0.240 S 
HETATM   24  C   UNL     1      38.806 -10.289   0.784  1.00  0.00     0.187 C 
HETATM   25  O   UNL     1      40.894 -11.139   2.064  1.00  0.00    -0.205 OA
HETATM   26  O   UNL     1      38.670 -10.949   3.289  1.00  0.00    -0.205 OA
ENDBRANCH  21  23
ENDBRANCH   1  21
TORSDOF 4
ENDMDL
MODEL 9
REMARK VINA RESULT:      -6.7      3.166      4.601
REMARK  4 active torsions:
REMARK  status: ('A' for Active; 'I' for Inactive)
REMARK    1  A    between atoms: S_2  and  N_3 
REMARK    2  A    between atoms: N_3  and  N_4 
REMARK    3  A    between atoms: C_10  and  C_11 
REMARK    4  A    between atoms: C_12  and  O_13 
ROOT
HETATM    1  N   UNL     1      42.235 -13.550   5.411  1.00  0.00    -0.224 N 
HETATM    2  C   UNL     1      42.820 -14.799   5.610  1.00  0.00     0.276 C 
HETATM    3  O   UNL     1      43.236 -15.232   6.678  1.00  0.00    -0.266 OA
HETATM    4  C   UNL     1      42.922 -15.638   4.391  1.00  0.00     0.055 A 
HETATM    5  C   UNL     1      42.477 -15.114   3.168  1.00  0.00     0.026 A 
HETATM    6  N   UNL     1      41.955 -13.805   3.074  1.00  0.00    -0.265 NA
HETATM    7  C   UNL     1      41.297 -13.375   4.311  1.00  0.00     0.224 C 
HETATM    8  C   UNL     1      43.496 -16.914   4.460  1.00  0.00     0.019 A 
HETATM    9  C   UNL     1      43.659 -17.663   3.298  1.00  0.00     0.001 A 
HETATM   10  C   UNL     1      43.268 -17.132   2.070  1.00  0.00     0.002 A 
HETATM   11  C   UNL     1      42.695 -15.859   2.003  1.00  0.00     0.024 A 
HETATM   12  H   UNL     1      41.331 -13.720   2.273  1.00  0.00     0.130 HD
ENDROOT
BRANCH   7  13
HETATM   13  C   UNL     1      40.803 -11.952   4.119  1.00  0.00     0.014 A 
HETATM   14  C   UNL     1      41.611 -10.935   3.586  1.00  0.00     0.075 A 
HETATM   15  C   UNL     1      41.148  -9.625   3.484  1.00  0.00     0.037 A 
HETATM   16  C   UNL     1      39.862  -9.307   3.911  1.00  0.00     0.003 A 
HETATM   17  C   UNL     1      39.041 -10.298   4.443  1.00  0.00     0.001 A 
HETATM   18  C   UNL     1      39.507 -11.610   4.550  1.00  0.00     0.013 A 
BRANCH  14  19
HETATM   19  O   UNL     1      42.885 -11.165   3.149  1.00  0.00    -0.360 OA
HETATM   20  H   UNL     1      43.471 -10.453   3.486  1.00  0.00     0.217 HD
ENDBRANCH  14  19
ENDBRANCH   7  13
BRANCH   1  21
HETATM   21  N   UNL     1      42.225 -12.538   6.503  1.00  0.00    -0.220 N 
HETATM   22  H   UNL     1      41.358 -12.015   6.638  1.00  0.00     0.200 HD
BRANCH  21  23
HETATM   23  S   UNL     1      43.636 -11.614   6.780  1.00  0.00     0.240 S 
HETATM   24  C   UNL     1      42.907 -10.007   6.988  1.00  0.00     0.187 C 
HETATM   25  O   UNL     1      44.415 -11.560   5.562  1.00  0.00    -0.205 OA
HETATM   26  O   UNL     1      44.194 -11.986   8.062  1.00  0.00    -0.205 OA
ENDBRANCH  21  23
ENDBRANCH   1  21
TORSDOF 4
ENDMDL
MODEL 10
REMARK VINA RESULT:      -6.7      6.908      9.827
REMARK  4 active torsions:
REMARK  status: ('A' for Active; 'I' for Inactive)
REMARK    1  A    between atoms: S_2  and  N_3 
REMARK    2  A    between atoms: N_3  and  N_4 
REMARK    3  A    between atoms: C_10  and  C_11 
REMARK    4  A    between atoms: C_12  and  O_13 
ROOT
HETATM    1  N   UNL     1      42.050  -9.439   9.659  1.00  0.00    -0.224 N 
HETATM    2  C   UNL     1      41.028  -9.165  10.565  1.00  0.00     0.276 C 
HETATM    3  O   UNL     1      39.828  -9.274  10.344  1.00  0.00    -0.266 OA
HETATM    4  C   UNL     1      41.488  -8.708  11.900  1.00  0.00     0.055 A 
HETATM    5  C   UNL     1      42.864  -8.551  12.125  1.00  0.00     0.026 A 
HETATM    6  N   UNL     1      43.809  -8.801  11.108  1.00  0.00    -0.265 NA
HETATM    7  C   UNL     1      43.359  -9.828  10.164  1.00  0.00     0.224 C 
HETATM    8  C   UNL     1      40.555  -8.396  12.897  1.00  0.00     0.019 A 
HETATM    9  C   UNL     1      40.992  -7.893  14.119  1.00  0.00     0.001 A 
HETATM   10  C   UNL     1      42.352  -7.685  14.338  1.00  0.00     0.002 A 
HETATM   11  C   UNL     1      43.282  -7.996  13.341  1.00  0.00     0.024 A 
HETATM   12  H   UNL     1      44.718  -9.037  11.506  1.00  0.00     0.130 HD
ENDROOT
BRANCH   7  13
HETATM   13  C   UNL     1      44.426  -9.997   9.097  1.00  0.00     0.014 A 
HETATM   14  C   UNL     1      44.520 -11.145   8.295  1.00  0.00     0.075 A 
HETATM   15  C   UNL     1      45.551 -11.296   7.371  1.00  0.00     0.037 A 
HETATM   16  C   UNL     1      46.509 -10.297   7.227  1.00  0.00     0.003 A 
HETATM   17  C   UNL     1      46.437  -9.148   8.010  1.00  0.00     0.001 A 
HETATM   18  C   UNL     1      45.406  -8.999   8.940  1.00  0.00     0.013 A 
BRANCH  14  19
HETATM   19  O   UNL     1      43.623 -12.172   8.378  1.00  0.00    -0.360 OA
HETATM   20  H   UNL     1      43.893 -12.773   9.106  1.00  0.00     0.217 HD
ENDBRANCH  14  19
ENDBRANCH   7  13
BRANCH   1  21
HETATM   21  N   UNL     1      41.736  -9.738   8.235  1.00  0.00    -0.220 N 
HETATM   22  H   UNL     1      42.206 -10.545   7.819  1.00  0.00     0.200 HD
BRANCH  21  23
HETATM   23  S   UNL     1      41.519  -8.435   7.150  1.00  0.00     0.240 S 
HETATM   24  C   UNL     1      41.717  -9.293   5.606  1.00  0.00     0.187 C 
HETATM   25  O   UNL     1      42.641  -7.529   7.266  1.00  0.00    -0.205 OA
HETATM   26  O   UNL     1      40.140  -8.002   7.211  1.00  0.00    -0.205 OA
ENDBRANCH  21  23
ENDBRANCH   1  21
TORSDOF 4
ENDMDL
