MODEL 1
REMARK VINA RESULT:      -8.7      0.000      0.000
REMARK  6 active torsions:
REMARK  status: ('A' for Active; 'I' for Inactive)
REMARK    1  A    between atoms: O_2  and  C_3 
REMARK    2  A    between atoms: C_6  and  C_7 
REMARK    3  A    between atoms: C_11  and  C_12 
REMARK       I    between atoms: C_12  and  N_13 
REMARK    4  A    between atoms: N_13  and  N_14 
REMARK       I    between atoms: N_14  and  C_15 
REMARK    5  A    between atoms: C_15  and  C_16 
REMARK    6  A    between atoms: C_16  and  C_17 
ROOT
HETATM    1  C   UNL     1      43.478 -11.768   7.003  1.00  0.00     0.288 C 
HETATM    2  N   UNL     1      43.539 -11.576   8.367  1.00  0.00    -0.262 N 
HETATM    3  O   UNL     1      43.521 -10.831   6.209  1.00  0.00    -0.264 OA
HETATM    4  H   UNL     1      43.377 -12.321   9.040  1.00  0.00     0.190 HD
ENDROOT
BRANCH   1   5
HETATM    5  C   UNL     1      43.353 -13.137   6.581  1.00  0.00     0.121 A 
HETATM    6  N   UNL     1      43.141 -14.150   7.472  1.00  0.00    -0.272 N 
HETATM    7  N   UNL     1      43.033 -15.364   6.911  1.00  0.00    -0.174 NA
HETATM    8  H   UNL     1      43.055 -14.067   8.482  1.00  0.00     0.189 HD
HETATM    9  C   UNL     1      43.201 -15.148   5.597  1.00  0.00     0.089 A 
HETATM   10  C   UNL     1      43.399 -13.758   5.350  1.00  0.00     0.071 A 
BRANCH   9  11
HETATM   11  C   UNL     1      43.156 -16.239   4.620  1.00  0.00    -0.005 A 
HETATM   12  C   UNL     1      42.342 -16.142   3.482  1.00  0.00     0.016 A 
HETATM   13  C   UNL     1      42.308 -17.168   2.527  1.00  0.00     0.037 A 
HETATM   14  C   UNL     1      43.087 -18.310   2.700  1.00  0.00     0.068 A 
HETATM   15  C   UNL     1      43.886 -18.422   3.839  1.00  0.00     0.037 A 
HETATM   16  C   UNL     1      43.925 -17.398   4.791  1.00  0.00     0.016 A 
BRANCH  14  17
HETATM   17  O   UNL     1      43.153 -19.377   1.848  1.00  0.00    -0.356 OA
HETATM   18  C   UNL     1      43.814 -20.541   2.329  1.00  0.00     0.210 C 
ENDBRANCH  14  17
ENDBRANCH   9  11
ENDBRANCH   1   5
BRANCH   2  19
HETATM   19  N   UNL     1      43.488 -10.273   8.874  1.00  0.00    -0.267 N 
HETATM   20  C   UNL     1      43.697 -10.097  10.224  1.00  0.00     0.240 C 
HETATM   21  O   UNL     1      44.011 -11.027  10.969  1.00  0.00    -0.272 OA
HETATM   22  H   UNL     1      43.175  -9.537   8.241  1.00  0.00     0.190 HD
BRANCH  20  23
HETATM   23  C   UNL     1      43.519  -8.675  10.712  1.00  0.00     0.144 C 
BRANCH  23  24
HETATM   24  C   UNL     1      42.692  -8.601  11.972  1.00  0.00    -0.028 A 
HETATM   25  C   UNL     1      41.342  -8.982  12.020  1.00  0.00     0.040 A 
HETATM   26 CL   UNL     1      40.516  -9.586  10.628  1.00  0.00    -0.084 Cl
HETATM   27  C   UNL     1      40.616  -8.880  13.211  1.00  0.00     0.024 A 
HETATM   28  C   UNL     1      41.224  -8.387  14.365  1.00  0.00     0.002 A 
HETATM   29  C   UNL     1      42.558  -7.991  14.328  1.00  0.00     0.001 A 
HETATM   30  C   UNL     1      43.286  -8.094  13.142  1.00  0.00     0.009 A 
ENDBRANCH  23  24
ENDBRANCH  20  23
ENDBRANCH   2  19
TORSDOF 6
ENDMDL
MODEL 2
REMARK VINA RESULT:      -8.5      1.885      2.472
REMARK  6 active torsions:
REMARK  status: ('A' for Active; 'I' for Inactive)
REMARK    1  A    between atoms: O_2  and  C_3 
REMARK    2  A    between atoms: C_6  and  C_7 
REMARK    3  A    between atoms: C_11  and  C_12 
REMARK       I    between atoms: C_12  and  N_13 
REMARK    4  A    between atoms: N_13  and  N_14 
REMARK       I    between atoms: N_14  and  C_15 
REMARK    5  A    between atoms: C_15  and  C_16 
REMARK    6  A    between atoms: C_16  and  C_17 
ROOT
HETATM    1  C   UNL     1      42.952 -11.779   6.678  1.00  0.00     0.288 C 
HETATM    2  N   UNL     1      43.661 -12.066   7.825  1.00  0.00    -0.262 N 
HETATM    3  O   UNL     1      42.425 -10.683   6.494  1.00  0.00    -0.264 OA
HETATM    4  H   UNL     1      43.993 -13.001   8.053  1.00  0.00     0.190 HD
ENDROOT
BRANCH   1   5
HETATM    5  C   UNL     1      42.869 -12.850   5.723  1.00  0.00     0.121 A 
HETATM    6  N   UNL     1      42.258 -12.690   4.512  1.00  0.00    -0.272 N 
HETATM    7  N   UNL     1      42.282 -13.783   3.734  1.00  0.00    -0.174 NA
HETATM    8  H   UNL     1      41.811 -11.848   4.160  1.00  0.00     0.189 HD
HETATM    9  C   UNL     1      42.916 -14.711   4.470  1.00  0.00     0.089 A 
HETATM   10  C   UNL     1      43.306 -14.159   5.725  1.00  0.00     0.071 A 
BRANCH   9  11
HETATM   11  C   UNL     1      43.149 -16.069   3.972  1.00  0.00    -0.005 A 
HETATM   12  C   UNL     1      42.742 -16.433   2.680  1.00  0.00     0.016 A 
HETATM   13  C   UNL     1      42.981 -17.721   2.182  1.00  0.00     0.037 A 
HETATM   14  C   UNL     1      43.628 -18.668   2.974  1.00  0.00     0.068 A 
HETATM   15  C   UNL     1      44.019 -18.319   4.267  1.00  0.00     0.037 A 
HETATM   16  C   UNL     1      43.786 -17.033   4.765  1.00  0.00     0.016 A 
BRANCH  14  17
HETATM   17  O   UNL     1      43.927 -19.952   2.612  1.00  0.00    -0.356 OA
HETATM   18  C   UNL     1      43.880 -20.934   3.639  1.00  0.00     0.210 C 
ENDBRANCH  14  17
ENDBRANCH   9  11
ENDBRANCH   1   5
BRANCH   2  19
HETATM   19  N   UNL     1      43.651 -11.149   8.881  1.00  0.00    -0.267 N 
HETATM   20  C   UNL     1      44.847 -10.573   9.248  1.00  0.00     0.240 C 
HETATM   21  O   UNL     1      45.892 -10.773   8.626  1.00  0.00    -0.272 OA
HETATM   22  H   UNL     1      42.781 -11.049   9.404  1.00  0.00     0.190 HD
BRANCH  20  23
HETATM   23  C   UNL     1      44.771  -9.676  10.464  1.00  0.00     0.144 C 
BRANCH  23  24
HETATM   24  C   UNL     1      43.906  -8.462  10.229  1.00  0.00    -0.028 A 
HETATM   25  C   UNL     1      43.093  -7.901  11.227  1.00  0.00     0.040 A 
HETATM   26 CL   UNL     1      43.031  -8.555  12.825  1.00  0.00    -0.084 Cl
HETATM   27  C   UNL     1      42.299  -6.784  10.952  1.00  0.00     0.024 A 
HETATM   28  C   UNL     1      42.296  -6.219   9.677  1.00  0.00     0.002 A 
HETATM   29  C   UNL     1      43.085  -6.775   8.673  1.00  0.00     0.001 A 
HETATM   30  C   UNL     1      43.881  -7.889   8.945  1.00  0.00     0.009 A 
ENDBRANCH  23  24
ENDBRANCH  20  23
ENDBRANCH   2  19
TORSDOF 6
ENDMDL
MODEL 3
REMARK VINA RESULT:      -8.5      1.980      2.569
REMARK  6 active torsions:
REMARK  status: ('A' for Active; 'I' for Inactive)
REMARK    1  A    between atoms: O_2  and  C_3 
REMARK    2  A    between atoms: C_6  and  C_7 
REMARK    3  A    between atoms: C_11  and  C_12 
REMARK       I    between atoms: C_12  and  N_13 
REMARK    4  A    between atoms: N_13  and  N_14 
REMARK       I    between atoms: N_14  and  C_15 
REMARK    5  A    between atoms: C_15  and  C_16 
REMARK    6  A    between atoms: C_16  and  C_17 
ROOT
HETATM    1  C   UNL     1      42.699 -11.714   6.035  1.00  0.00     0.288 C 
HETATM    2  N   UNL     1      43.962 -11.425   6.508  1.00  0.00    -0.262 N 
HETATM    3  O   UNL     1      41.742 -10.968   6.233  1.00  0.00    -0.264 OA
HETATM    4  H   UNL     1      44.734 -12.085   6.466  1.00  0.00     0.190 HD
ENDROOT
BRANCH   1   5
HETATM    5  C   UNL     1      42.585 -12.946   5.304  1.00  0.00     0.121 A 
HETATM    6  N   UNL     1      41.628 -13.131   4.347  1.00  0.00    -0.272 N 
HETATM    7  N   UNL     1      41.670 -14.332   3.750  1.00  0.00    -0.174 NA
HETATM    8  H   UNL     1      40.920 -12.463   4.054  1.00  0.00     0.189 HD
HETATM    9  C   UNL     1      42.682 -14.976   4.353  1.00  0.00     0.089 A 
HETATM   10  C   UNL     1      43.286 -14.134   5.331  1.00  0.00     0.071 A 
BRANCH   9  11
HETATM   11  C   UNL     1      43.060 -16.343   3.984  1.00  0.00    -0.005 A 
HETATM   12  C   UNL     1      43.771 -17.152   4.882  1.00  0.00     0.016 A 
HETATM   13  C   UNL     1      44.117 -18.470   4.552  1.00  0.00     0.037 A 
HETATM   14  C   UNL     1      43.759 -18.996   3.313  1.00  0.00     0.068 A 
HETATM   15  C   UNL     1      43.067 -18.192   2.406  1.00  0.00     0.037 A 
HETATM   16  C   UNL     1      42.717 -16.878   2.735  1.00  0.00     0.016 A 
BRANCH  14  17
HETATM   17  O   UNL     1      44.026 -20.262   2.867  1.00  0.00    -0.356 OA
HETATM   18  C   UNL     1      43.596 -20.581   1.550  1.00  0.00     0.210 C 
ENDBRANCH  14  17
ENDBRANCH   9  11
ENDBRANCH   1   5
BRANCH   2  19
HETATM   19  N   UNL     1      44.133 -10.339   7.372  1.00  0.00    -0.267 N 
HETATM   20  C   UNL     1      45.394 -10.111   7.880  1.00  0.00     0.240 C 
HETATM   21  O   UNL     1      46.374 -10.771   7.531  1.00  0.00    -0.272 OA
HETATM   22  H   UNL     1      43.293  -9.848   7.679  1.00  0.00     0.190 HD
BRANCH  20  23
HETATM   23  C   UNL     1      45.475  -8.985   8.890  1.00  0.00     0.144 C 
BRANCH  23  24
HETATM   24  C   UNL     1      44.440  -9.117   9.980  1.00  0.00    -0.028 A 
HETATM   25  C   UNL     1      43.508  -8.109  10.270  1.00  0.00     0.040 A 
HETATM   26 CL   UNL     1      43.461  -6.628   9.381  1.00  0.00    -0.084 Cl
HETATM   27  C   UNL     1      42.579  -8.275  11.301  1.00  0.00     0.024 A 
HETATM   28  C   UNL     1      42.575  -9.443  12.063  1.00  0.00     0.002 A 
HETATM   29  C   UNL     1      43.504 -10.445  11.797  1.00  0.00     0.001 A 
HETATM   30  C   UNL     1      44.432 -10.283  10.767  1.00  0.00     0.009 A 
ENDBRANCH  23  24
ENDBRANCH  20  23
ENDBRANCH   2  19
TORSDOF 6
ENDMDL
MODEL 4
REMARK VINA RESULT:      -8.1      7.940     11.059
REMARK  6 active torsions:
REMARK  status: ('A' for Active; 'I' for Inactive)
REMARK    1  A    between atoms: O_2  and  C_3 
REMARK    2  A    between atoms: C_6  and  C_7 
REMARK    3  A    between atoms: C_11  and  C_12 
REMARK       I    between atoms: C_12  and  N_13 
REMARK    4  A    between atoms: N_13  and  N_14 
REMARK       I    between atoms: N_14  and  C_15 
REMARK    5  A    between atoms: C_15  and  C_16 
REMARK    6  A    between atoms: C_16  and  C_17 
ROOT
HETATM    1  C   UNL     1      40.058 -13.104   0.065  1.00  0.00     0.288 C 
HETATM    2  N   UNL     1      38.763 -12.642   0.170  1.00  0.00    -0.262 N 
HETATM    3  O   UNL     1      40.860 -12.622  -0.734  1.00  0.00    -0.264 OA
HETATM    4  H   UNL     1      38.052 -13.107   0.729  1.00  0.00     0.190 HD
ENDROOT
BRANCH   1   5
HETATM    5  C   UNL     1      40.398 -14.187   0.947  1.00  0.00     0.121 A 
HETATM    6  N   UNL     1      39.448 -14.857   1.664  1.00  0.00    -0.272 N 
HETATM    7  N   UNL     1      39.932 -15.850   2.426  1.00  0.00    -0.174 NA
HETATM    8  H   UNL     1      38.447 -14.681   1.667  1.00  0.00     0.189 HD
HETATM    9  C   UNL     1      41.259 -15.822   2.220  1.00  0.00     0.089 A 
HETATM   10  C   UNL     1      41.589 -14.793   1.291  1.00  0.00     0.071 A 
BRANCH   9  11
HETATM   11  C   UNL     1      42.166 -16.763   2.882  1.00  0.00    -0.005 A 
HETATM   12  C   UNL     1      42.549 -16.563   4.217  1.00  0.00     0.016 A 
HETATM   13  C   UNL     1      43.396 -17.468   4.870  1.00  0.00     0.037 A 
HETATM   14  C   UNL     1      43.879 -18.586   4.193  1.00  0.00     0.068 A 
HETATM   15  C   UNL     1      43.518 -18.783   2.860  1.00  0.00     0.037 A 
HETATM   16  C   UNL     1      42.669 -17.883   2.207  1.00  0.00     0.016 A 
BRANCH  14  17
HETATM   17  O   UNL     1      44.704 -19.547   4.710  1.00  0.00    -0.356 OA
HETATM   18  C   UNL     1      44.100 -20.782   5.073  1.00  0.00     0.210 C 
ENDBRANCH  14  17
ENDBRANCH   9  11
ENDBRANCH   1   5
BRANCH   2  19
HETATM   19  N   UNL     1      38.294 -11.711  -0.762  1.00  0.00    -0.267 N 
HETATM   20  C   UNL     1      37.705 -12.190  -1.912  1.00  0.00     0.240 C 
HETATM   21  O   UNL     1      37.502 -13.391  -2.097  1.00  0.00    -0.272 OA
HETATM   22  H   UNL     1      38.526 -10.731  -0.601  1.00  0.00     0.190 HD
BRANCH  20  23
HETATM   23  C   UNL     1      37.322 -11.125  -2.918  1.00  0.00     0.144 C 
BRANCH  23  24
HETATM   24  C   UNL     1      35.831 -10.902  -2.977  1.00  0.00    -0.028 A 
HETATM   25  C   UNL     1      35.178  -9.912  -2.224  1.00  0.00     0.040 A 
HETATM   26 CL   UNL     1      36.044  -8.851  -1.170  1.00  0.00    -0.084 Cl
HETATM   27  C   UNL     1      33.791  -9.757  -2.305  1.00  0.00     0.024 A 
HETATM   28  C   UNL     1      33.036 -10.591  -3.128  1.00  0.00     0.002 A 
HETATM   29  C   UNL     1      33.668 -11.587  -3.868  1.00  0.00     0.001 A 
HETATM   30  C   UNL     1      35.053 -11.744  -3.791  1.00  0.00     0.009 A 
ENDBRANCH  23  24
ENDBRANCH  20  23
ENDBRANCH   2  19
TORSDOF 6
ENDMDL
MODEL 5
REMARK VINA RESULT:      -8.0      1.527      1.797
REMARK  6 active torsions:
REMARK  status: ('A' for Active; 'I' for Inactive)
REMARK    1  A    between atoms: O_2  and  C_3 
REMARK    2  A    between atoms: C_6  and  C_7 
REMARK    3  A    between atoms: C_11  and  C_12 
REMARK       I    between atoms: C_12  and  N_13 
REMARK    4  A    between atoms: N_13  and  N_14 
REMARK       I    between atoms: N_14  and  C_15 
REMARK    5  A    between atoms: C_15  and  C_16 
REMARK    6  A    between atoms: C_16  and  C_17 
ROOT
HETATM    1  C   UNL     1      44.253 -11.619   7.636  1.00  0.00     0.288 C 
HETATM    2  N   UNL     1      43.502 -11.301   8.748  1.00  0.00    -0.262 N 
HETATM    3  O   UNL     1      45.263 -10.989   7.329  1.00  0.00    -0.264 OA
HETATM    4  H   UNL     1      42.598 -11.724   8.947  1.00  0.00     0.190 HD
ENDROOT
BRANCH   1   5
HETATM    5  C   UNL     1      43.766 -12.729   6.864  1.00  0.00     0.121 A 
HETATM    6  N   UNL     1      42.511 -12.738   6.324  1.00  0.00    -0.272 N 
HETATM    7  N   UNL     1      42.221 -13.843   5.620  1.00  0.00    -0.174 NA
HETATM    8  H   UNL     1      41.808 -12.008   6.402  1.00  0.00     0.189 HD
HETATM    9  C   UNL     1      43.323 -14.605   5.714  1.00  0.00     0.089 A 
HETATM   10  C   UNL     1      44.318 -13.936   6.483  1.00  0.00     0.071 A 
BRANCH   9  11
HETATM   11  C   UNL     1      43.413 -15.919   5.072  1.00  0.00    -0.005 A 
HETATM   12  C   UNL     1      42.928 -16.110   3.770  1.00  0.00     0.016 A 
HETATM   13  C   UNL     1      43.031 -17.355   3.135  1.00  0.00     0.037 A 
HETATM   14  C   UNL     1      43.616 -18.432   3.798  1.00  0.00     0.068 A 
HETATM   15  C   UNL     1      44.084 -18.255   5.101  1.00  0.00     0.037 A 
HETATM   16  C   UNL     1      43.987 -17.012   5.735  1.00  0.00     0.016 A 
BRANCH  14  17
HETATM   17  O   UNL     1      43.784 -19.693   3.297  1.00  0.00    -0.356 OA
HETATM   18  C   UNL     1      44.009 -20.733   4.240  1.00  0.00     0.210 C 
ENDBRANCH  14  17
ENDBRANCH   9  11
ENDBRANCH   1   5
BRANCH   2  19
HETATM   19  N   UNL     1      43.800 -10.135   9.460  1.00  0.00    -0.267 N 
HETATM   20  C   UNL     1      43.994 -10.240  10.820  1.00  0.00     0.240 C 
HETATM   21  O   UNL     1      44.000 -11.326  11.402  1.00  0.00    -0.272 OA
HETATM   22  H   UNL     1      43.734  -9.250   8.956  1.00  0.00     0.190 HD
BRANCH  20  23
HETATM   23  C   UNL     1      44.205  -8.921  11.533  1.00  0.00     0.144 C 
BRANCH  23  24
HETATM   24  C   UNL     1      42.977  -8.045  11.493  1.00  0.00    -0.028 A 
HETATM   25  C   UNL     1      41.883  -8.227  12.354  1.00  0.00     0.040 A 
HETATM   26 CL   UNL     1      41.864  -9.472  13.551  1.00  0.00    -0.084 Cl
HETATM   27  C   UNL     1      40.763  -7.395  12.265  1.00  0.00     0.024 A 
HETATM   28  C   UNL     1      40.714  -6.380  11.310  1.00  0.00     0.002 A 
HETATM   29  C   UNL     1      41.784  -6.199  10.439  1.00  0.00     0.001 A 
HETATM   30  C   UNL     1      42.905  -7.026  10.527  1.00  0.00     0.009 A 
ENDBRANCH  23  24
ENDBRANCH  20  23
ENDBRANCH   2  19
TORSDOF 6
ENDMDL
MODEL 6
REMARK VINA RESULT:      -7.9      2.907     10.881
REMARK  6 active torsions:
REMARK  status: ('A' for Active; 'I' for Inactive)
REMARK    1  A    between atoms: O_2  and  C_3 
REMARK    2  A    between atoms: C_6  and  C_7 
REMARK    3  A    between atoms: C_11  and  C_12 
REMARK       I    between atoms: C_12  and  N_13 
REMARK    4  A    between atoms: N_13  and  N_14 
REMARK       I    between atoms: N_14  and  C_15 
REMARK    5  A    between atoms: C_15  and  C_16 
REMARK    6  A    between atoms: C_16  and  C_17 
ROOT
HETATM    1  C   UNL     1      44.453 -11.262   7.846  1.00  0.00     0.288 C 
HETATM    2  N   UNL     1      43.540 -12.266   7.601  1.00  0.00    -0.262 N 
HETATM    3  O   UNL     1      45.493 -11.154   7.199  1.00  0.00    -0.264 OA
HETATM    4  H   UNL     1      42.742 -12.449   8.204  1.00  0.00     0.190 HD
ENDROOT
BRANCH   1   5
HETATM    5  C   UNL     1      44.104 -10.362   8.911  1.00  0.00     0.121 A 
HETATM    6  N   UNL     1      44.189  -9.006   8.766  1.00  0.00    -0.272 N 
HETATM    7  N   UNL     1      43.811  -8.311   9.850  1.00  0.00    -0.174 NA
HETATM    8  H   UNL     1      44.495  -8.498   7.940  1.00  0.00     0.189 HD
HETATM    9  C   UNL     1      43.483  -9.246  10.756  1.00  0.00     0.089 A 
HETATM   10  C   UNL     1      43.648 -10.547  10.200  1.00  0.00     0.071 A 
BRANCH   9  11
HETATM   11  C   UNL     1      43.013  -8.893  12.098  1.00  0.00    -0.005 A 
HETATM   12  C   UNL     1      43.551  -7.787  12.773  1.00  0.00     0.016 A 
HETATM   13  C   UNL     1      43.093  -7.424  14.046  1.00  0.00     0.037 A 
HETATM   14  C   UNL     1      42.092  -8.167  14.667  1.00  0.00     0.068 A 
HETATM   15  C   UNL     1      41.564  -9.279  14.011  1.00  0.00     0.037 A 
HETATM   16  C   UNL     1      42.016  -9.641  12.738  1.00  0.00     0.016 A 
BRANCH  14  17
HETATM   17  O   UNL     1      41.551  -7.920  15.900  1.00  0.00    -0.356 OA
HETATM   18  C   UNL     1      41.928  -6.704  16.533  1.00  0.00     0.210 C 
ENDBRANCH  14  17
ENDBRANCH   9  11
ENDBRANCH   1   5
BRANCH   2  19
HETATM   19  N   UNL     1      43.874 -13.286   6.704  1.00  0.00    -0.267 N 
HETATM   20  C   UNL     1      42.850 -13.909   6.025  1.00  0.00     0.240 C 
HETATM   21  O   UNL     1      41.678 -13.540   6.118  1.00  0.00    -0.272 OA
HETATM   22  H   UNL     1      44.845 -13.599   6.693  1.00  0.00     0.190 HD
BRANCH  20  23
HETATM   23  C   UNL     1      43.282 -15.072   5.157  1.00  0.00     0.144 C 
BRANCH  23  24
HETATM   24  C   UNL     1      42.516 -15.132   3.858  1.00  0.00    -0.028 A 
HETATM   25  C   UNL     1      42.642 -14.159   2.854  1.00  0.00     0.040 A 
HETATM   26 CL   UNL     1      43.707 -12.809   3.023  1.00  0.00    -0.084 Cl
HETATM   27  C   UNL     1      41.898 -14.254   1.674  1.00  0.00     0.024 A 
HETATM   28  C   UNL     1      41.012 -15.314   1.485  1.00  0.00     0.002 A 
HETATM   29  C   UNL     1      40.865 -16.278   2.478  1.00  0.00     0.001 A 
HETATM   30  C   UNL     1      41.607 -16.187   3.657  1.00  0.00     0.009 A 
ENDBRANCH  23  24
ENDBRANCH  20  23
ENDBRANCH   2  19
TORSDOF 6
ENDMDL
MODEL 7
REMARK VINA RESULT:      -7.8      3.051     11.136
REMARK  6 active torsions:
REMARK  status: ('A' for Active; 'I' for Inactive)
REMARK    1  A    between atoms: O_2  and  C_3 
REMARK    2  A    between atoms: C_6  and  C_7 
REMARK    3  A    between atoms: C_11  and  C_12 
REMARK       I    between atoms: C_12  and  N_13 
REMARK    4  A    between atoms: N_13  and  N_14 
REMARK       I    between atoms: N_14  and  C_15 
REMARK    5  A    between atoms: C_15  and  C_16 
REMARK    6  A    between atoms: C_16  and  C_17 
ROOT
HETATM    1  C   UNL     1      43.832 -10.603   8.942  1.00  0.00     0.288 C 
HETATM    2  N   UNL     1      43.046 -10.829   7.832  1.00  0.00    -0.262 N 
HETATM    3  O   UNL     1      45.021 -10.917   8.975  1.00  0.00    -0.264 OA
HETATM    4  H   UNL     1      42.038 -10.695   7.830  1.00  0.00     0.190 HD
ENDROOT
BRANCH   1   5
HETATM    5  C   UNL     1      43.163  -9.981  10.052  1.00  0.00     0.121 A 
HETATM    6  N   UNL     1      41.821  -9.732  10.037  1.00  0.00    -0.272 N 
HETATM    7  N   UNL     1      41.354  -9.162  11.159  1.00  0.00    -0.174 NA
HETATM    8  H   UNL     1      41.170  -9.937   9.284  1.00  0.00     0.189 HD
HETATM    9  C   UNL     1      42.435  -9.010  11.939  1.00  0.00     0.089 A 
HETATM   10  C   UNL     1      43.591  -9.519  11.280  1.00  0.00     0.071 A 
BRANCH   9  11
HETATM   11  C   UNL     1      42.350  -8.411  13.274  1.00  0.00    -0.005 A 
HETATM   12  C   UNL     1      43.202  -7.358  13.638  1.00  0.00     0.016 A 
HETATM   13  C   UNL     1      43.114  -6.760  14.902  1.00  0.00     0.037 A 
HETATM   14  C   UNL     1      42.174  -7.212  15.825  1.00  0.00     0.068 A 
HETATM   15  C   UNL     1      41.335  -8.272  15.478  1.00  0.00     0.037 A 
HETATM   16  C   UNL     1      41.418  -8.867  14.215  1.00  0.00     0.016 A 
BRANCH  14  17
HETATM   17  O   UNL     1      41.978  -6.717  17.085  1.00  0.00    -0.356 OA
HETATM   18  C   UNL     1      41.586  -5.354  17.184  1.00  0.00     0.210 C 
ENDBRANCH  14  17
ENDBRANCH   9  11
ENDBRANCH   1   5
BRANCH   2  19
HETATM   19  N   UNL     1      43.564 -11.581   6.773  1.00  0.00    -0.267 N 
HETATM   20  C   UNL     1      42.771 -11.759   5.660  1.00  0.00     0.240 C 
HETATM   21  O   UNL     1      41.675 -11.210   5.537  1.00  0.00    -0.272 OA
HETATM   22  H   UNL     1      44.449 -12.062   6.930  1.00  0.00     0.190 HD
BRANCH  20  23
HETATM   23  C   UNL     1      43.358 -12.672   4.604  1.00  0.00     0.144 C 
BRANCH  23  24
HETATM   24  C   UNL     1      42.558 -13.939   4.433  1.00  0.00    -0.028 A 
HETATM   25  C   UNL     1      42.757 -15.078   5.230  1.00  0.00     0.040 A 
HETATM   26 CL   UNL     1      43.936 -15.112   6.492  1.00  0.00    -0.084 Cl
HETATM   27  C   UNL     1      41.998 -16.234   5.020  1.00  0.00     0.024 A 
HETATM   28  C   UNL     1      41.040 -16.272   4.008  1.00  0.00     0.002 A 
HETATM   29  C   UNL     1      40.843 -15.156   3.200  1.00  0.00     0.001 A 
HETATM   30  C   UNL     1      41.598 -14.000   3.408  1.00  0.00     0.009 A 
ENDBRANCH  23  24
ENDBRANCH  20  23
ENDBRANCH   2  19
TORSDOF 6
ENDMDL
MODEL 8
REMARK VINA RESULT:      -7.8      7.998     11.451
REMARK  6 active torsions:
REMARK  status: ('A' for Active; 'I' for Inactive)
REMARK    1  A    between atoms: O_2  and  C_3 
REMARK    2  A    between atoms: C_6  and  C_7 
REMARK    3  A    between atoms: C_11  and  C_12 
REMARK       I    between atoms: C_12  and  N_13 
REMARK    4  A    between atoms: N_13  and  N_14 
REMARK       I    between atoms: N_14  and  C_15 
REMARK    5  A    between atoms: C_15  and  C_16 
REMARK    6  A    between atoms: C_16  and  C_17 
ROOT
HETATM    1  C   UNL     1      41.430 -13.626   0.842  1.00  0.00     0.288 C 
HETATM    2  N   UNL     1      41.920 -14.898   0.631  1.00  0.00    -0.262 N 
HETATM    3  O   UNL     1      41.916 -12.871   1.682  1.00  0.00    -0.264 OA
HETATM    4  H   UNL     1      41.455 -15.580   0.037  1.00  0.00     0.190 HD
ENDROOT
BRANCH   1   5
HETATM    5  C   UNL     1      40.313 -13.254   0.019  1.00  0.00     0.121 A 
HETATM    6  N   UNL     1      39.863 -14.055  -0.992  1.00  0.00    -0.272 N 
HETATM    7  N   UNL     1      38.802 -13.566  -1.652  1.00  0.00    -0.174 NA
HETATM    8  H   UNL     1      40.242 -14.955  -1.273  1.00  0.00     0.189 HD
HETATM    9  C   UNL     1      38.553 -12.383  -1.068  1.00  0.00     0.089 A 
HETATM   10  C   UNL     1      39.478 -12.155  -0.008  1.00  0.00     0.071 A 
BRANCH   9  11
HETATM   11  C   UNL     1      37.454 -11.518  -1.506  1.00  0.00    -0.005 A 
HETATM   12  C   UNL     1      36.868 -11.696  -2.768  1.00  0.00     0.016 A 
HETATM   13  C   UNL     1      35.800 -10.892  -3.190  1.00  0.00     0.037 A 
HETATM   14  C   UNL     1      35.306  -9.893  -2.355  1.00  0.00     0.068 A 
HETATM   15  C   UNL     1      35.895  -9.697  -1.105  1.00  0.00     0.037 A 
HETATM   16  C   UNL     1      36.958 -10.501  -0.680  1.00  0.00     0.016 A 
BRANCH  14  17
HETATM   17  O   UNL     1      34.270  -9.045  -2.638  1.00  0.00    -0.356 OA
HETATM   18  C   UNL     1      33.118  -9.143  -1.810  1.00  0.00     0.210 C 
ENDBRANCH  14  17
ENDBRANCH   9  11
ENDBRANCH   1   5
BRANCH   2  19
HETATM   19  N   UNL     1      42.890 -15.407   1.500  1.00  0.00    -0.267 N 
HETATM   20  C   UNL     1      42.476 -16.255   2.505  1.00  0.00     0.240 C 
HETATM   21  O   UNL     1      41.310 -16.640   2.602  1.00  0.00    -0.272 OA
HETATM   22  H   UNL     1      43.833 -15.026   1.423  1.00  0.00     0.190 HD
BRANCH  20  23
HETATM   23  C   UNL     1      43.566 -16.676   3.467  1.00  0.00     0.144 C 
BRANCH  23  24
HETATM   24  C   UNL     1      43.659 -18.176   3.607  1.00  0.00    -0.028 A 
HETATM   25  C   UNL     1      43.835 -18.815   4.845  1.00  0.00     0.040 A 
HETATM   26 CL   UNL     1      43.945 -17.925   6.322  1.00  0.00    -0.084 Cl
HETATM   27  C   UNL     1      43.930 -20.208   4.918  1.00  0.00     0.024 A 
HETATM   28  C   UNL     1      43.861 -20.980   3.759  1.00  0.00     0.002 A 
HETATM   29  C   UNL     1      43.702 -20.359   2.524  1.00  0.00     0.001 A 
HETATM   30  C   UNL     1      43.605 -18.968   2.447  1.00  0.00     0.009 A 
ENDBRANCH  23  24
ENDBRANCH  20  23
ENDBRANCH   2  19
TORSDOF 6
ENDMDL
MODEL 9
REMARK VINA RESULT:      -7.8      5.311      8.394
REMARK  6 active torsions:
REMARK  status: ('A' for Active; 'I' for Inactive)
REMARK    1  A    between atoms: O_2  and  C_3 
REMARK    2  A    between atoms: C_6  and  C_7 
REMARK    3  A    between atoms: C_11  and  C_12 
REMARK       I    between atoms: C_12  and  N_13 
REMARK    4  A    between atoms: N_13  and  N_14 
REMARK       I    between atoms: N_14  and  C_15 
REMARK    5  A    between atoms: C_15  and  C_16 
REMARK    6  A    between atoms: C_16  and  C_17 
ROOT
HETATM    1  C   UNL     1      42.485  -7.925  14.238  1.00  0.00     0.288 C 
HETATM    2  N   UNL     1      42.902  -6.764  14.854  1.00  0.00    -0.262 N 
HETATM    3  O   UNL     1      41.873  -8.802  14.845  1.00  0.00    -0.264 OA
HETATM    4  H   UNL     1      43.517  -6.089  14.407  1.00  0.00     0.190 HD
ENDROOT
BRANCH   1   5
HETATM    5  C   UNL     1      42.825  -8.038  12.846  1.00  0.00     0.121 A 
HETATM    6  N   UNL     1      42.599  -7.019  11.964  1.00  0.00    -0.272 N 
HETATM    7  N   UNL     1      42.988  -7.282  10.707  1.00  0.00    -0.174 NA
HETATM    8  H   UNL     1      42.185  -6.114  12.170  1.00  0.00     0.189 HD
HETATM    9  C   UNL     1      43.472  -8.533  10.755  1.00  0.00     0.089 A 
HETATM   10  C   UNL     1      43.392  -9.039  12.085  1.00  0.00     0.071 A 
BRANCH   9  11
HETATM   11  C   UNL     1      44.005  -9.205   9.566  1.00  0.00    -0.005 A 
HETATM   12  C   UNL     1      45.385  -9.416   9.426  1.00  0.00     0.016 A 
HETATM   13  C   UNL     1      45.905 -10.078   8.306  1.00  0.00     0.037 A 
HETATM   14  C   UNL     1      45.051 -10.536   7.305  1.00  0.00     0.068 A 
HETATM   15  C   UNL     1      43.678 -10.314   7.428  1.00  0.00     0.037 A 
HETATM   16  C   UNL     1      43.156  -9.656   8.547  1.00  0.00     0.016 A 
BRANCH  14  17
HETATM   17  O   UNL     1      45.423 -11.199   6.169  1.00  0.00    -0.356 OA
HETATM   18  C   UNL     1      44.386 -11.541   5.258  1.00  0.00     0.210 C 
ENDBRANCH  14  17
ENDBRANCH   9  11
ENDBRANCH   1   5
BRANCH   2  19
HETATM   19  N   UNL     1      42.768  -6.644  16.241  1.00  0.00    -0.267 N 
HETATM   20  C   UNL     1      41.735  -5.873  16.725  1.00  0.00     0.240 C 
HETATM   21  O   UNL     1      40.887  -5.368  15.987  1.00  0.00    -0.272 OA
HETATM   22  H   UNL     1      43.516  -7.029  16.818  1.00  0.00     0.190 HD
BRANCH  20  23
HETATM   23  C   UNL     1      41.722  -5.703  18.230  1.00  0.00     0.144 C 
BRANCH  23  24
HETATM   24  C   UNL     1      41.285  -6.958  18.944  1.00  0.00    -0.028 A 
HETATM   25  C   UNL     1      42.160  -7.736  19.720  1.00  0.00     0.040 A 
HETATM   26 CL   UNL     1      43.819  -7.303  19.932  1.00  0.00    -0.084 Cl
HETATM   27  C   UNL     1      41.708  -8.899  20.350  1.00  0.00     0.024 A 
HETATM   28  C   UNL     1      40.383  -9.308  20.206  1.00  0.00     0.002 A 
HETATM   29  C   UNL     1      39.508  -8.555  19.427  1.00  0.00     0.001 A 
HETATM   30  C   UNL     1      39.956  -7.392  18.798  1.00  0.00     0.009 A 
ENDBRANCH  23  24
ENDBRANCH  20  23
ENDBRANCH   2  19
TORSDOF 6
ENDMDL
MODEL 10
REMARK VINA RESULT:      -7.8      2.528      2.881
REMARK  6 active torsions:
REMARK  status: ('A' for Active; 'I' for Inactive)
REMARK    1  A    between atoms: O_2  and  C_3 
REMARK    2  A    between atoms: C_6  and  C_7 
REMARK    3  A    between atoms: C_11  and  C_12 
REMARK       I    between atoms: C_12  and  N_13 
REMARK    4  A    between atoms: N_13  and  N_14 
REMARK       I    between atoms: N_14  and  C_15 
REMARK    5  A    between atoms: C_15  and  C_16 
REMARK    6  A    between atoms: C_16  and  C_17 
ROOT
HETATM    1  C   UNL     1      44.177 -11.654   7.493  1.00  0.00     0.288 C 
HETATM    2  N   UNL     1      43.265 -11.071   8.347  1.00  0.00    -0.262 N 
HETATM    3  O   UNL     1      45.377 -11.391   7.541  1.00  0.00    -0.264 OA
HETATM    4  H   UNL     1      42.259 -11.177   8.240  1.00  0.00     0.190 HD
ENDROOT
BRANCH   1   5
HETATM    5  C   UNL     1      43.624 -12.580   6.543  1.00  0.00     0.121 A 
HETATM    6  N   UNL     1      43.761 -13.931   6.689  1.00  0.00    -0.272 N 
HETATM    7  N   UNL     1      43.172 -14.652   5.723  1.00  0.00    -0.174 NA
HETATM    8  H   UNL     1      44.245 -14.419   7.438  1.00  0.00     0.189 HD
HETATM    9  C   UNL     1      42.641 -13.740   4.892  1.00  0.00     0.089 A 
HETATM   10  C   UNL     1      42.899 -12.426   5.378  1.00  0.00     0.071 A 
BRANCH   9  11
HETATM   11  C   UNL     1      41.901 -14.126   3.688  1.00  0.00    -0.005 A 
HETATM   12  C   UNL     1      42.141 -13.479   2.467  1.00  0.00     0.016 A 
HETATM   13  C   UNL     1      41.458 -13.855   1.302  1.00  0.00     0.037 A 
HETATM   14  C   UNL     1      40.519 -14.883   1.344  1.00  0.00     0.068 A 
HETATM   15  C   UNL     1      40.261 -15.520   2.558  1.00  0.00     0.037 A 
HETATM   16  C   UNL     1      40.944 -15.149   3.721  1.00  0.00     0.016 A 
BRANCH  14  17
HETATM   17  O   UNL     1      39.789 -15.352   0.286  1.00  0.00    -0.356 OA
HETATM   18  C   UNL     1      39.714 -14.516  -0.861  1.00  0.00     0.210 C 
ENDBRANCH  14  17
ENDBRANCH   9  11
ENDBRANCH   1   5
BRANCH   2  19
HETATM   19  N   UNL     1      43.684 -10.034   9.186  1.00  0.00    -0.267 N 
HETATM   20  C   UNL     1      43.908 -10.329  10.513  1.00  0.00     0.240 C 
HETATM   21  O   UNL     1      43.838 -11.477  10.954  1.00  0.00    -0.272 OA
HETATM   22  H   UNL     1      43.680  -9.090   8.800  1.00  0.00     0.190 HD
BRANCH  20  23
HETATM   23  C   UNL     1      44.254  -9.134  11.377  1.00  0.00     0.144 C 
BRANCH  23  24
HETATM   24  C   UNL     1      43.056  -8.600  12.123  1.00  0.00    -0.028 A 
HETATM   25  C   UNL     1      42.358  -7.451  11.719  1.00  0.00     0.040 A 
HETATM   26 CL   UNL     1      42.812  -6.557  10.312  1.00  0.00    -0.084 Cl
HETATM   27  C   UNL     1      41.262  -6.989  12.455  1.00  0.00     0.024 A 
HETATM   28  C   UNL     1      40.855  -7.661  13.607  1.00  0.00     0.002 A 
HETATM   29  C   UNL     1      41.548  -8.793  14.028  1.00  0.00     0.001 A 
HETATM   30  C   UNL     1      42.641  -9.257  13.295  1.00  0.00     0.009 A 
ENDBRANCH  23  24
ENDBRANCH  20  23
ENDBRANCH   2  19
TORSDOF 6
ENDMDL
