MODEL 1
REMARK VINA RESULT:      -9.1      0.000      0.000
REMARK  8 active torsions:
REMARK  status: ('A' for Active; 'I' for Inactive)
REMARK    1  A    between atoms: O_2  and  C_3 
REMARK    2  A    between atoms: C_3  and  C_4 
REMARK    3  A    between atoms: N_7  and  C_8 
REMARK    4  A    between atoms: N_10  and  C_12 
REMARK    5  A    between atoms: C_22  and  C_23 
REMARK       I    between atoms: C_23  and  N_24 
REMARK    6  A    between atoms: N_24  and  C_25 
REMARK    7  A    between atoms: C_25  and  C_26 
REMARK    8  A    between atoms: C_26  and  C_27 
ROOT
HETATM    1  C   UNL     1      41.749 -11.687   6.126  1.00  0.00     0.134 C 
HETATM    2  C   UNL     1      42.210 -11.867   4.689  1.00  0.00     0.263 C 
HETATM    3  N   UNL     1      41.141 -12.759   4.069  1.00  0.00    -0.051 N 
HETATM    4  H   UNL     1      41.013 -12.434   3.088  1.00  0.00     0.281 HD
HETATM    5  C   UNL     1      39.824 -12.319   4.784  1.00  0.00     0.281 C 
HETATM    6  C   UNL     1      40.253 -11.465   5.978  1.00  0.00     0.072 C 
ENDROOT
BRANCH   5   7
HETATM    7  C   UNL     1      38.976 -11.505   3.791  1.00  0.00     0.248 C 
HETATM    8  N   UNL     1      38.679 -12.100   2.592  1.00  0.00    -0.359 N 
HETATM    9  H   UNL     1      39.150 -12.945   2.291  1.00  0.00     0.162 HD
HETATM   10  O   UNL     1      38.595 -10.383   4.127  1.00  0.00    -0.271 OA
BRANCH   8  11
HETATM   11  C   UNL     1      37.867 -11.399   1.603  1.00  0.00     0.127 C 
BRANCH  11  12
HETATM   12  C   UNL     1      38.714 -10.564   0.641  1.00  0.00     0.060 C 
BRANCH  12  13
HETATM   13  C   UNL     1      39.563 -11.412  -0.247  1.00  0.00    -0.029 A 
HETATM   14  C   UNL     1      39.106 -12.365  -1.215  1.00  0.00    -0.002 A 
HETATM   15  C   UNL     1      40.234 -12.933  -1.806  1.00  0.00     0.042 A 
HETATM   16  C   UNL     1      37.834 -12.801  -1.642  1.00  0.00     0.014 A 
HETATM   17  C   UNL     1      40.158 -13.914  -2.800  1.00  0.00     0.030 A 
HETATM   18  N   UNL     1      41.335 -12.344  -1.230  1.00  0.00    -0.365 N 
HETATM   19  C   UNL     1      38.886 -14.330  -3.204  1.00  0.00     0.002 A 
HETATM   20  C   UNL     1      37.739 -13.783  -2.636  1.00  0.00     0.001 A 
HETATM   21  H   UNL     1      42.292 -12.560  -1.473  1.00  0.00     0.165 HD
HETATM   22  C   UNL     1      40.943 -11.429  -0.288  1.00  0.00     0.096 A 
ENDBRANCH  12  13
ENDBRANCH  11  12
ENDBRANCH   8  11
ENDBRANCH   5   7
BRANCH   3  23
HETATM   23  C   UNL     1      41.426 -14.256   4.046  1.00  0.00     0.197 C 
HETATM   24  C   UNL     1      40.613 -14.990   2.942  1.00  0.00     0.017 C 
HETATM   25  C   UNL     1      41.062 -14.572   1.527  1.00  0.00     0.011 C 
HETATM   26  C   UNL     1      40.853 -16.508   3.096  1.00  0.00     0.011 C 
HETATM   27  C   UNL     1      42.553 -14.879   1.331  1.00  0.00    -0.013 C 
HETATM   28  C   UNL     1      43.370 -14.122   2.390  1.00  0.00     0.011 C 
HETATM   29  C   UNL     1      42.782 -16.391   1.499  1.00  0.00     0.009 C 
HETATM   30  C   UNL     1      42.934 -14.549   3.805  1.00  0.00     0.017 C 
HETATM   31  C   UNL     1      43.164 -16.069   3.951  1.00  0.00     0.011 C 
HETATM   32  C   UNL     1      42.343 -16.835   2.903  1.00  0.00    -0.013 C 
ENDBRANCH   3  23
BRANCH   1  33
HETATM   33  N   UNL     1      42.410 -10.615   6.823  1.00  0.00    -0.276 N 
HETATM   34  N   UNL     1      41.726  -9.515   7.166  1.00  0.00     0.005 NA
HETATM   35  N   UNL     1      42.551  -8.735   7.851  1.00  0.00    -0.152 NA
HETATM   36  C   UNL     1      43.769  -9.365   7.946  1.00  0.00     0.166 A 
HETATM   37  C   UNL     1      43.687 -10.574   7.278  1.00  0.00     0.147 A 
BRANCH  36  38
HETATM   38  C   UNL     1      44.925  -8.832   8.650  1.00  0.00     0.314 C 
HETATM   39  O   UNL     1      45.445  -7.763   8.352  1.00  0.00    -0.257 OA
BRANCH  38  40
HETATM   40  O   UNL     1      45.357  -9.653   9.649  1.00  0.00    -0.321 OA
HETATM   41  C   UNL     1      44.479  -9.721  10.772  1.00  0.00     0.213 C 
ENDBRANCH  38  40
ENDBRANCH  36  38
ENDBRANCH   1  33
TORSDOF 8
ENDMDL
MODEL 2
REMARK VINA RESULT:      -9.0      1.453      2.022
REMARK  8 active torsions:
REMARK  status: ('A' for Active; 'I' for Inactive)
REMARK    1  A    between atoms: O_2  and  C_3 
REMARK    2  A    between atoms: C_3  and  C_4 
REMARK    3  A    between atoms: N_7  and  C_8 
REMARK    4  A    between atoms: N_10  and  C_12 
REMARK    5  A    between atoms: C_22  and  C_23 
REMARK       I    between atoms: C_23  and  N_24 
REMARK    6  A    between atoms: N_24  and  C_25 
REMARK    7  A    between atoms: C_25  and  C_26 
REMARK    8  A    between atoms: C_26  and  C_27 
ROOT
HETATM    1  C   UNL     1      43.560 -12.507   6.168  1.00  0.00     0.134 C 
HETATM    2  C   UNL     1      43.508 -12.220   4.677  1.00  0.00     0.263 C 
HETATM    3  N   UNL     1      42.514 -13.242   4.139  1.00  0.00    -0.051 N 
HETATM    4  H   UNL     1      41.977 -12.768   3.383  1.00  0.00     0.281 HD
HETATM    5  C   UNL     1      41.474 -13.397   5.295  1.00  0.00     0.281 C 
HETATM    6  C   UNL     1      42.099 -12.733   6.521  1.00  0.00     0.072 C 
ENDROOT
BRANCH   5   7
HETATM    7  C   UNL     1      40.172 -12.691   4.879  1.00  0.00     0.248 C 
HETATM    8  N   UNL     1      40.168 -12.056   3.665  1.00  0.00    -0.359 N 
HETATM    9  H   UNL     1      41.028 -11.888   3.154  1.00  0.00     0.162 HD
HETATM   10  O   UNL     1      39.205 -12.749   5.640  1.00  0.00    -0.271 OA
BRANCH   8  11
HETATM   11  C   UNL     1      38.966 -11.375   3.193  1.00  0.00     0.127 C 
BRANCH  11  12
HETATM   12  C   UNL     1      38.478 -11.919   1.849  1.00  0.00     0.060 C 
BRANCH  12  13
HETATM   13  C   UNL     1      39.376 -11.529   0.722  1.00  0.00    -0.029 A 
HETATM   14  C   UNL     1      39.687 -12.313  -0.436  1.00  0.00    -0.002 A 
HETATM   15  C   UNL     1      40.569 -11.568  -1.219  1.00  0.00     0.042 A 
HETATM   16  C   UNL     1      39.303 -13.592  -0.891  1.00  0.00     0.014 A 
HETATM   17  C   UNL     1      41.087 -12.035  -2.432  1.00  0.00     0.030 A 
HETATM   18  N   UNL     1      40.779 -10.374  -0.571  1.00  0.00    -0.365 N 
HETATM   19  C   UNL     1      40.693 -13.306  -2.859  1.00  0.00     0.002 A 
HETATM   20  C   UNL     1      39.813 -14.075  -2.102  1.00  0.00     0.001 A 
HETATM   21  H   UNL     1      41.373  -9.633  -0.916  1.00  0.00     0.165 HD
HETATM   22  C   UNL     1      40.068 -10.341   0.601  1.00  0.00     0.096 A 
ENDBRANCH  12  13
ENDBRANCH  11  12
ENDBRANCH   8  11
ENDBRANCH   5   7
BRANCH   3  23
HETATM   23  C   UNL     1      43.095 -14.534   3.579  1.00  0.00     0.197 C 
HETATM   24  C   UNL     1      42.490 -15.794   4.263  1.00  0.00     0.017 C 
HETATM   25  C   UNL     1      40.994 -15.963   3.931  1.00  0.00     0.011 C 
HETATM   26  C   UNL     1      43.244 -17.036   3.738  1.00  0.00     0.011 C 
HETATM   27  C   UNL     1      40.797 -16.080   2.413  1.00  0.00    -0.013 C 
HETATM   28  C   UNL     1      41.350 -14.819   1.730  1.00  0.00     0.011 C 
HETATM   29  C   UNL     1      41.561 -17.312   1.900  1.00  0.00     0.009 C 
HETATM   30  C   UNL     1      42.850 -14.657   2.048  1.00  0.00     0.017 C 
HETATM   31  C   UNL     1      43.597 -15.905   1.532  1.00  0.00     0.011 C 
HETATM   32  C   UNL     1      43.058 -17.170   2.218  1.00  0.00    -0.013 C 
ENDBRANCH   3  23
BRANCH   1  33
HETATM   33  N   UNL     1      44.171 -11.461   6.945  1.00  0.00    -0.276 N 
HETATM   34  N   UNL     1      45.505 -11.386   7.039  1.00  0.00     0.005 NA
HETATM   35  N   UNL     1      45.792 -10.300   7.743  1.00  0.00    -0.152 NA
HETATM   36  C   UNL     1      44.614  -9.680   8.086  1.00  0.00     0.166 A 
HETATM   37  C   UNL     1      43.564 -10.427   7.581  1.00  0.00     0.147 A 
BRANCH  36  38
HETATM   38  C   UNL     1      44.520  -8.439   8.839  1.00  0.00     0.314 C 
HETATM   39  O   UNL     1      45.070  -7.404   8.478  1.00  0.00    -0.257 OA
BRANCH  38  40
HETATM   40  O   UNL     1      43.775  -8.566   9.973  1.00  0.00    -0.321 OA
HETATM   41  C   UNL     1      44.324  -9.463  10.938  1.00  0.00     0.213 C 
ENDBRANCH  38  40
ENDBRANCH  36  38
ENDBRANCH   1  33
TORSDOF 8
ENDMDL
MODEL 3
REMARK VINA RESULT:      -9.0      3.339      7.695
REMARK  8 active torsions:
REMARK  status: ('A' for Active; 'I' for Inactive)
REMARK    1  A    between atoms: O_2  and  C_3 
REMARK    2  A    between atoms: C_3  and  C_4 
REMARK    3  A    between atoms: N_7  and  C_8 
REMARK    4  A    between atoms: N_10  and  C_12 
REMARK    5  A    between atoms: C_22  and  C_23 
REMARK       I    between atoms: C_23  and  N_24 
REMARK    6  A    between atoms: N_24  and  C_25 
REMARK    7  A    between atoms: C_25  and  C_26 
REMARK    8  A    between atoms: C_26  and  C_27 
ROOT
HETATM    1  C   UNL     1      41.097 -15.424   1.899  1.00  0.00     0.134 C 
HETATM    2  C   UNL     1      41.670 -14.280   1.078  1.00  0.00     0.263 C 
HETATM    3  N   UNL     1      40.494 -13.327   0.902  1.00  0.00    -0.051 N 
HETATM    4  H   UNL     1      40.883 -12.362   0.945  1.00  0.00     0.281 HD
HETATM    5  C   UNL     1      39.695 -13.468   2.237  1.00  0.00     0.281 C 
HETATM    6  C   UNL     1      40.253 -14.706   2.939  1.00  0.00     0.072 C 
ENDROOT
BRANCH   5   7
HETATM    7  C   UNL     1      39.920 -12.199   3.078  1.00  0.00     0.248 C 
HETATM    8  N   UNL     1      41.215 -11.890   3.406  1.00  0.00    -0.359 N 
HETATM    9  H   UNL     1      41.966 -12.558   3.275  1.00  0.00     0.162 HD
HETATM   10  O   UNL     1      38.940 -11.523   3.393  1.00  0.00    -0.271 OA
BRANCH   8  11
HETATM   11  C   UNL     1      41.512 -10.696   4.189  1.00  0.00     0.127 C 
BRANCH  11  12
HETATM   12  C   UNL     1      41.436 -10.953   5.695  1.00  0.00     0.060 C 
BRANCH  12  13
HETATM   13  C   UNL     1      42.371 -12.031   6.132  1.00  0.00    -0.029 A 
HETATM   14  C   UNL     1      42.040 -13.403   6.382  1.00  0.00    -0.002 A 
HETATM   15  C   UNL     1      43.212 -14.049   6.776  1.00  0.00     0.042 A 
HETATM   16  C   UNL     1      40.849 -14.156   6.313  1.00  0.00     0.014 A 
HETATM   17  C   UNL     1      43.254 -15.408   7.108  1.00  0.00     0.030 A 
HETATM   18  N   UNL     1      44.218 -13.112   6.758  1.00  0.00    -0.365 N 
HETATM   19  C   UNL     1      42.061 -16.131   7.033  1.00  0.00     0.002 A 
HETATM   20  C   UNL     1      40.874 -15.517   6.641  1.00  0.00     0.001 A 
HETATM   21  H   UNL     1      45.183 -13.305   6.994  1.00  0.00     0.165 HD
HETATM   22  C   UNL     1      43.723 -11.894   6.374  1.00  0.00     0.096 A 
ENDBRANCH  12  13
ENDBRANCH  11  12
ENDBRANCH   8  11
ENDBRANCH   5   7
BRANCH   3  23
HETATM   23  C   UNL     1      39.687 -13.464  -0.383  1.00  0.00     0.197 C 
HETATM   24  C   UNL     1      38.544 -12.413  -0.471  1.00  0.00     0.017 C 
HETATM   25  C   UNL     1      39.094 -10.979  -0.609  1.00  0.00     0.011 C 
HETATM   26  C   UNL     1      37.698 -12.727  -1.725  1.00  0.00     0.011 C 
HETATM   27  C   UNL     1      39.972 -10.865  -1.863  1.00  0.00    -0.013 C 
HETATM   28  C   UNL     1      41.131 -11.869  -1.765  1.00  0.00     0.011 C 
HETATM   29  C   UNL     1      39.122 -11.191  -3.103  1.00  0.00     0.009 C 
HETATM   30  C   UNL     1      40.584 -13.305  -1.643  1.00  0.00     0.017 C 
HETATM   31  C   UNL     1      39.728 -13.610  -2.892  1.00  0.00     0.011 C 
HETATM   32  C   UNL     1      38.560 -12.618  -2.993  1.00  0.00    -0.013 C 
ENDBRANCH   3  23
BRANCH   1  33
HETATM   33  N   UNL     1      42.093 -16.285   2.479  1.00  0.00    -0.276 N 
HETATM   34  N   UNL     1      42.886 -15.829   3.458  1.00  0.00     0.005 NA
HETATM   35  N   UNL     1      43.649 -16.840   3.852  1.00  0.00    -0.152 NA
HETATM   36  C   UNL     1      43.317 -17.950   3.111  1.00  0.00     0.166 A 
HETATM   37  C   UNL     1      42.320 -17.597   2.219  1.00  0.00     0.147 A 
BRANCH  36  38
HETATM   38  C   UNL     1      43.919 -19.264   3.274  1.00  0.00     0.314 C 
HETATM   39  O   UNL     1      43.859 -20.129   2.407  1.00  0.00    -0.257 OA
BRANCH  38  40
HETATM   40  O   UNL     1      44.531 -19.417   4.481  1.00  0.00    -0.321 OA
HETATM   41  C   UNL     1      44.122 -20.579   5.203  1.00  0.00     0.213 C 
ENDBRANCH  38  40
ENDBRANCH  36  38
ENDBRANCH   1  33
TORSDOF 8
ENDMDL
MODEL 4
REMARK VINA RESULT:      -8.8      3.150      8.278
REMARK  8 active torsions:
REMARK  status: ('A' for Active; 'I' for Inactive)
REMARK    1  A    between atoms: O_2  and  C_3 
REMARK    2  A    between atoms: C_3  and  C_4 
REMARK    3  A    between atoms: N_7  and  C_8 
REMARK    4  A    between atoms: N_10  and  C_12 
REMARK    5  A    between atoms: C_22  and  C_23 
REMARK       I    between atoms: C_23  and  N_24 
REMARK    6  A    between atoms: N_24  and  C_25 
REMARK    7  A    between atoms: C_25  and  C_26 
REMARK    8  A    between atoms: C_26  and  C_27 
ROOT
HETATM    1  C   UNL     1      41.059 -15.311   2.019  1.00  0.00     0.134 C 
HETATM    2  C   UNL     1      41.629 -14.171   1.190  1.00  0.00     0.263 C 
HETATM    3  N   UNL     1      40.450 -13.223   1.008  1.00  0.00    -0.051 N 
HETATM    4  H   UNL     1      40.836 -12.256   1.044  1.00  0.00     0.281 HD
HETATM    5  C   UNL     1      39.652 -13.357   2.344  1.00  0.00     0.281 C 
HETATM    6  C   UNL     1      40.214 -14.588   3.054  1.00  0.00     0.072 C 
ENDROOT
BRANCH   5   7
HETATM    7  C   UNL     1      39.873 -12.082   3.176  1.00  0.00     0.248 C 
HETATM    8  N   UNL     1      40.941 -12.076   4.035  1.00  0.00    -0.359 N 
HETATM    9  H   UNL     1      41.442 -12.928   4.260  1.00  0.00     0.162 HD
HETATM   10  O   UNL     1      39.102 -11.134   3.015  1.00  0.00    -0.271 OA
BRANCH   8  11
HETATM   11  C   UNL     1      41.227 -10.898   4.849  1.00  0.00     0.127 C 
BRANCH  11  12
HETATM   12  C   UNL     1      41.501 -11.253   6.311  1.00  0.00     0.060 C 
BRANCH  12  13
HETATM   13  C   UNL     1      42.960 -11.381   6.598  1.00  0.00    -0.029 A 
HETATM   14  C   UNL     1      43.782 -10.438   7.296  1.00  0.00    -0.002 A 
HETATM   15  C   UNL     1      45.077 -10.955   7.326  1.00  0.00     0.042 A 
HETATM   16  C   UNL     1      43.546  -9.187   7.905  1.00  0.00     0.014 A 
HETATM   17  C   UNL     1      46.148 -10.287   7.929  1.00  0.00     0.030 A 
HETATM   18  N   UNL     1      45.044 -12.169   6.680  1.00  0.00    -0.365 N 
HETATM   19  C   UNL     1      45.888  -9.050   8.524  1.00  0.00     0.002 A 
HETATM   20  C   UNL     1      44.606  -8.505   8.514  1.00  0.00     0.001 A 
HETATM   21  H   UNL     1      45.846 -12.773   6.557  1.00  0.00     0.165 HD
HETATM   22  C   UNL     1      43.776 -12.434   6.235  1.00  0.00     0.096 A 
ENDBRANCH  12  13
ENDBRANCH  11  12
ENDBRANCH   8  11
ENDBRANCH   5   7
BRANCH   3  23
HETATM   23  C   UNL     1      39.643 -13.371  -0.276  1.00  0.00     0.197 C 
HETATM   24  C   UNL     1      38.542 -12.280  -0.405  1.00  0.00     0.017 C 
HETATM   25  C   UNL     1      39.148 -10.875  -0.587  1.00  0.00     0.011 C 
HETATM   26  C   UNL     1      37.689 -12.603  -1.652  1.00  0.00     0.011 C 
HETATM   27  C   UNL     1      40.034 -10.837  -1.841  1.00  0.00    -0.013 C 
HETATM   28  C   UNL     1      41.153 -11.880  -1.703  1.00  0.00     0.011 C 
HETATM   29  C   UNL     1      39.176 -11.171  -3.073  1.00  0.00     0.009 C 
HETATM   30  C   UNL     1      40.550 -13.289  -1.537  1.00  0.00     0.017 C 
HETATM   31  C   UNL     1      39.688 -13.603  -2.778  1.00  0.00     0.011 C 
HETATM   32  C   UNL     1      38.559 -12.570  -2.918  1.00  0.00    -0.013 C 
ENDBRANCH   3  23
BRANCH   1  33
HETATM   33  N   UNL     1      42.059 -16.164   2.605  1.00  0.00    -0.276 N 
HETATM   34  N   UNL     1      42.783 -15.734   3.647  1.00  0.00     0.005 NA
HETATM   35  N   UNL     1      43.564 -16.736   4.027  1.00  0.00    -0.152 NA
HETATM   36  C   UNL     1      43.315 -17.815   3.213  1.00  0.00     0.166 A 
HETATM   37  C   UNL     1      42.350 -17.451   2.289  1.00  0.00     0.147 A 
BRANCH  36  38
HETATM   38  C   UNL     1      43.960 -19.113   3.337  1.00  0.00     0.314 C 
HETATM   39  O   UNL     1      43.953 -19.943   2.435  1.00  0.00    -0.257 OA
BRANCH  38  40
HETATM   40  O   UNL     1      44.546 -19.295   4.554  1.00  0.00    -0.321 OA
HETATM   41  C   UNL     1      44.158 -20.497   5.218  1.00  0.00     0.213 C 
ENDBRANCH  38  40
ENDBRANCH  36  38
ENDBRANCH   1  33
TORSDOF 8
ENDMDL
MODEL 5
REMARK VINA RESULT:      -8.8      1.526      2.141
REMARK  8 active torsions:
REMARK  status: ('A' for Active; 'I' for Inactive)
REMARK    1  A    between atoms: O_2  and  C_3 
REMARK    2  A    between atoms: C_3  and  C_4 
REMARK    3  A    between atoms: N_7  and  C_8 
REMARK    4  A    between atoms: N_10  and  C_12 
REMARK    5  A    between atoms: C_22  and  C_23 
REMARK       I    between atoms: C_23  and  N_24 
REMARK    6  A    between atoms: N_24  and  C_25 
REMARK    7  A    between atoms: C_25  and  C_26 
REMARK    8  A    between atoms: C_26  and  C_27 
ROOT
HETATM    1  C   UNL     1      42.745 -11.973   5.986  1.00  0.00     0.134 C 
HETATM    2  C   UNL     1      43.585 -12.252   4.751  1.00  0.00     0.263 C 
HETATM    3  N   UNL     1      42.563 -12.639   3.690  1.00  0.00    -0.051 N 
HETATM    4  H   UNL     1      42.904 -12.246   2.788  1.00  0.00     0.281 HD
HETATM    5  C   UNL     1      41.317 -11.762   4.031  1.00  0.00     0.281 C 
HETATM    6  C   UNL     1      41.568 -11.191   5.427  1.00  0.00     0.072 C 
ENDROOT
BRANCH   5   7
HETATM    7  C   UNL     1      41.204 -10.643   2.982  1.00  0.00     0.248 C 
HETATM    8  N   UNL     1      41.612 -10.940   1.707  1.00  0.00    -0.359 N 
HETATM    9  H   UNL     1      42.141 -11.781   1.505  1.00  0.00     0.162 HD
HETATM   10  O   UNL     1      40.739  -9.556   3.330  1.00  0.00    -0.271 OA
BRANCH   8  11
HETATM   11  C   UNL     1      41.523  -9.937   0.651  1.00  0.00     0.127 C 
BRANCH  11  12
HETATM   12  C   UNL     1      40.076  -9.597   0.291  1.00  0.00     0.060 C 
BRANCH  12  13
HETATM   13  C   UNL     1      39.295 -10.804  -0.110  1.00  0.00    -0.029 A 
HETATM   14  C   UNL     1      39.646 -11.754  -1.123  1.00  0.00    -0.002 A 
HETATM   15  C   UNL     1      38.631 -12.710  -1.169  1.00  0.00     0.042 A 
HETATM   16  C   UNL     1      40.735 -11.890  -2.010  1.00  0.00     0.014 A 
HETATM   17  C   UNL     1      38.646 -13.791  -2.056  1.00  0.00     0.030 A 
HETATM   18  N   UNL     1      37.703 -12.362  -0.216  1.00  0.00    -0.365 N 
HETATM   19  C   UNL     1      39.734 -13.902  -2.925  1.00  0.00     0.002 A 
HETATM   20  C   UNL     1      40.766 -12.967  -2.905  1.00  0.00     0.001 A 
HETATM   21  H   UNL     1      36.859 -12.884  -0.022  1.00  0.00     0.165 HD
HETATM   22  C   UNL     1      38.091 -11.215   0.425  1.00  0.00     0.096 A 
ENDBRANCH  12  13
ENDBRANCH  11  12
ENDBRANCH   8  11
ENDBRANCH   5   7
BRANCH   3  23
HETATM   23  C   UNL     1      42.304 -14.129   3.498  1.00  0.00     0.197 C 
HETATM   24  C   UNL     1      40.823 -14.508   3.783  1.00  0.00     0.017 C 
HETATM   25  C   UNL     1      39.864 -13.896   2.742  1.00  0.00     0.011 C 
HETATM   26  C   UNL     1      40.697 -16.046   3.709  1.00  0.00     0.011 C 
HETATM   27  C   UNL     1      40.236 -14.374   1.332  1.00  0.00    -0.013 C 
HETATM   28  C   UNL     1      41.684 -13.964   1.022  1.00  0.00     0.011 C 
HETATM   29  C   UNL     1      40.118 -15.907   1.273  1.00  0.00     0.009 C 
HETATM   30  C   UNL     1      42.646 -14.589   2.052  1.00  0.00     0.017 C 
HETATM   31  C   UNL     1      42.508 -16.125   1.983  1.00  0.00     0.011 C 
HETATM   32  C   UNL     1      41.066 -16.545   2.302  1.00  0.00    -0.013 C 
ENDBRANCH   3  23
BRANCH   1  33
HETATM   33  N   UNL     1      43.447 -11.267   7.025  1.00  0.00    -0.276 N 
HETATM   34  N   UNL     1      44.421 -11.879   7.712  1.00  0.00     0.005 NA
HETATM   35  N   UNL     1      44.939 -10.985   8.544  1.00  0.00    -0.152 NA
HETATM   36  C   UNL     1      44.283  -9.791   8.364  1.00  0.00     0.166 A 
HETATM   37  C   UNL     1      43.314  -9.967   7.391  1.00  0.00     0.147 A 
BRANCH  36  38
HETATM   38  C   UNL     1      44.589  -8.561   9.079  1.00  0.00     0.314 C 
HETATM   39  O   UNL     1      45.266  -7.664   8.589  1.00  0.00    -0.257 OA
BRANCH  38  40
HETATM   40  O   UNL     1      44.055  -8.535  10.332  1.00  0.00    -0.321 OA
HETATM   41  C   UNL     1      43.040  -7.548  10.516  1.00  0.00     0.213 C 
ENDBRANCH  38  40
ENDBRANCH  36  38
ENDBRANCH   1  33
TORSDOF 8
ENDMDL
MODEL 6
REMARK VINA RESULT:      -8.7      4.137      9.531
REMARK  8 active torsions:
REMARK  status: ('A' for Active; 'I' for Inactive)
REMARK    1  A    between atoms: O_2  and  C_3 
REMARK    2  A    between atoms: C_3  and  C_4 
REMARK    3  A    between atoms: N_7  and  C_8 
REMARK    4  A    between atoms: N_10  and  C_12 
REMARK    5  A    between atoms: C_22  and  C_23 
REMARK       I    between atoms: C_23  and  N_24 
REMARK    6  A    between atoms: N_24  and  C_25 
REMARK    7  A    between atoms: C_25  and  C_26 
REMARK    8  A    between atoms: C_26  and  C_27 
ROOT
HETATM    1  C   UNL     1      42.355 -14.378   5.216  1.00  0.00     0.134 C 
HETATM    2  C   UNL     1      42.550 -13.065   4.474  1.00  0.00     0.263 C 
HETATM    3  N   UNL     1      42.367 -12.003   5.550  1.00  0.00    -0.051 N 
HETATM    4  H   UNL     1      43.043 -11.240   5.335  1.00  0.00     0.281 HD
HETATM    5  C   UNL     1      42.952 -12.668   6.837  1.00  0.00     0.281 C 
HETATM    6  C   UNL     1      43.119 -14.152   6.510  1.00  0.00     0.072 C 
ENDROOT
BRANCH   5   7
HETATM    7  C   UNL     1      44.305 -12.011   7.156  1.00  0.00     0.248 C 
HETATM    8  N   UNL     1      44.323 -11.075   8.158  1.00  0.00    -0.359 N 
HETATM    9  H   UNL     1      43.464 -10.690   8.536  1.00  0.00     0.162 HD
HETATM   10  O   UNL     1      45.297 -12.368   6.519  1.00  0.00    -0.271 OA
BRANCH   8  11
HETATM   11  C   UNL     1      45.571 -10.416   8.530  1.00  0.00     0.127 C 
BRANCH  11  12
HETATM   12  C   UNL     1      45.488  -9.743   9.901  1.00  0.00     0.060 C 
BRANCH  12  13
HETATM   13  C   UNL     1      44.104  -9.770  10.461  1.00  0.00    -0.029 A 
HETATM   14  C   UNL     1      43.060  -8.822  10.211  1.00  0.00    -0.002 A 
HETATM   15  C   UNL     1      41.944  -9.228  10.942  1.00  0.00     0.042 A 
HETATM   16  C   UNL     1      42.960  -7.650   9.431  1.00  0.00     0.014 A 
HETATM   17  C   UNL     1      40.735  -8.524  10.936  1.00  0.00     0.030 A 
HETATM   18  N   UNL     1      42.290 -10.382  11.604  1.00  0.00    -0.365 N 
HETATM   19  C   UNL     1      40.662  -7.366  10.157  1.00  0.00     0.002 A 
HETATM   20  C   UNL     1      41.757  -6.933   9.413  1.00  0.00     0.001 A 
HETATM   21  H   UNL     1      41.668 -10.904  12.207  1.00  0.00     0.165 HD
HETATM   22  C   UNL     1      43.589 -10.716  11.324  1.00  0.00     0.096 A 
ENDBRANCH  12  13
ENDBRANCH  11  12
ENDBRANCH   8  11
ENDBRANCH   5   7
BRANCH   3  23
HETATM   23  C   UNL     1      40.978 -11.391   5.682  1.00  0.00     0.197 C 
HETATM   24  C   UNL     1      40.928 -10.277   6.766  1.00  0.00     0.017 C 
HETATM   25  C   UNL     1      41.766  -9.048   6.363  1.00  0.00     0.011 C 
HETATM   26  C   UNL     1      39.459  -9.828   6.928  1.00  0.00     0.011 C 
HETATM   27  C   UNL     1      41.256  -8.470   5.035  1.00  0.00    -0.013 C 
HETATM   28  C   UNL     1      41.343  -9.549   3.945  1.00  0.00     0.011 C 
HETATM   29  C   UNL     1      39.789  -8.037   5.205  1.00  0.00     0.009 C 
HETATM   30  C   UNL     1      40.494 -10.774   4.339  1.00  0.00     0.017 C 
HETATM   31  C   UNL     1      39.029 -10.318   4.512  1.00  0.00     0.011 C 
HETATM   32  C   UNL     1      38.930  -9.247   5.608  1.00  0.00    -0.013 C 
ENDBRANCH   3  23
BRANCH   1  33
HETATM   33  N   UNL     1      42.808 -15.534   4.489  1.00  0.00    -0.276 N 
HETATM   34  N   UNL     1      43.053 -15.448   3.175  1.00  0.00     0.005 NA
HETATM   35  N   UNL     1      43.522 -16.624   2.782  1.00  0.00    -0.152 NA
HETATM   36  C   UNL     1      43.580 -17.457   3.874  1.00  0.00     0.166 A 
HETATM   37  C   UNL     1      43.114 -16.763   4.977  1.00  0.00     0.147 A 
BRANCH  36  38
HETATM   38  C   UNL     1      44.069 -18.827   3.847  1.00  0.00     0.314 C 
HETATM   39  O   UNL     1      44.311 -19.462   4.868  1.00  0.00    -0.257 OA
BRANCH  38  40
HETATM   40  O   UNL     1      44.235 -19.301   2.581  1.00  0.00    -0.321 OA
HETATM   41  C   UNL     1      43.213 -20.202   2.154  1.00  0.00     0.213 C 
ENDBRANCH  38  40
ENDBRANCH  36  38
ENDBRANCH   1  33
TORSDOF 8
ENDMDL
MODEL 7
REMARK VINA RESULT:      -8.7      2.047      2.316
REMARK  8 active torsions:
REMARK  status: ('A' for Active; 'I' for Inactive)
REMARK    1  A    between atoms: O_2  and  C_3 
REMARK    2  A    between atoms: C_3  and  C_4 
REMARK    3  A    between atoms: N_7  and  C_8 
REMARK    4  A    between atoms: N_10  and  C_12 
REMARK    5  A    between atoms: C_22  and  C_23 
REMARK       I    between atoms: C_23  and  N_24 
REMARK    6  A    between atoms: N_24  and  C_25 
REMARK    7  A    between atoms: C_25  and  C_26 
REMARK    8  A    between atoms: C_26  and  C_27 
ROOT
HETATM    1  C   UNL     1      39.637 -11.628   5.522  1.00  0.00     0.134 C 
HETATM    2  C   UNL     1      41.033 -11.964   5.022  1.00  0.00     0.263 C 
HETATM    3  N   UNL     1      40.802 -12.483   3.608  1.00  0.00    -0.051 N 
HETATM    4  H   UNL     1      41.602 -12.148   3.032  1.00  0.00     0.281 HD
HETATM    5  C   UNL     1      39.592 -11.641   3.092  1.00  0.00     0.281 C 
HETATM    6  C   UNL     1      39.001 -10.950   4.320  1.00  0.00     0.072 C 
ENDROOT
BRANCH   5   7
HETATM    7  C   UNL     1      40.110 -10.616   2.069  1.00  0.00     0.248 C 
HETATM    8  N   UNL     1      39.175  -9.989   1.287  1.00  0.00    -0.359 N 
HETATM    9  H   UNL     1      38.217 -10.319   1.242  1.00  0.00     0.162 HD
HETATM   10  O   UNL     1      41.321 -10.398   2.018  1.00  0.00    -0.271 OA
BRANCH   8  11
HETATM   11  C   UNL     1      39.585  -8.993   0.302  1.00  0.00     0.127 C 
BRANCH  11  12
HETATM   12  C   UNL     1      39.229  -9.407  -1.127  1.00  0.00     0.060 C 
BRANCH  12  13
HETATM   13  C   UNL     1      39.913 -10.668  -1.537  1.00  0.00    -0.029 A 
HETATM   14  C   UNL     1      39.286 -11.879  -1.977  1.00  0.00    -0.002 A 
HETATM   15  C   UNL     1      40.299 -12.799  -2.247  1.00  0.00     0.042 A 
HETATM   16  C   UNL     1      37.947 -12.281  -2.168  1.00  0.00     0.014 A 
HETATM   17  C   UNL     1      40.044 -14.100  -2.695  1.00  0.00     0.030 A 
HETATM   18  N   UNL     1      41.496 -12.172  -1.991  1.00  0.00    -0.365 N 
HETATM   19  C   UNL     1      38.710 -14.473  -2.875  1.00  0.00     0.002 A 
HETATM   20  C   UNL     1      37.674 -13.579  -2.617  1.00  0.00     0.001 A 
HETATM   21  H   UNL     1      42.404 -12.603  -2.108  1.00  0.00     0.165 HD
HETATM   22  C   UNL     1      41.276 -10.890  -1.561  1.00  0.00     0.096 A 
ENDBRANCH  12  13
ENDBRANCH  11  12
ENDBRANCH   8  11
ENDBRANCH   5   7
BRANCH   3  23
HETATM   23  C   UNL     1      40.690 -13.994   3.442  1.00  0.00     0.197 C 
HETATM   24  C   UNL     1      40.537 -14.409   1.951  1.00  0.00     0.017 C 
HETATM   25  C   UNL     1      41.812 -14.108   1.138  1.00  0.00     0.011 C 
HETATM   26  C   UNL     1      40.281 -15.932   1.899  1.00  0.00     0.011 C 
HETATM   27  C   UNL     1      43.013 -14.851   1.739  1.00  0.00    -0.013 C 
HETATM   28  C   UNL     1      43.202 -14.413   3.200  1.00  0.00     0.011 C 
HETATM   29  C   UNL     1      42.742 -16.364   1.693  1.00  0.00     0.009 C 
HETATM   30  C   UNL     1      41.934 -14.729   4.018  1.00  0.00     0.017 C 
HETATM   31  C   UNL     1      41.675 -16.249   3.954  1.00  0.00     0.011 C 
HETATM   32  C   UNL     1      41.475 -16.694   2.498  1.00  0.00    -0.013 C 
ENDBRANCH   3  23
BRANCH   1  33
HETATM   33  N   UNL     1      39.621 -10.809   6.705  1.00  0.00    -0.276 N 
HETATM   34  N   UNL     1      38.616 -10.918   7.583  1.00  0.00     0.005 NA
HETATM   35  N   UNL     1      38.890 -10.111   8.600  1.00  0.00    -0.152 NA
HETATM   36  C   UNL     1      40.094  -9.495   8.355  1.00  0.00     0.166 A 
HETATM   37  C   UNL     1      40.568  -9.935   7.131  1.00  0.00     0.147 A 
BRANCH  36  38
HETATM   38  C   UNL     1      40.744  -8.557   9.257  1.00  0.00     0.314 C 
HETATM   39  O   UNL     1      41.677  -7.843   8.907  1.00  0.00    -0.257 OA
BRANCH  38  40
HETATM   40  O   UNL     1      40.211  -8.579  10.511  1.00  0.00    -0.321 OA
HETATM   41  C   UNL     1      40.972  -9.327  11.459  1.00  0.00     0.213 C 
ENDBRANCH  38  40
ENDBRANCH  36  38
ENDBRANCH   1  33
TORSDOF 8
ENDMDL
MODEL 8
REMARK VINA RESULT:      -8.4      3.009      6.062
REMARK  8 active torsions:
REMARK  status: ('A' for Active; 'I' for Inactive)
REMARK    1  A    between atoms: O_2  and  C_3 
REMARK    2  A    between atoms: C_3  and  C_4 
REMARK    3  A    between atoms: N_7  and  C_8 
REMARK    4  A    between atoms: N_10  and  C_12 
REMARK    5  A    between atoms: C_22  and  C_23 
REMARK       I    between atoms: C_23  and  N_24 
REMARK    6  A    between atoms: N_24  and  C_25 
REMARK    7  A    between atoms: C_25  and  C_26 
REMARK    8  A    between atoms: C_26  and  C_27 
ROOT
HETATM    1  C   UNL     1      40.776 -10.078   6.628  1.00  0.00     0.134 C 
HETATM    2  C   UNL     1      39.948 -11.180   5.987  1.00  0.00     0.263 C 
HETATM    3  N   UNL     1      40.866 -11.755   4.917  1.00  0.00    -0.051 N 
HETATM    4  H   UNL     1      40.690 -12.781   4.893  1.00  0.00     0.281 HD
HETATM    5  C   UNL     1      42.293 -11.635   5.542  1.00  0.00     0.281 C 
HETATM    6  C   UNL     1      42.150 -10.715   6.754  1.00  0.00     0.072 C 
ENDROOT
BRANCH   5   7
HETATM    7  C   UNL     1      42.764 -13.039   5.958  1.00  0.00     0.248 C 
HETATM    8  N   UNL     1      42.028 -14.104   5.505  1.00  0.00    -0.359 N 
HETATM    9  H   UNL     1      41.115 -13.973   5.086  1.00  0.00     0.162 HD
HETATM   10  O   UNL     1      43.778 -13.136   6.651  1.00  0.00    -0.271 OA
BRANCH   8  11
HETATM   11  C   UNL     1      42.419 -15.468   5.845  1.00  0.00     0.127 C 
BRANCH  11  12
HETATM   12  C   UNL     1      43.749 -15.869   5.206  1.00  0.00     0.060 C 
BRANCH  12  13
HETATM   13  C   UNL     1      43.564 -16.792   4.047  1.00  0.00    -0.029 A 
HETATM   14  C   UNL     1      43.707 -18.218   4.055  1.00  0.00    -0.002 A 
HETATM   15  C   UNL     1      43.453 -18.670   2.761  1.00  0.00     0.042 A 
HETATM   16  C   UNL     1      44.035 -19.168   5.045  1.00  0.00     0.014 A 
HETATM   17  C   UNL     1      43.510 -20.021   2.404  1.00  0.00     0.030 A 
HETATM   18  N   UNL     1      43.156 -17.566   1.996  1.00  0.00    -0.365 N 
HETATM   19  C   UNL     1      43.838 -20.942   3.402  1.00  0.00     0.002 A 
HETATM   20  C   UNL     1      44.096 -20.525   4.705  1.00  0.00     0.001 A 
HETATM   21  H   UNL     1      42.923 -17.598   1.012  1.00  0.00     0.165 HD
HETATM   22  C   UNL     1      43.223 -16.430   2.759  1.00  0.00     0.096 A 
ENDBRANCH  12  13
ENDBRANCH  11  12
ENDBRANCH   8  11
ENDBRANCH   5   7
BRANCH   3  23
HETATM   23  C   UNL     1      40.702 -11.206   3.505  1.00  0.00     0.197 C 
HETATM   24  C   UNL     1      41.730 -11.823   2.513  1.00  0.00     0.017 C 
HETATM   25  C   UNL     1      41.476 -13.326   2.287  1.00  0.00     0.011 C 
HETATM   26  C   UNL     1      41.584 -11.099   1.157  1.00  0.00     0.011 C 
HETATM   27  C   UNL     1      40.060 -13.549   1.736  1.00  0.00    -0.013 C 
HETATM   28  C   UNL     1      39.034 -12.984   2.730  1.00  0.00     0.011 C 
HETATM   29  C   UNL     1      39.923 -12.814   0.391  1.00  0.00     0.009 C 
HETATM   30  C   UNL     1      39.276 -11.477   2.946  1.00  0.00     0.017 C 
HETATM   31  C   UNL     1      39.141 -10.759   1.586  1.00  0.00     0.011 C 
HETATM   32  C   UNL     1      40.171 -11.310   0.588  1.00  0.00    -0.013 C 
ENDBRANCH   3  23
BRANCH   1  33
HETATM   33  N   UNL     1      40.256  -9.609   7.885  1.00  0.00    -0.276 N 
HETATM   34  N   UNL     1      38.991  -9.883   8.232  1.00  0.00     0.005 NA
HETATM   35  N   UNL     1      38.803  -9.402   9.453  1.00  0.00    -0.152 NA
HETATM   36  C   UNL     1      39.976  -8.826   9.880  1.00  0.00     0.166 A 
HETATM   37  C   UNL     1      40.915  -8.949   8.871  1.00  0.00     0.147 A 
BRANCH  36  38
HETATM   38  C   UNL     1      40.172  -8.213  11.185  1.00  0.00     0.314 C 
HETATM   39  O   UNL     1      41.024  -7.356  11.390  1.00  0.00    -0.257 OA
BRANCH  38  40
HETATM   40  O   UNL     1      39.322  -8.705  12.129  1.00  0.00    -0.321 OA
HETATM   41  C   UNL     1      39.963  -9.451  13.163  1.00  0.00     0.213 C 
ENDBRANCH  38  40
ENDBRANCH  36  38
ENDBRANCH   1  33
TORSDOF 8
ENDMDL
MODEL 9
REMARK VINA RESULT:      -8.4     17.404     19.998
REMARK  8 active torsions:
REMARK  status: ('A' for Active; 'I' for Inactive)
REMARK    1  A    between atoms: O_2  and  C_3 
REMARK    2  A    between atoms: C_3  and  C_4 
REMARK    3  A    between atoms: N_7  and  C_8 
REMARK    4  A    between atoms: N_10  and  C_12 
REMARK    5  A    between atoms: C_22  and  C_23 
REMARK       I    between atoms: C_23  and  N_24 
REMARK    6  A    between atoms: N_24  and  C_25 
REMARK    7  A    between atoms: C_25  and  C_26 
REMARK    8  A    between atoms: C_26  and  C_27 
ROOT
HETATM    1  C   UNL     1      42.281 -30.146   1.723  1.00  0.00     0.134 C 
HETATM    2  C   UNL     1      43.332 -30.943   0.969  1.00  0.00     0.263 C 
HETATM    3  N   UNL     1      44.361 -29.898   0.556  1.00  0.00    -0.051 N 
HETATM    4  H   UNL     1      45.295 -30.353   0.627  1.00  0.00     0.281 HD
HETATM    5  C   UNL     1      44.353 -28.877   1.739  1.00  0.00     0.281 C 
HETATM    6  C   UNL     1      43.115 -29.203   2.574  1.00  0.00     0.072 C 
ENDROOT
BRANCH   5   7
HETATM    7  C   UNL     1      45.643 -29.064   2.555  1.00  0.00     0.248 C 
HETATM    8  N   UNL     1      45.666 -30.096   3.458  1.00  0.00    -0.359 N 
HETATM    9  H   UNL     1      44.818 -30.587   3.719  1.00  0.00     0.162 HD
HETATM   10  O   UNL     1      46.587 -28.301   2.345  1.00  0.00    -0.271 OA
BRANCH   8  11
HETATM   11  C   UNL     1      46.859 -30.348   4.260  1.00  0.00     0.127 C 
BRANCH  11  12
HETATM   12  C   UNL     1      47.749 -31.434   3.655  1.00  0.00     0.060 C 
BRANCH  12  13
HETATM   13  C   UNL     1      48.813 -30.867   2.775  1.00  0.00    -0.029 A 
HETATM   14  C   UNL     1      49.079 -31.222   1.413  1.00  0.00    -0.002 A 
HETATM   15  C   UNL     1      50.162 -30.455   0.986  1.00  0.00     0.042 A 
HETATM   16  C   UNL     1      48.500 -32.131   0.502  1.00  0.00     0.014 A 
HETATM   17  C   UNL     1      50.698 -30.549  -0.303  1.00  0.00     0.030 A 
HETATM   18  N   UNL     1      50.536 -29.656   2.040  1.00  0.00    -0.365 N 
HETATM   19  C   UNL     1      50.108 -31.458  -1.186  1.00  0.00     0.002 A 
HETATM   20  C   UNL     1      49.024 -32.239  -0.792  1.00  0.00     0.001 A 
HETATM   21  H   UNL     1      51.295 -28.988   2.011  1.00  0.00     0.165 HD
HETATM   22  C   UNL     1      49.732 -29.897   3.124  1.00  0.00     0.096 A 
ENDBRANCH  12  13
ENDBRANCH  11  12
ENDBRANCH   8  11
ENDBRANCH   5   7
BRANCH   3  23
HETATM   23  C   UNL     1      44.218 -29.308  -0.841  1.00  0.00     0.197 C 
HETATM   24  C   UNL     1      45.444 -28.437  -1.238  1.00  0.00     0.017 C 
HETATM   25  C   UNL     1      46.722 -29.285  -1.394  1.00  0.00     0.011 C 
HETATM   26  C   UNL     1      45.140 -27.769  -2.597  1.00  0.00     0.011 C 
HETATM   27  C   UNL     1      46.515 -30.366  -2.464  1.00  0.00    -0.013 C 
HETATM   28  C   UNL     1      45.334 -31.262  -2.059  1.00  0.00     0.011 C 
HETATM   29  C   UNL     1      46.201 -29.689  -3.810  1.00  0.00     0.009 C 
HETATM   30  C   UNL     1      44.051 -30.418  -1.918  1.00  0.00     0.017 C 
HETATM   31  C   UNL     1      43.757 -29.742  -3.274  1.00  0.00     0.011 C 
HETATM   32  C   UNL     1      44.929 -28.836  -3.682  1.00  0.00    -0.013 C 
ENDBRANCH   3  23
BRANCH   1  33
HETATM   33  N   UNL     1      41.378 -30.955   2.499  1.00  0.00    -0.276 N 
HETATM   34  N   UNL     1      40.482 -31.739   1.885  1.00  0.00     0.005 NA
HETATM   35  N   UNL     1      39.840 -32.418   2.826  1.00  0.00    -0.152 NA
HETATM   36  C   UNL     1      40.354 -32.058   4.050  1.00  0.00     0.166 A 
HETATM   37  C   UNL     1      41.340 -31.109   3.847  1.00  0.00     0.147 A 
BRANCH  36  38
HETATM   38  C   UNL     1      39.923 -32.612   5.324  1.00  0.00     0.314 C 
HETATM   39  O   UNL     1      40.671 -33.260   6.049  1.00  0.00    -0.257 OA
BRANCH  38  40
HETATM   40  O   UNL     1      38.617 -32.342   5.601  1.00  0.00    -0.321 OA
HETATM   41  C   UNL     1      37.819 -33.499   5.851  1.00  0.00     0.213 C 
ENDBRANCH  38  40
ENDBRANCH  36  38
ENDBRANCH   1  33
TORSDOF 8
ENDMDL
MODEL 10
REMARK VINA RESULT:      -8.0      3.079      5.806
REMARK  8 active torsions:
REMARK  status: ('A' for Active; 'I' for Inactive)
REMARK    1  A    between atoms: O_2  and  C_3 
REMARK    2  A    between atoms: C_3  and  C_4 
REMARK    3  A    between atoms: N_7  and  C_8 
REMARK    4  A    between atoms: N_10  and  C_12 
REMARK    5  A    between atoms: C_22  and  C_23 
REMARK       I    between atoms: C_23  and  N_24 
REMARK    6  A    between atoms: N_24  and  C_25 
REMARK    7  A    between atoms: C_25  and  C_26 
REMARK    8  A    between atoms: C_26  and  C_27 
ROOT
HETATM    1  C   UNL     1      41.636  -8.887   8.610  1.00  0.00     0.134 C 
HETATM    2  C   UNL     1      40.710 -10.013   8.181  1.00  0.00     0.263 C 
HETATM    3  N   UNL     1      41.315 -10.509   6.874  1.00  0.00    -0.051 N 
HETATM    4  H   UNL     1      41.184 -11.542   6.857  1.00  0.00     0.281 HD
HETATM    5  C   UNL     1      42.853 -10.331   7.082  1.00  0.00     0.281 C 
HETATM    6  C   UNL     1      43.016  -9.454   8.323  1.00  0.00     0.072 C 
ENDROOT
BRANCH   5   7
HETATM    7  C   UNL     1      43.483 -11.719   7.292  1.00  0.00     0.248 C 
HETATM    8  N   UNL     1      42.712 -12.808   6.975  1.00  0.00    -0.359 N 
HETATM    9  H   UNL     1      41.717 -12.717   6.800  1.00  0.00     0.162 HD
HETATM   10  O   UNL     1      44.640 -11.782   7.709  1.00  0.00    -0.271 OA
BRANCH   8  11
HETATM   11  C   UNL     1      43.242 -14.158   7.133  1.00  0.00     0.127 C 
BRANCH  11  12
HETATM   12  C   UNL     1      43.475 -14.853   5.790  1.00  0.00     0.060 C 
BRANCH  12  13
HETATM   13  C   UNL     1      42.200 -15.302   5.157  1.00  0.00    -0.029 A 
HETATM   14  C   UNL     1      41.893 -15.305   3.758  1.00  0.00    -0.002 A 
HETATM   15  C   UNL     1      40.594 -15.794   3.617  1.00  0.00     0.042 A 
HETATM   16  C   UNL     1      42.599 -14.932   2.594  1.00  0.00     0.014 A 
HETATM   17  C   UNL     1      39.964 -15.928   2.376  1.00  0.00     0.030 A 
HETATM   18  N   UNL     1      40.131 -16.087   4.879  1.00  0.00    -0.365 N 
HETATM   19  C   UNL     1      40.684 -15.551   1.239  1.00  0.00     0.002 A 
HETATM   20  C   UNL     1      41.983 -15.060   1.343  1.00  0.00     0.001 A 
HETATM   21  H   UNL     1      39.216 -16.466   5.078  1.00  0.00     0.165 HD
HETATM   22  C   UNL     1      41.089 -15.792   5.813  1.00  0.00     0.096 A 
ENDBRANCH  12  13
ENDBRANCH  11  12
ENDBRANCH   8  11
ENDBRANCH   5   7
BRANCH   3  23
HETATM   23  C   UNL     1      40.739  -9.931   5.587  1.00  0.00     0.197 C 
HETATM   24  C   UNL     1      41.663 -10.190   4.363  1.00  0.00     0.017 C 
HETATM   25  C   UNL     1      41.744 -11.689   4.013  1.00  0.00     0.011 C 
HETATM   26  C   UNL     1      41.072  -9.442   3.147  1.00  0.00     0.011 C 
HETATM   27  C   UNL     1      40.344 -12.238   3.703  1.00  0.00    -0.013 C 
HETATM   28  C   UNL     1      39.435 -12.028   4.924  1.00  0.00     0.011 C 
HETATM   29  C   UNL     1      39.761 -11.478   2.499  1.00  0.00     0.009 C 
HETATM   30  C   UNL     1      39.340 -10.528   5.266  1.00  0.00     0.017 C 
HETATM   31  C   UNL     1      38.760  -9.783   4.044  1.00  0.00     0.011 C 
HETATM   32  C   UNL     1      39.669  -9.978   2.821  1.00  0.00    -0.013 C 
ENDBRANCH   3  23
BRANCH   1  33
HETATM   33  N   UNL     1      41.469  -8.482   9.981  1.00  0.00    -0.276 N 
HETATM   34  N   UNL     1      40.254  -8.506  10.545  1.00  0.00     0.005 NA
HETATM   35  N   UNL     1      40.400  -8.159  11.816  1.00  0.00    -0.152 NA
HETATM   36  C   UNL     1      41.734  -7.924  12.052  1.00  0.00     0.166 A 
HETATM   37  C   UNL     1      42.428  -8.123  10.871  1.00  0.00     0.147 A 
BRANCH  36  38
HETATM   38  C   UNL     1      42.294  -7.548  13.341  1.00  0.00     0.314 C 
HETATM   39  O   UNL     1      43.495  -7.603  13.581  1.00  0.00    -0.257 OA
BRANCH  38  40
HETATM   40  O   UNL     1      41.342  -7.149  14.231  1.00  0.00    -0.321 OA
HETATM   41  C   UNL     1      41.664  -7.423  15.595  1.00  0.00     0.213 C 
ENDBRANCH  38  40
ENDBRANCH  36  38
ENDBRANCH   1  33
TORSDOF 8
ENDMDL
