MODEL 1
REMARK VINA RESULT:      -8.7      0.000      0.000
REMARK  6 active torsions:
REMARK  status: ('A' for Active; 'I' for Inactive)
REMARK    1  A    between atoms: C_3  and  C_4 
REMARK    2  A    between atoms: C_9  and  N_10 
REMARK       I    between atoms: N_10  and  C_11 
REMARK       I    between atoms: C_11  and  N_12 
REMARK    3  A    between atoms: N_12  and  C_13 
REMARK    4  A    between atoms: C_13  and  C_14 
REMARK    5  A    between atoms: C_14  and  C_15 
REMARK    6  A    between atoms: C_18  and  N_19 
ROOT
HETATM    1  N   UNL     1      43.808 -10.939   8.612  1.00  0.00    -0.309 N 
HETATM    2  C   UNL     1      44.971 -11.019   7.898  1.00  0.00     0.320 C 
HETATM    3  N   UNL     1      44.933 -11.814   6.791  1.00  0.00    -0.343 N 
HETATM    4  O   UNL     1      46.021 -10.434   8.144  1.00  0.00    -0.247 OA
HETATM    5  H   UNL     1      43.011 -11.411   8.220  1.00  0.00     0.170 HD
HETATM    6  H   UNL     1      45.804 -11.789   6.274  1.00  0.00     0.164 HD
ENDROOT
BRANCH   3   7
HETATM    7  C   UNL     1      43.843 -12.592   6.221  1.00  0.00     0.129 C 
BRANCH   7   8
HETATM    8  C   UNL     1      43.562 -13.898   6.972  1.00  0.00     0.058 C 
BRANCH   8   9
HETATM    9  C   UNL     1      43.583 -15.120   6.085  1.00  0.00    -0.057 A 
HETATM   10  C   UNL     1      44.129 -16.322   6.548  1.00  0.00     0.009 A 
HETATM   11  C   UNL     1      44.132 -17.458   5.735  1.00  0.00     0.032 A 
HETATM   12  C   UNL     1      43.595 -17.407   4.441  1.00  0.00     0.058 A 
HETATM   13  C   UNL     1      43.060 -16.202   3.968  1.00  0.00     0.032 A 
HETATM   14  C   UNL     1      43.054 -15.069   4.789  1.00  0.00     0.009 A 
BRANCH  12  15
HETATM   15  N   UNL     1      43.595 -18.582   3.637  1.00  0.00    -0.246 N 
HETATM   16  N   UNL     1      44.049 -19.767   4.130  1.00  0.00    -0.180 NA
HETATM   17  C   UNL     1      43.891 -20.635   3.131  1.00  0.00     0.140 A 
HETATM   18  C   UNL     1      43.347 -20.041   1.985  1.00  0.00     0.040 A 
HETATM   19  C   UNL     1      43.167 -18.724   2.332  1.00  0.00     0.120 A 
ENDBRANCH  12  15
ENDBRANCH   8   9
ENDBRANCH   7   8
ENDBRANCH   3   7
BRANCH   1  20
HETATM   20  C   UNL     1      43.566 -10.208   9.791  1.00  0.00     0.036 A 
HETATM   21  C   UNL     1      43.581 -10.760  11.070  1.00  0.00     0.030 A 
HETATM   22  C   UNL     1      43.316  -9.964  12.189  1.00  0.00     0.018 A 
HETATM   23  C   UNL     1      43.044  -8.595  12.050  1.00  0.00     0.015 A 
HETATM   24  C   UNL     1      43.036  -8.018  10.766  1.00  0.00    -0.046 A 
HETATM   25  C   UNL     1      42.763  -6.556  10.535  1.00  0.00     0.049 C 
HETATM   26  C   UNL     1      43.281  -8.842   9.650  1.00  0.00     0.037 A 
BRANCH  23  27
HETATM   27  C   UNL     1      42.745  -7.789  13.271  1.00  0.00     0.156 C 
HETATM   28  C   UNL     1      41.309  -7.661  13.711  1.00  0.00     0.097 C 
HETATM   29  O   UNL     1      43.648  -7.224  13.884  1.00  0.00    -0.293 OA
ENDBRANCH  23  27
ENDBRANCH   1  20
TORSDOF 6
ENDMDL
MODEL 2
REMARK VINA RESULT:      -8.4      4.736      9.405
REMARK  6 active torsions:
REMARK  status: ('A' for Active; 'I' for Inactive)
REMARK    1  A    between atoms: C_3  and  C_4 
REMARK    2  A    between atoms: C_9  and  N_10 
REMARK       I    between atoms: N_10  and  C_11 
REMARK       I    between atoms: C_11  and  N_12 
REMARK    3  A    between atoms: N_12  and  C_13 
REMARK    4  A    between atoms: C_13  and  C_14 
REMARK    5  A    between atoms: C_14  and  C_15 
REMARK    6  A    between atoms: C_18  and  N_19 
ROOT
HETATM    1  N   UNL     1      43.589 -15.550   5.681  1.00  0.00    -0.309 N 
HETATM    2  C   UNL     1      42.874 -15.325   6.825  1.00  0.00     0.320 C 
HETATM    3  N   UNL     1      43.029 -14.092   7.387  1.00  0.00    -0.343 N 
HETATM    4  O   UNL     1      42.103 -16.108   7.370  1.00  0.00    -0.247 OA
HETATM    5  H   UNL     1      44.104 -14.767   5.317  1.00  0.00     0.170 HD
HETATM    6  H   UNL     1      42.433 -13.966   8.198  1.00  0.00     0.164 HD
ENDROOT
BRANCH   3   7
HETATM    7  C   UNL     1      43.824 -12.951   6.962  1.00  0.00     0.129 C 
BRANCH   7   8
HETATM    8  C   UNL     1      43.006 -11.854   6.272  1.00  0.00     0.058 C 
BRANCH   8   9
HETATM    9  C   UNL     1      42.408 -12.287   4.954  1.00  0.00    -0.057 A 
HETATM   10  C   UNL     1      43.235 -12.577   3.863  1.00  0.00     0.009 A 
HETATM   11  C   UNL     1      42.684 -12.996   2.649  1.00  0.00     0.032 A 
HETATM   12  C   UNL     1      41.295 -13.125   2.505  1.00  0.00     0.058 A 
HETATM   13  C   UNL     1      40.464 -12.822   3.591  1.00  0.00     0.032 A 
HETATM   14  C   UNL     1      41.021 -12.408   4.806  1.00  0.00     0.009 A 
BRANCH  12  15
HETATM   15  N   UNL     1      40.759 -13.568   1.264  1.00  0.00    -0.246 N 
HETATM   16  N   UNL     1      40.683 -12.730   0.195  1.00  0.00    -0.180 NA
HETATM   17  C   UNL     1      40.156 -13.468  -0.782  1.00  0.00     0.140 A 
HETATM   18  C   UNL     1      39.874 -14.778  -0.372  1.00  0.00     0.040 A 
HETATM   19  C   UNL     1      40.268 -14.819   0.944  1.00  0.00     0.120 A 
ENDBRANCH  12  15
ENDBRANCH   8   9
ENDBRANCH   7   8
ENDBRANCH   3   7
BRANCH   1  20
HETATM   20  C   UNL     1      43.628 -16.723   4.903  1.00  0.00     0.036 A 
HETATM   21  C   UNL     1      43.467 -16.748   3.520  1.00  0.00     0.030 A 
HETATM   22  C   UNL     1      43.506 -17.960   2.823  1.00  0.00     0.018 A 
HETATM   23  C   UNL     1      43.724 -19.170   3.498  1.00  0.00     0.015 A 
HETATM   24  C   UNL     1      43.901 -19.162   4.894  1.00  0.00    -0.046 A 
HETATM   25  C   UNL     1      44.148 -20.417   5.688  1.00  0.00     0.049 C 
HETATM   26  C   UNL     1      43.832 -17.934   5.580  1.00  0.00     0.037 A 
BRANCH  23  27
HETATM   27  C   UNL     1      43.736 -20.443   2.716  1.00  0.00     0.156 C 
HETATM   28  C   UNL     1      43.295 -20.403   1.275  1.00  0.00     0.097 C 
HETATM   29  O   UNL     1      44.072 -21.498   3.245  1.00  0.00    -0.293 OA
ENDBRANCH  23  27
ENDBRANCH   1  20
TORSDOF 6
ENDMDL
MODEL 3
REMARK VINA RESULT:      -8.4      3.914      5.959
REMARK  6 active torsions:
REMARK  status: ('A' for Active; 'I' for Inactive)
REMARK    1  A    between atoms: C_3  and  C_4 
REMARK    2  A    between atoms: C_9  and  N_10 
REMARK       I    between atoms: N_10  and  C_11 
REMARK       I    between atoms: C_11  and  N_12 
REMARK    3  A    between atoms: N_12  and  C_13 
REMARK    4  A    between atoms: C_13  and  C_14 
REMARK    5  A    between atoms: C_14  and  C_15 
REMARK    6  A    between atoms: C_18  and  N_19 
ROOT
HETATM    1  N   UNL     1      41.365 -12.066   2.859  1.00  0.00    -0.309 N 
HETATM    2  C   UNL     1      41.471 -11.425   1.655  1.00  0.00     0.320 C 
HETATM    3  N   UNL     1      40.620 -11.853   0.679  1.00  0.00    -0.343 N 
HETATM    4  O   UNL     1      42.232 -10.503   1.384  1.00  0.00    -0.247 OA
HETATM    5  H   UNL     1      40.623 -12.741   2.940  1.00  0.00     0.170 HD
HETATM    6  H   UNL     1      40.707 -11.305  -0.169  1.00  0.00     0.164 HD
ENDROOT
BRANCH   3   7
HETATM    7  C   UNL     1      39.590 -12.880   0.706  1.00  0.00     0.129 C 
BRANCH   7   8
HETATM    8  C   UNL     1      40.067 -14.243   0.192  1.00  0.00     0.058 C 
BRANCH   8   9
HETATM    9  C   UNL     1      40.825 -15.044   1.223  1.00  0.00    -0.057 A 
HETATM   10  C   UNL     1      40.155 -15.615   2.310  1.00  0.00     0.009 A 
HETATM   11  C   UNL     1      40.853 -16.372   3.255  1.00  0.00     0.032 A 
HETATM   12  C   UNL     1      42.236 -16.563   3.131  1.00  0.00     0.058 A 
HETATM   13  C   UNL     1      42.914 -15.981   2.052  1.00  0.00     0.032 A 
HETATM   14  C   UNL     1      42.209 -15.229   1.106  1.00  0.00     0.009 A 
BRANCH  12  15
HETATM   15  N   UNL     1      42.922 -17.350   4.097  1.00  0.00    -0.246 N 
HETATM   16  N   UNL     1      42.702 -17.174   5.429  1.00  0.00    -0.180 NA
HETATM   17  C   UNL     1      43.484 -18.073   6.027  1.00  0.00     0.140 A 
HETATM   18  C   UNL     1      44.224 -18.834   5.112  1.00  0.00     0.040 A 
HETATM   19  C   UNL     1      43.849 -18.352   3.881  1.00  0.00     0.120 A 
ENDBRANCH  12  15
ENDBRANCH   8   9
ENDBRANCH   7   8
ENDBRANCH   3   7
BRANCH   1  20
HETATM   20  C   UNL     1      42.116 -11.840   4.028  1.00  0.00     0.036 A 
HETATM   21  C   UNL     1      42.322 -10.584   4.593  1.00  0.00     0.030 A 
HETATM   22  C   UNL     1      43.095 -10.445   5.751  1.00  0.00     0.018 A 
HETATM   23  C   UNL     1      43.663 -11.565   6.374  1.00  0.00     0.015 A 
HETATM   24  C   UNL     1      43.455 -12.844   5.823  1.00  0.00    -0.046 A 
HETATM   25  C   UNL     1      44.023 -14.095   6.439  1.00  0.00     0.049 C 
HETATM   26  C   UNL     1      42.695 -12.959   4.643  1.00  0.00     0.037 A 
BRANCH  23  27
HETATM   27  C   UNL     1      44.499 -11.367   7.596  1.00  0.00     0.156 C 
HETATM   28  C   UNL     1      45.928 -10.920   7.423  1.00  0.00     0.097 C 
HETATM   29  O   UNL     1      44.036 -11.589   8.712  1.00  0.00    -0.293 OA
ENDBRANCH  23  27
ENDBRANCH   1  20
TORSDOF 6
ENDMDL
MODEL 4
REMARK VINA RESULT:      -8.3      2.691      4.278
REMARK  6 active torsions:
REMARK  status: ('A' for Active; 'I' for Inactive)
REMARK    1  A    between atoms: C_3  and  C_4 
REMARK    2  A    between atoms: C_9  and  N_10 
REMARK       I    between atoms: N_10  and  C_11 
REMARK       I    between atoms: C_11  and  N_12 
REMARK    3  A    between atoms: N_12  and  C_13 
REMARK    4  A    between atoms: C_13  and  C_14 
REMARK    5  A    between atoms: C_14  and  C_15 
REMARK    6  A    between atoms: C_18  and  N_19 
ROOT
HETATM    1  N   UNL     1      41.437 -12.020   5.076  1.00  0.00    -0.309 N 
HETATM    2  C   UNL     1      40.384 -12.856   5.326  1.00  0.00     0.320 C 
HETATM    3  N   UNL     1      39.851 -13.477   4.235  1.00  0.00    -0.343 N 
HETATM    4  O   UNL     1      39.899 -13.112   6.422  1.00  0.00    -0.247 OA
HETATM    5  H   UNL     1      41.770 -11.994   4.128  1.00  0.00     0.170 HD
HETATM    6  H   UNL     1      39.113 -14.125   4.489  1.00  0.00     0.164 HD
ENDROOT
BRANCH   3   7
HETATM    7  C   UNL     1      40.227 -13.414   2.831  1.00  0.00     0.129 C 
BRANCH   7   8
HETATM    8  C   UNL     1      41.728 -13.606   2.588  1.00  0.00     0.058 C 
BRANCH   8   9
HETATM    9  C   UNL     1      42.217 -14.998   2.910  1.00  0.00    -0.057 A 
HETATM   10  C   UNL     1      43.058 -15.217   4.007  1.00  0.00     0.009 A 
HETATM   11  C   UNL     1      43.496 -16.507   4.317  1.00  0.00     0.032 A 
HETATM   12  C   UNL     1      43.106 -17.600   3.529  1.00  0.00     0.058 A 
HETATM   13  C   UNL     1      42.276 -17.382   2.422  1.00  0.00     0.032 A 
HETATM   14  C   UNL     1      41.835 -16.089   2.120  1.00  0.00     0.009 A 
BRANCH  12  15
HETATM   15  N   UNL     1      43.552 -18.906   3.874  1.00  0.00    -0.246 N 
HETATM   16  N   UNL     1      43.621 -19.892   2.939  1.00  0.00    -0.180 NA
HETATM   17  C   UNL     1      44.085 -20.955   3.596  1.00  0.00     0.140 A 
HETATM   18  C   UNL     1      44.316 -20.688   4.952  1.00  0.00     0.040 A 
HETATM   19  C   UNL     1      43.965 -19.369   5.108  1.00  0.00     0.120 A 
ENDBRANCH  12  15
ENDBRANCH   8   9
ENDBRANCH   7   8
ENDBRANCH   3   7
BRANCH   1  20
HETATM   20  C   UNL     1      42.167 -11.249   6.002  1.00  0.00     0.036 A 
HETATM   21  C   UNL     1      41.611 -10.247   6.794  1.00  0.00     0.030 A 
HETATM   22  C   UNL     1      42.411  -9.519   7.680  1.00  0.00     0.018 A 
HETATM   23  C   UNL     1      43.782  -9.790   7.801  1.00  0.00     0.015 A 
HETATM   24  C   UNL     1      44.358 -10.807   7.016  1.00  0.00    -0.046 A 
HETATM   25  C   UNL     1      45.818 -11.164   7.095  1.00  0.00     0.049 C 
HETATM   26  C   UNL     1      43.540 -11.512   6.112  1.00  0.00     0.037 A 
BRANCH  23  27
HETATM   27  C   UNL     1      44.601  -8.971   8.744  1.00  0.00     0.156 C 
HETATM   28  C   UNL     1      44.749  -9.449  10.165  1.00  0.00     0.097 C 
HETATM   29  O   UNL     1      45.118  -7.920   8.373  1.00  0.00    -0.293 OA
ENDBRANCH  23  27
ENDBRANCH   1  20
TORSDOF 6
ENDMDL
MODEL 5
REMARK VINA RESULT:      -8.3      5.166      8.720
REMARK  6 active torsions:
REMARK  status: ('A' for Active; 'I' for Inactive)
REMARK    1  A    between atoms: C_3  and  C_4 
REMARK    2  A    between atoms: C_9  and  N_10 
REMARK       I    between atoms: N_10  and  C_11 
REMARK       I    between atoms: C_11  and  N_12 
REMARK    3  A    between atoms: N_12  and  C_13 
REMARK    4  A    between atoms: C_13  and  C_14 
REMARK    5  A    between atoms: C_14  and  C_15 
REMARK    6  A    between atoms: C_18  and  N_19 
ROOT
HETATM    1  N   UNL     1      41.379 -13.209   3.328  1.00  0.00    -0.309 N 
HETATM    2  C   UNL     1      40.614 -12.869   4.409  1.00  0.00     0.320 C 
HETATM    3  N   UNL     1      41.280 -12.747   5.592  1.00  0.00    -0.343 N 
HETATM    4  O   UNL     1      39.407 -12.646   4.408  1.00  0.00    -0.247 OA
HETATM    5  H   UNL     1      42.371 -13.265   3.485  1.00  0.00     0.170 HD
HETATM    6  H   UNL     1      40.671 -12.441   6.342  1.00  0.00     0.164 HD
ENDROOT
BRANCH   3   7
HETATM    7  C   UNL     1      42.693 -12.902   5.903  1.00  0.00     0.129 C 
BRANCH   7   8
HETATM    8  C   UNL     1      43.002 -14.135   6.760  1.00  0.00     0.058 C 
BRANCH   8   9
HETATM    9  C   UNL     1      43.186 -15.398   5.955  1.00  0.00    -0.057 A 
HETATM   10  C   UNL     1      43.202 -16.646   6.588  1.00  0.00     0.009 A 
HETATM   11  C   UNL     1      43.353 -17.818   5.842  1.00  0.00     0.032 A 
HETATM   12  C   UNL     1      43.498 -17.759   4.448  1.00  0.00     0.058 A 
HETATM   13  C   UNL     1      43.497 -16.512   3.812  1.00  0.00     0.032 A 
HETATM   14  C   UNL     1      43.339 -15.342   4.564  1.00  0.00     0.009 A 
BRANCH  12  15
HETATM   15  N   UNL     1      43.634 -18.967   3.708  1.00  0.00    -0.246 N 
HETATM   16  N   UNL     1      44.038 -20.117   4.314  1.00  0.00    -0.180 NA
HETATM   17  C   UNL     1      44.038 -21.032   3.344  1.00  0.00     0.140 A 
HETATM   18  C   UNL     1      43.650 -20.502   2.107  1.00  0.00     0.040 A 
HETATM   19  C   UNL     1      43.397 -19.176   2.364  1.00  0.00     0.120 A 
ENDBRANCH  12  15
ENDBRANCH   8   9
ENDBRANCH   7   8
ENDBRANCH   3   7
BRANCH   1  20
HETATM   20  C   UNL     1      40.959 -13.410   1.999  1.00  0.00     0.036 A 
HETATM   21  C   UNL     1      40.452 -14.613   1.515  1.00  0.00     0.030 A 
HETATM   22  C   UNL     1      40.068 -14.733   0.175  1.00  0.00     0.018 A 
HETATM   23  C   UNL     1      40.172 -13.644  -0.703  1.00  0.00     0.015 A 
HETATM   24  C   UNL     1      40.672 -12.417  -0.227  1.00  0.00    -0.046 A 
HETATM   25  C   UNL     1      40.805 -11.200  -1.103  1.00  0.00     0.049 C 
HETATM   26  C   UNL     1      41.075 -12.324   1.119  1.00  0.00     0.037 A 
BRANCH  23  27
HETATM   27  C   UNL     1      39.772 -13.824  -2.130  1.00  0.00     0.156 C 
HETATM   28  C   UNL     1      38.306 -13.776  -2.475  1.00  0.00     0.097 C 
HETATM   29  O   UNL     1      40.619 -14.033  -2.995  1.00  0.00    -0.293 OA
ENDBRANCH  23  27
ENDBRANCH   1  20
TORSDOF 6
ENDMDL
MODEL 6
REMARK VINA RESULT:      -8.0      3.171     11.422
REMARK  6 active torsions:
REMARK  status: ('A' for Active; 'I' for Inactive)
REMARK    1  A    between atoms: C_3  and  C_4 
REMARK    2  A    between atoms: C_9  and  N_10 
REMARK       I    between atoms: N_10  and  C_11 
REMARK       I    between atoms: C_11  and  N_12 
REMARK    3  A    between atoms: N_12  and  C_13 
REMARK    4  A    between atoms: C_13  and  C_14 
REMARK    5  A    between atoms: C_14  and  C_15 
REMARK    6  A    between atoms: C_18  and  N_19 
ROOT
HETATM    1  N   UNL     1      43.471 -11.958   7.404  1.00  0.00    -0.309 N 
HETATM    2  C   UNL     1      44.638 -11.280   7.621  1.00  0.00     0.320 C 
HETATM    3  N   UNL     1      44.635 -10.420   8.680  1.00  0.00    -0.343 N 
HETATM    4  O   UNL     1      45.677 -11.389   6.977  1.00  0.00    -0.247 OA
HETATM    5  H   UNL     1      42.742 -11.820   8.083  1.00  0.00     0.170 HD
HETATM    6  H   UNL     1      45.542  -9.990   8.823  1.00  0.00     0.164 HD
ENDROOT
BRANCH   3   7
HETATM    7  C   UNL     1      43.590 -10.108   9.643  1.00  0.00     0.129 C 
BRANCH   7   8
HETATM    8  C   UNL     1      43.989 -10.389  11.095  1.00  0.00     0.058 C 
BRANCH   8   9
HETATM    9  C   UNL     1      43.187  -9.602  12.104  1.00  0.00    -0.057 A 
HETATM   10  C   UNL     1      42.047 -10.160  12.693  1.00  0.00     0.009 A 
HETATM   11  C   UNL     1      41.314  -9.440  13.640  1.00  0.00     0.032 A 
HETATM   12  C   UNL     1      41.707  -8.145  14.008  1.00  0.00     0.058 A 
HETATM   13  C   UNL     1      42.839  -7.577  13.410  1.00  0.00     0.032 A 
HETATM   14  C   UNL     1      43.572  -8.305  12.466  1.00  0.00     0.009 A 
BRANCH  12  15
HETATM   15  N   UNL     1      40.954  -7.438  14.986  1.00  0.00    -0.246 N 
HETATM   16  N   UNL     1      40.063  -6.475  14.623  1.00  0.00    -0.180 NA
HETATM   17  C   UNL     1      39.538  -6.044  15.770  1.00  0.00     0.140 A 
HETATM   18  C   UNL     1      40.074  -6.701  16.885  1.00  0.00     0.040 A 
HETATM   19  C   UNL     1      40.981  -7.589  16.358  1.00  0.00     0.120 A 
ENDBRANCH  12  15
ENDBRANCH   8   9
ENDBRANCH   7   8
ENDBRANCH   3   7
BRANCH   1  20
HETATM   20  C   UNL     1      43.190 -12.893   6.388  1.00  0.00     0.036 A 
HETATM   21  C   UNL     1      42.473 -12.597   5.232  1.00  0.00     0.030 A 
HETATM   22  C   UNL     1      42.226 -13.589   4.278  1.00  0.00     0.018 A 
HETATM   23  C   UNL     1      42.706 -14.894   4.457  1.00  0.00     0.015 A 
HETATM   24  C   UNL     1      43.442 -15.208   5.615  1.00  0.00    -0.046 A 
HETATM   25  C   UNL     1      43.999 -16.583   5.875  1.00  0.00     0.049 C 
HETATM   26  C   UNL     1      43.659 -14.201   6.575  1.00  0.00     0.037 A 
BRANCH  23  27
HETATM   27  C   UNL     1      42.399 -15.927   3.422  1.00  0.00     0.156 C 
HETATM   28  C   UNL     1      43.306 -16.032   2.223  1.00  0.00     0.097 C 
HETATM   29  O   UNL     1      41.415 -16.652   3.536  1.00  0.00    -0.293 OA
ENDBRANCH  23  27
ENDBRANCH   1  20
TORSDOF 6
ENDMDL
MODEL 7
REMARK VINA RESULT:      -7.9      3.765      6.428
REMARK  6 active torsions:
REMARK  status: ('A' for Active; 'I' for Inactive)
REMARK    1  A    between atoms: C_3  and  C_4 
REMARK    2  A    between atoms: C_9  and  N_10 
REMARK       I    between atoms: N_10  and  C_11 
REMARK       I    between atoms: C_11  and  N_12 
REMARK    3  A    between atoms: N_12  and  C_13 
REMARK    4  A    between atoms: C_13  and  C_14 
REMARK    5  A    between atoms: C_14  and  C_15 
REMARK    6  A    between atoms: C_18  and  N_19 
ROOT
HETATM    1  N   UNL     1      43.291 -15.546   5.310  1.00  0.00    -0.309 N 
HETATM    2  C   UNL     1      42.980 -16.655   6.048  1.00  0.00     0.320 C 
HETATM    3  N   UNL     1      43.504 -17.831   5.598  1.00  0.00    -0.343 N 
HETATM    4  O   UNL     1      42.303 -16.686   7.070  1.00  0.00    -0.247 OA
HETATM    5  H   UNL     1      43.935 -15.683   4.550  1.00  0.00     0.170 HD
HETATM    6  H   UNL     1      43.285 -18.606   6.215  1.00  0.00     0.164 HD
ENDROOT
BRANCH   3   7
HETATM    7  C   UNL     1      44.366 -18.109   4.460  1.00  0.00     0.129 C 
BRANCH   7   8
HETATM    8  C   UNL     1      43.599 -18.432   3.173  1.00  0.00     0.058 C 
BRANCH   8   9
HETATM    9  C   UNL     1      42.914 -17.233   2.563  1.00  0.00    -0.057 A 
HETATM   10  C   UNL     1      41.518 -17.136   2.568  1.00  0.00     0.009 A 
HETATM   11  C   UNL     1      40.883 -16.018   2.021  1.00  0.00     0.032 A 
HETATM   12  C   UNL     1      41.636 -14.981   1.452  1.00  0.00     0.058 A 
HETATM   13  C   UNL     1      43.033 -15.080   1.432  1.00  0.00     0.032 A 
HETATM   14  C   UNL     1      43.664 -16.199   1.987  1.00  0.00     0.009 A 
BRANCH  12  15
HETATM   15  N   UNL     1      40.968 -13.845   0.915  1.00  0.00    -0.246 N 
HETATM   16  N   UNL     1      40.104 -13.969  -0.129  1.00  0.00    -0.180 NA
HETATM   17  C   UNL     1      39.660 -12.733  -0.355  1.00  0.00     0.140 A 
HETATM   18  C   UNL     1      40.222 -11.793   0.519  1.00  0.00     0.040 A 
HETATM   19  C   UNL     1      41.059 -12.529   1.323  1.00  0.00     0.120 A 
ENDBRANCH  12  15
ENDBRANCH   8   9
ENDBRANCH   7   8
ENDBRANCH   3   7
BRANCH   1  20
HETATM   20  C   UNL     1      42.883 -14.217   5.534  1.00  0.00     0.036 A 
HETATM   21  C   UNL     1      41.757 -13.637   4.954  1.00  0.00     0.030 A 
HETATM   22  C   UNL     1      41.430 -12.304   5.219  1.00  0.00     0.018 A 
HETATM   23  C   UNL     1      42.217 -11.528   6.083  1.00  0.00     0.015 A 
HETATM   24  C   UNL     1      43.352 -12.102   6.687  1.00  0.00    -0.046 A 
HETATM   25  C   UNL     1      44.241 -11.338   7.632  1.00  0.00     0.049 C 
HETATM   26  C   UNL     1      43.678 -13.439   6.387  1.00  0.00     0.037 A 
BRANCH  23  27
HETATM   27  C   UNL     1      41.842 -10.102   6.319  1.00  0.00     0.156 C 
HETATM   28  C   UNL     1      41.082  -9.759   7.575  1.00  0.00     0.097 C 
HETATM   29  O   UNL     1      42.124  -9.237   5.494  1.00  0.00    -0.293 OA
ENDBRANCH  23  27
ENDBRANCH   1  20
TORSDOF 6
ENDMDL
MODEL 8
REMARK VINA RESULT:      -7.9      3.172     11.287
REMARK  6 active torsions:
REMARK  status: ('A' for Active; 'I' for Inactive)
REMARK    1  A    between atoms: C_3  and  C_4 
REMARK    2  A    between atoms: C_9  and  N_10 
REMARK       I    between atoms: N_10  and  C_11 
REMARK       I    between atoms: C_11  and  N_12 
REMARK    3  A    between atoms: N_12  and  C_13 
REMARK    4  A    between atoms: C_13  and  C_14 
REMARK    5  A    between atoms: C_14  and  C_15 
REMARK    6  A    between atoms: C_18  and  N_19 
ROOT
HETATM    1  N   UNL     1      43.474 -12.265   7.495  1.00  0.00    -0.309 N 
HETATM    2  C   UNL     1      44.616 -11.516   7.541  1.00  0.00     0.320 C 
HETATM    3  N   UNL     1      44.652 -10.549   8.503  1.00  0.00    -0.343 N 
HETATM    4  O   UNL     1      45.604 -11.644   6.825  1.00  0.00    -0.247 OA
HETATM    5  H   UNL     1      42.795 -12.089   8.216  1.00  0.00     0.170 HD
HETATM    6  H   UNL     1      45.543 -10.066   8.524  1.00  0.00     0.164 HD
ENDROOT
BRANCH   3   7
HETATM    7  C   UNL     1      43.673 -10.185   9.515  1.00  0.00     0.129 C 
BRANCH   7   8
HETATM    8  C   UNL     1      44.188 -10.335  10.951  1.00  0.00     0.058 C 
BRANCH   8   9
HETATM    9  C   UNL     1      43.359  -9.590  11.969  1.00  0.00    -0.057 A 
HETATM   10  C   UNL     1      42.254 -10.204  12.570  1.00  0.00     0.009 A 
HETATM   11  C   UNL     1      41.497  -9.523  13.526  1.00  0.00     0.032 A 
HETATM   12  C   UNL     1      41.829  -8.210  13.892  1.00  0.00     0.058 A 
HETATM   13  C   UNL     1      42.925  -7.587  13.283  1.00  0.00     0.032 A 
HETATM   14  C   UNL     1      43.684  -8.276  12.330  1.00  0.00     0.009 A 
BRANCH  12  15
HETATM   15  N   UNL     1      41.053  -7.542  14.880  1.00  0.00    -0.246 N 
HETATM   16  N   UNL     1      41.207  -7.827  16.202  1.00  0.00    -0.180 NA
HETATM   17  C   UNL     1      40.350  -7.020  16.828  1.00  0.00     0.140 A 
HETATM   18  C   UNL     1      39.627  -6.214  15.940  1.00  0.00     0.040 A 
HETATM   19  C   UNL     1      40.093  -6.567  14.696  1.00  0.00     0.120 A 
ENDBRANCH  12  15
ENDBRANCH   8   9
ENDBRANCH   7   8
ENDBRANCH   3   7
BRANCH   1  20
HETATM   20  C   UNL     1      43.163 -13.313   6.607  1.00  0.00     0.036 A 
HETATM   21  C   UNL     1      42.927 -14.628   7.002  1.00  0.00     0.030 A 
HETATM   22  C   UNL     1      42.637 -15.613   6.052  1.00  0.00     0.018 A 
HETATM   23  C   UNL     1      42.563 -15.296   4.688  1.00  0.00     0.015 A 
HETATM   24  C   UNL     1      42.786 -13.970   4.272  1.00  0.00    -0.046 A 
HETATM   25  C   UNL     1      42.714 -13.550   2.828  1.00  0.00     0.049 C 
HETATM   26  C   UNL     1      43.101 -12.998   5.241  1.00  0.00     0.037 A 
BRANCH  23  27
HETATM   27  C   UNL     1      42.272 -16.385   3.708  1.00  0.00     0.156 C 
HETATM   28  C   UNL     1      43.426 -17.187   3.164  1.00  0.00     0.097 C 
HETATM   29  O   UNL     1      41.121 -16.600   3.336  1.00  0.00    -0.293 OA
ENDBRANCH  23  27
ENDBRANCH   1  20
TORSDOF 6
ENDMDL
MODEL 9
REMARK VINA RESULT:      -7.9      4.837      9.645
REMARK  6 active torsions:
REMARK  status: ('A' for Active; 'I' for Inactive)
REMARK    1  A    between atoms: C_3  and  C_4 
REMARK    2  A    between atoms: C_9  and  N_10 
REMARK       I    between atoms: N_10  and  C_11 
REMARK       I    between atoms: C_11  and  N_12 
REMARK    3  A    between atoms: N_12  and  C_13 
REMARK    4  A    between atoms: C_13  and  C_14 
REMARK    5  A    between atoms: C_14  and  C_15 
REMARK    6  A    between atoms: C_18  and  N_19 
ROOT
HETATM    1  N   UNL     1      41.089 -14.673   1.120  1.00  0.00    -0.309 N 
HETATM    2  C   UNL     1      39.979 -15.017   0.399  1.00  0.00     0.320 C 
HETATM    3  N   UNL     1      39.420 -14.017  -0.340  1.00  0.00    -0.343 N 
HETATM    4  O   UNL     1      39.462 -16.128   0.341  1.00  0.00    -0.247 OA
HETATM    5  H   UNL     1      41.437 -13.739   0.984  1.00  0.00     0.170 HD
HETATM    6  H   UNL     1      38.637 -14.346  -0.894  1.00  0.00     0.164 HD
ENDROOT
BRANCH   3   7
HETATM    7  C   UNL     1      39.819 -12.629  -0.510  1.00  0.00     0.129 C 
BRANCH   7   8
HETATM    8  C   UNL     1      39.338 -11.708   0.617  1.00  0.00     0.058 C 
BRANCH   8   9
HETATM    9  C   UNL     1      40.228 -11.733   1.837  1.00  0.00    -0.057 A 
HETATM   10  C   UNL     1      39.714 -12.112   3.082  1.00  0.00     0.009 A 
HETATM   11  C   UNL     1      40.541 -12.153   4.207  1.00  0.00     0.032 A 
HETATM   12  C   UNL     1      41.896 -11.808   4.106  1.00  0.00     0.058 A 
HETATM   13  C   UNL     1      42.412 -11.415   2.865  1.00  0.00     0.032 A 
HETATM   14  C   UNL     1      41.580 -11.381   1.740  1.00  0.00     0.009 A 
BRANCH  12  15
HETATM   15  N   UNL     1      42.722 -11.873   5.263  1.00  0.00    -0.246 N 
HETATM   16  N   UNL     1      43.106 -10.741   5.914  1.00  0.00    -0.180 NA
HETATM   17  C   UNL     1      43.843 -11.169   6.939  1.00  0.00     0.140 A 
HETATM   18  C   UNL     1      43.959 -12.565   6.970  1.00  0.00     0.040 A 
HETATM   19  C   UNL     1      43.233 -12.995   5.885  1.00  0.00     0.120 A 
ENDBRANCH  12  15
ENDBRANCH   8   9
ENDBRANCH   7   8
ENDBRANCH   3   7
BRANCH   1  20
HETATM   20  C   UNL     1      41.857 -15.492   1.971  1.00  0.00     0.036 A 
HETATM   21  C   UNL     1      42.997 -16.183   1.569  1.00  0.00     0.030 A 
HETATM   22  C   UNL     1      43.694 -16.988   2.476  1.00  0.00     0.018 A 
HETATM   23  C   UNL     1      43.271 -17.104   3.807  1.00  0.00     0.015 A 
HETATM   24  C   UNL     1      42.127 -16.404   4.233  1.00  0.00    -0.046 A 
HETATM   25  C   UNL     1      41.615 -16.469   5.648  1.00  0.00     0.049 C 
HETATM   26  C   UNL     1      41.424 -15.618   3.299  1.00  0.00     0.037 A 
BRANCH  23  27
HETATM   27  C   UNL     1      44.034 -17.993   4.735  1.00  0.00     0.156 C 
HETATM   28  C   UNL     1      44.020 -19.478   4.478  1.00  0.00     0.097 C 
HETATM   29  O   UNL     1      44.635 -17.522   5.697  1.00  0.00    -0.293 OA
ENDBRANCH  23  27
ENDBRANCH   1  20
TORSDOF 6
ENDMDL
MODEL 10
REMARK VINA RESULT:      -7.8      5.133      7.068
REMARK  6 active torsions:
REMARK  status: ('A' for Active; 'I' for Inactive)
REMARK    1  A    between atoms: C_3  and  C_4 
REMARK    2  A    between atoms: C_9  and  N_10 
REMARK       I    between atoms: N_10  and  C_11 
REMARK       I    between atoms: C_11  and  N_12 
REMARK    3  A    between atoms: N_12  and  C_13 
REMARK    4  A    between atoms: C_13  and  C_14 
REMARK    5  A    between atoms: C_14  and  C_15 
REMARK    6  A    between atoms: C_18  and  N_19 
ROOT
HETATM    1  N   UNL     1      41.990 -14.754   5.390  1.00  0.00    -0.309 N 
HETATM    2  C   UNL     1      41.734 -15.841   6.178  1.00  0.00     0.320 C 
HETATM    3  N   UNL     1      42.606 -16.882   6.052  1.00  0.00    -0.343 N 
HETATM    4  O   UNL     1      40.821 -15.956   6.990  1.00  0.00    -0.247 OA
HETATM    5  H   UNL     1      42.835 -14.787   4.845  1.00  0.00     0.170 HD
HETATM    6  H   UNL     1      42.398 -17.634   6.700  1.00  0.00     0.164 HD
ENDROOT
BRANCH   3   7
HETATM    7  C   UNL     1      43.791 -17.028   5.221  1.00  0.00     0.129 C 
BRANCH   7   8
HETATM    8  C   UNL     1      43.508 -17.653   3.851  1.00  0.00     0.058 C 
BRANCH   8   9
HETATM    9  C   UNL     1      42.788 -16.725   2.903  1.00  0.00    -0.057 A 
HETATM   10  C   UNL     1      41.439 -16.935   2.593  1.00  0.00     0.009 A 
HETATM   11  C   UNL     1      40.767 -16.066   1.731  1.00  0.00     0.032 A 
HETATM   12  C   UNL     1      41.436 -14.975   1.157  1.00  0.00     0.058 A 
HETATM   13  C   UNL     1      42.789 -14.769   1.453  1.00  0.00     0.032 A 
HETATM   14  C   UNL     1      43.456 -15.639   2.322  1.00  0.00     0.009 A 
BRANCH  12  15
HETATM   15  N   UNL     1      40.725 -14.094   0.294  1.00  0.00    -0.246 N 
HETATM   16  N   UNL     1      39.685 -14.542  -0.461  1.00  0.00    -0.180 NA
HETATM   17  C   UNL     1      39.253 -13.467  -1.121  1.00  0.00     0.140 A 
HETATM   18  C   UNL     1      39.997 -12.319  -0.820  1.00  0.00     0.040 A 
HETATM   19  C   UNL     1      40.936 -12.745   0.089  1.00  0.00     0.120 A 
ENDBRANCH  12  15
ENDBRANCH   8   9
ENDBRANCH   7   8
ENDBRANCH   3   7
BRANCH   1  20
HETATM   20  C   UNL     1      41.256 -13.554   5.307  1.00  0.00     0.036 A 
HETATM   21  C   UNL     1      41.376 -12.502   6.211  1.00  0.00     0.030 A 
HETATM   22  C   UNL     1      40.599 -11.348   6.063  1.00  0.00     0.018 A 
HETATM   23  C   UNL     1      39.696 -11.221   4.998  1.00  0.00     0.015 A 
HETATM   24  C   UNL     1      39.571 -12.270   4.068  1.00  0.00    -0.046 A 
HETATM   25  C   UNL     1      38.632 -12.206   2.893  1.00  0.00     0.049 C 
HETATM   26  C   UNL     1      40.344 -13.433   4.248  1.00  0.00     0.037 A 
BRANCH  23  27
HETATM   27  C   UNL     1      38.871  -9.980   4.892  1.00  0.00     0.156 C 
HETATM   28  C   UNL     1      39.341  -8.883   3.973  1.00  0.00     0.097 C 
HETATM   29  O   UNL     1      37.849  -9.851   5.562  1.00  0.00    -0.293 OA
ENDBRANCH  23  27
ENDBRANCH   1  20
TORSDOF 6
ENDMDL
