MODEL 1
REMARK VINA RESULT:      -7.7      0.000      0.000
REMARK  3 active torsions:
REMARK  status: ('A' for Active; 'I' for Inactive)
REMARK    1  A    between atoms: C_3  and  N_4 
REMARK       I    between atoms: N_4  and  C_5 
REMARK    2  A    between atoms: C_5  and  C_6 
REMARK    3  A    between atoms: C_9  and  N_10 
REMARK       I    between atoms: N_10  and  C_11 
ROOT
HETATM    1  N   UNL     1      43.403 -15.555   4.561  1.00  0.00    -0.321 N 
HETATM    2  C   UNL     1      42.331 -14.911   5.153  1.00  0.00     0.256 C 
HETATM    3  O   UNL     1      41.197 -15.360   5.274  1.00  0.00    -0.267 OA
HETATM    4  H   UNL     1      44.306 -15.190   4.817  1.00  0.00     0.169 HD
ENDROOT
BRANCH   2   5
HETATM    5  C   UNL     1      42.627 -13.593   5.806  1.00  0.00     0.032 A 
HETATM    6  C   UNL     1      41.784 -12.478   5.735  1.00  0.00     0.019 A 
HETATM    7  C   UNL     1      42.179 -11.250   6.289  1.00  0.00     0.030 A 
HETATM    8  C   UNL     1      43.406 -11.121   6.941  1.00  0.00     0.034 A 
HETATM    9  C   UNL     1      44.221 -12.250   7.068  1.00  0.00     0.030 A 
HETATM   10  C   UNL     1      43.838 -13.471   6.503  1.00  0.00     0.019 A 
BRANCH   8  11
HETATM   11  N   UNL     1      43.897  -9.914   7.477  1.00  0.00    -0.328 N 
HETATM   12  C   UNL     1      43.860  -9.503   8.798  1.00  0.00     0.218 C 
HETATM   13  C   UNL     1      44.433  -8.118   8.971  1.00  0.00     0.117 C 
HETATM   14  O   UNL     1      43.431 -10.135   9.756  1.00  0.00    -0.274 OA
HETATM   15  H   UNL     1      44.275  -9.253   6.810  1.00  0.00     0.169 HD
ENDBRANCH   8  11
ENDBRANCH   2   5
BRANCH   1  16
HETATM   16  C   UNL     1      43.429 -16.876   4.023  1.00  0.00     0.065 C 
HETATM   17  C   UNL     1      43.623 -18.055   4.762  1.00  0.00    -0.031 C 
HETATM   18  C   UNL     1      43.630 -18.152   6.262  1.00  0.00     0.050 C 
HETATM   19  C   UNL     1      43.782 -19.269   4.065  1.00  0.00     0.035 C 
HETATM   20  C   UNL     1      43.657 -19.303   2.686  1.00  0.00     0.031 C 
HETATM   21  N   UNL     1      43.355 -18.205   1.968  1.00  0.00    -0.256 NA
HETATM   22  C   UNL     1      43.861 -20.584   1.935  1.00  0.00     0.070 C 
HETATM   23  C   UNL     1      43.235 -17.023   2.629  1.00  0.00     0.058 C 
HETATM   24  C   UNL     1      42.902 -15.858   1.738  1.00  0.00     0.073 C 
ENDBRANCH   1  16
TORSDOF 3
ENDMDL
MODEL 2
REMARK VINA RESULT:      -7.7      0.828      1.933
REMARK  3 active torsions:
REMARK  status: ('A' for Active; 'I' for Inactive)
REMARK    1  A    between atoms: C_3  and  N_4 
REMARK       I    between atoms: N_4  and  C_5 
REMARK    2  A    between atoms: C_5  and  C_6 
REMARK    3  A    between atoms: C_9  and  N_10 
REMARK       I    between atoms: N_10  and  C_11 
ROOT
HETATM    1  N   UNL     1      43.340 -15.039   4.488  1.00  0.00    -0.321 N 
HETATM    2  C   UNL     1      42.237 -14.526   5.147  1.00  0.00     0.256 C 
HETATM    3  O   UNL     1      41.157 -15.087   5.293  1.00  0.00    -0.267 OA
HETATM    4  H   UNL     1      44.214 -14.598   4.725  1.00  0.00     0.169 HD
ENDROOT
BRANCH   2   5
HETATM    5  C   UNL     1      42.434 -13.210   5.845  1.00  0.00     0.032 A 
HETATM    6  C   UNL     1      41.526 -12.147   5.776  1.00  0.00     0.019 A 
HETATM    7  C   UNL     1      41.830 -10.913   6.374  1.00  0.00     0.030 A 
HETATM    8  C   UNL     1      43.027 -10.730   7.068  1.00  0.00     0.034 A 
HETATM    9  C   UNL     1      43.905 -11.811   7.190  1.00  0.00     0.030 A 
HETATM   10  C   UNL     1      43.613 -13.036   6.582  1.00  0.00     0.019 A 
BRANCH   8  11
HETATM   11  N   UNL     1      43.427  -9.511   7.651  1.00  0.00    -0.328 N 
HETATM   12  C   UNL     1      43.244  -9.104   8.961  1.00  0.00     0.218 C 
HETATM   13  C   UNL     1      43.758  -7.705   9.190  1.00  0.00     0.117 C 
HETATM   14  O   UNL     1      42.735  -9.749   9.870  1.00  0.00    -0.274 OA
HETATM   15  H   UNL     1      43.854  -8.838   7.025  1.00  0.00     0.169 HD
ENDBRANCH   8  11
ENDBRANCH   2   5
BRANCH   1  16
HETATM   16  C   UNL     1      43.469 -16.329   3.894  1.00  0.00     0.065 C 
HETATM   17  C   UNL     1      43.193 -16.643   2.553  1.00  0.00    -0.031 C 
HETATM   18  C   UNL     1      42.916 -15.643   1.464  1.00  0.00     0.050 C 
HETATM   19  C   UNL     1      43.216 -17.993   2.157  1.00  0.00     0.035 C 
HETATM   20  C   UNL     1      43.593 -18.977   3.058  1.00  0.00     0.031 C 
HETATM   21  N   UNL     1      43.974 -18.687   4.315  1.00  0.00    -0.256 NA
HETATM   22  C   UNL     1      43.584 -20.421   2.654  1.00  0.00     0.070 C 
HETATM   23  C   UNL     1      43.921 -17.389   4.715  1.00  0.00     0.058 C 
HETATM   24  C   UNL     1      44.362 -17.172   6.136  1.00  0.00     0.073 C 
ENDBRANCH   1  16
TORSDOF 3
ENDMDL
MODEL 3
REMARK VINA RESULT:      -7.4      2.293      8.369
REMARK  3 active torsions:
REMARK  status: ('A' for Active; 'I' for Inactive)
REMARK    1  A    between atoms: C_3  and  N_4 
REMARK       I    between atoms: N_4  and  C_5 
REMARK    2  A    between atoms: C_5  and  C_6 
REMARK    3  A    between atoms: C_9  and  N_10 
REMARK       I    between atoms: N_10  and  C_11 
ROOT
HETATM    1  N   UNL     1      42.674 -12.584   5.486  1.00  0.00    -0.321 N 
HETATM    2  C   UNL     1      42.998 -12.824   4.162  1.00  0.00     0.256 C 
HETATM    3  O   UNL     1      43.477 -12.014   3.378  1.00  0.00    -0.267 OA
HETATM    4  H   UNL     1      42.590 -13.411   6.054  1.00  0.00     0.169 HD
ENDROOT
BRANCH   2   5
HETATM    5  C   UNL     1      42.855 -14.243   3.691  1.00  0.00     0.032 A 
HETATM    6  C   UNL     1      42.330 -15.277   4.475  1.00  0.00     0.019 A 
HETATM    7  C   UNL     1      42.322 -16.597   3.998  1.00  0.00     0.030 A 
HETATM    8  C   UNL     1      42.815 -16.903   2.728  1.00  0.00     0.034 A 
HETATM    9  C   UNL     1      43.282 -15.861   1.921  1.00  0.00     0.030 A 
HETATM   10  C   UNL     1      43.305 -14.547   2.398  1.00  0.00     0.019 A 
BRANCH   8  11
HETATM   11  N   UNL     1      42.889 -18.206   2.198  1.00  0.00    -0.328 N 
HETATM   12  C   UNL     1      43.674 -19.253   2.648  1.00  0.00     0.218 C 
HETATM   13  C   UNL     1      43.524 -20.479   1.782  1.00  0.00     0.117 C 
HETATM   14  O   UNL     1      44.420 -19.253   3.620  1.00  0.00    -0.274 OA
HETATM   15  H   UNL     1      42.342 -18.379   1.364  1.00  0.00     0.169 HD
ENDBRANCH   8  11
ENDBRANCH   2   5
BRANCH   1  16
HETATM   16  C   UNL     1      42.874 -11.378   6.220  1.00  0.00     0.065 C 
HETATM   17  C   UNL     1      44.071 -10.991   6.846  1.00  0.00    -0.031 C 
HETATM   18  C   UNL     1      45.401 -11.674   6.679  1.00  0.00     0.050 C 
HETATM   19  C   UNL     1      44.064  -9.848   7.667  1.00  0.00     0.035 C 
HETATM   20  C   UNL     1      42.919  -9.075   7.776  1.00  0.00     0.031 C 
HETATM   21  N   UNL     1      41.796  -9.361   7.093  1.00  0.00    -0.256 NA
HETATM   22  C   UNL     1      42.894  -7.877   8.677  1.00  0.00     0.070 C 
HETATM   23  C   UNL     1      41.783 -10.484   6.327  1.00  0.00     0.058 C 
HETATM   24  C   UNL     1      40.482 -10.716   5.610  1.00  0.00     0.073 C 
ENDBRANCH   1  16
TORSDOF 3
ENDMDL
MODEL 4
REMARK VINA RESULT:      -7.1      2.744      4.781
REMARK  3 active torsions:
REMARK  status: ('A' for Active; 'I' for Inactive)
REMARK    1  A    between atoms: C_3  and  N_4 
REMARK       I    between atoms: N_4  and  C_5 
REMARK    2  A    between atoms: C_5  and  C_6 
REMARK    3  A    between atoms: C_9  and  N_10 
REMARK       I    between atoms: N_10  and  C_11 
ROOT
HETATM    1  N   UNL     1      43.322 -12.417   6.849  1.00  0.00    -0.321 N 
HETATM    2  C   UNL     1      44.481 -11.753   7.212  1.00  0.00     0.256 C 
HETATM    3  O   UNL     1      45.560 -11.819   6.636  1.00  0.00    -0.267 OA
HETATM    4  H   UNL     1      42.476 -12.021   7.225  1.00  0.00     0.169 HD
ENDROOT
BRANCH   2   5
HETATM    5  C   UNL     1      44.358 -10.775   8.344  1.00  0.00     0.032 A 
HETATM    6  C   UNL     1      45.391 -10.488   9.244  1.00  0.00     0.019 A 
HETATM    7  C   UNL     1      45.167  -9.636  10.337  1.00  0.00     0.030 A 
HETATM    8  C   UNL     1      43.920  -9.040  10.535  1.00  0.00     0.034 A 
HETATM    9  C   UNL     1      42.907  -9.276   9.602  1.00  0.00     0.030 A 
HETATM   10  C   UNL     1      43.122 -10.137   8.520  1.00  0.00     0.019 A 
BRANCH   8  11
HETATM   11  N   UNL     1      43.601  -8.216  11.633  1.00  0.00    -0.328 N 
HETATM   12  C   UNL     1      42.961  -8.585  12.804  1.00  0.00     0.218 C 
HETATM   13  C   UNL     1      42.742  -7.405  13.718  1.00  0.00     0.117 C 
HETATM   14  O   UNL     1      42.592  -9.709  13.121  1.00  0.00    -0.274 OA
HETATM   15  H   UNL     1      43.821  -7.233  11.530  1.00  0.00     0.169 HD
ENDBRANCH   8  11
ENDBRANCH   2   5
BRANCH   1  16
HETATM   16  C   UNL     1      43.128 -13.263   5.717  1.00  0.00     0.065 C 
HETATM   17  C   UNL     1      43.052 -12.835   4.381  1.00  0.00    -0.031 C 
HETATM   18  C   UNL     1      43.366 -11.448   3.891  1.00  0.00     0.050 C 
HETATM   19  C   UNL     1      42.698 -13.773   3.392  1.00  0.00     0.035 C 
HETATM   20  C   UNL     1      42.520 -15.106   3.727  1.00  0.00     0.031 C 
HETATM   21  N   UNL     1      42.703 -15.558   4.981  1.00  0.00    -0.256 NA
HETATM   22  C   UNL     1      42.108 -16.103   2.686  1.00  0.00     0.070 C 
HETATM   23  C   UNL     1      43.009 -14.653   5.948  1.00  0.00     0.058 C 
HETATM   24  C   UNL     1      43.188 -15.259   7.313  1.00  0.00     0.073 C 
ENDBRANCH   1  16
TORSDOF 3
ENDMDL
MODEL 5
REMARK VINA RESULT:      -6.9      2.196      3.034
REMARK  3 active torsions:
REMARK  status: ('A' for Active; 'I' for Inactive)
REMARK    1  A    between atoms: C_3  and  N_4 
REMARK       I    between atoms: N_4  and  C_5 
REMARK    2  A    between atoms: C_5  and  C_6 
REMARK    3  A    between atoms: C_9  and  N_10 
REMARK       I    between atoms: N_10  and  C_11 
ROOT
HETATM    1  N   UNL     1      42.901 -15.408   4.497  1.00  0.00    -0.321 N 
HETATM    2  C   UNL     1      41.623 -14.881   4.552  1.00  0.00     0.256 C 
HETATM    3  O   UNL     1      40.587 -15.469   4.265  1.00  0.00    -0.267 OA
HETATM    4  H   UNL     1      43.583 -14.914   5.048  1.00  0.00     0.169 HD
ENDROOT
BRANCH   2   5
HETATM    5  C   UNL     1      41.498 -13.502   5.133  1.00  0.00     0.032 A 
HETATM    6  C   UNL     1      42.587 -12.655   5.373  1.00  0.00     0.019 A 
HETATM    7  C   UNL     1      42.398 -11.419   6.011  1.00  0.00     0.030 A 
HETATM    8  C   UNL     1      41.124 -10.999   6.396  1.00  0.00     0.034 A 
HETATM    9  C   UNL     1      40.030 -11.816   6.099  1.00  0.00     0.030 A 
HETATM   10  C   UNL     1      40.215 -13.056   5.478  1.00  0.00     0.019 A 
BRANCH   8  11
HETATM   11  N   UNL     1      40.859  -9.799   7.085  1.00  0.00    -0.328 N 
HETATM   12  C   UNL     1      40.439  -8.595   6.547  1.00  0.00     0.218 C 
HETATM   13  C   UNL     1      40.321  -7.521   7.600  1.00  0.00     0.117 C 
HETATM   14  O   UNL     1      40.180  -8.361   5.373  1.00  0.00    -0.274 OA
HETATM   15  H   UNL     1      41.043  -9.808   8.081  1.00  0.00     0.169 HD
ENDBRANCH   8  11
ENDBRANCH   2   5
BRANCH   1  16
HETATM   16  C   UNL     1      43.272 -16.741   4.150  1.00  0.00     0.065 C 
HETATM   17  C   UNL     1      43.306 -17.266   2.847  1.00  0.00    -0.031 C 
HETATM   18  C   UNL     1      43.160 -16.467   1.581  1.00  0.00     0.050 C 
HETATM   19  C   UNL     1      43.539 -18.645   2.682  1.00  0.00     0.035 C 
HETATM   20  C   UNL     1      43.819 -19.442   3.781  1.00  0.00     0.031 C 
HETATM   21  N   UNL     1      43.907 -18.937   5.025  1.00  0.00    -0.256 NA
HETATM   22  C   UNL     1      44.033 -20.916   3.617  1.00  0.00     0.070 C 
HETATM   23  C   UNL     1      43.648 -17.613   5.197  1.00  0.00     0.058 C 
HETATM   24  C   UNL     1      43.769 -17.150   6.623  1.00  0.00     0.073 C 
ENDBRANCH   1  16
TORSDOF 3
ENDMDL
MODEL 6
REMARK VINA RESULT:      -6.8      5.574      9.545
REMARK  3 active torsions:
REMARK  status: ('A' for Active; 'I' for Inactive)
REMARK    1  A    between atoms: C_3  and  N_4 
REMARK       I    between atoms: N_4  and  C_5 
REMARK    2  A    between atoms: C_5  and  C_6 
REMARK    3  A    between atoms: C_9  and  N_10 
REMARK       I    between atoms: N_10  and  C_11 
ROOT
HETATM    1  N   UNL     1      42.883  -8.789  10.818  1.00  0.00    -0.321 N 
HETATM    2  C   UNL     1      42.005  -9.242  11.787  1.00  0.00     0.256 C 
HETATM    3  O   UNL     1      41.232 -10.187  11.676  1.00  0.00    -0.267 OA
HETATM    4  H   UNL     1      43.641  -8.226  11.168  1.00  0.00     0.169 HD
ENDROOT
BRANCH   2   5
HETATM    5  C   UNL     1      42.103  -8.581  13.132  1.00  0.00     0.032 A 
HETATM    6  C   UNL     1      41.289  -8.907  14.223  1.00  0.00     0.019 A 
HETATM    7  C   UNL     1      41.374  -8.174  15.418  1.00  0.00     0.030 A 
HETATM    8  C   UNL     1      42.285  -7.125  15.550  1.00  0.00     0.034 A 
HETATM    9  C   UNL     1      43.141  -6.840  14.482  1.00  0.00     0.030 A 
HETATM   10  C   UNL     1      43.049  -7.557  13.285  1.00  0.00     0.019 A 
BRANCH   8  11
HETATM   11  N   UNL     1      42.397  -6.310  16.694  1.00  0.00    -0.328 N 
HETATM   12  C   UNL     1      41.533  -5.307  17.100  1.00  0.00     0.218 C 
HETATM   13  C   UNL     1      42.023  -4.617  18.349  1.00  0.00     0.117 C 
HETATM   14  O   UNL     1      40.486  -4.970  16.560  1.00  0.00    -0.274 OA
HETATM   15  H   UNL     1      43.229  -6.442  17.255  1.00  0.00     0.169 HD
ENDBRANCH   8  11
ENDBRANCH   2   5
BRANCH   1  16
HETATM   16  C   UNL     1      43.108  -9.350   9.526  1.00  0.00     0.065 C 
HETATM   17  C   UNL     1      42.225  -9.272   8.436  1.00  0.00    -0.031 C 
HETATM   18  C   UNL     1      40.992  -8.414   8.374  1.00  0.00     0.050 C 
HETATM   19  C   UNL     1      42.519 -10.012   7.275  1.00  0.00     0.035 C 
HETATM   20  C   UNL     1      43.703 -10.728   7.186  1.00  0.00     0.031 C 
HETATM   21  N   UNL     1      44.617 -10.723   8.173  1.00  0.00    -0.256 NA
HETATM   22  C   UNL     1      44.005 -11.548   5.968  1.00  0.00     0.070 C 
HETATM   23  C   UNL     1      44.325 -10.039   9.311  1.00  0.00     0.058 C 
HETATM   24  C   UNL     1      45.408 -10.099  10.352  1.00  0.00     0.073 C 
ENDBRANCH   1  16
TORSDOF 3
ENDMDL
MODEL 7
REMARK VINA RESULT:      -6.7      2.936      3.191
REMARK  3 active torsions:
REMARK  status: ('A' for Active; 'I' for Inactive)
REMARK    1  A    between atoms: C_3  and  N_4 
REMARK       I    between atoms: N_4  and  C_5 
REMARK    2  A    between atoms: C_5  and  C_6 
REMARK    3  A    between atoms: C_9  and  N_10 
REMARK       I    between atoms: N_10  and  C_11 
ROOT
HETATM    1  N   UNL     1      42.498 -15.049   4.252  1.00  0.00    -0.321 N 
HETATM    2  C   UNL     1      42.854 -13.876   3.610  1.00  0.00     0.256 C 
HETATM    3  O   UNL     1      43.566 -13.784   2.617  1.00  0.00    -0.267 OA
HETATM    4  H   UNL     1      41.682 -14.977   4.838  1.00  0.00     0.169 HD
ENDROOT
BRANCH   2   5
HETATM    5  C   UNL     1      42.204 -12.620   4.115  1.00  0.00     0.032 A 
HETATM    6  C   UNL     1      42.729 -11.337   3.922  1.00  0.00     0.019 A 
HETATM    7  C   UNL     1      42.114 -10.221   4.511  1.00  0.00     0.030 A 
HETATM    8  C   UNL     1      40.958 -10.363   5.280  1.00  0.00     0.034 A 
HETATM    9  C   UNL     1      40.398 -11.637   5.421  1.00  0.00     0.030 A 
HETATM   10  C   UNL     1      41.016 -12.753   4.849  1.00  0.00     0.019 A 
BRANCH   8  11
HETATM   11  N   UNL     1      40.312  -9.303   5.946  1.00  0.00    -0.328 N 
HETATM   12  C   UNL     1      39.144  -8.661   5.572  1.00  0.00     0.218 C 
HETATM   13  C   UNL     1      38.801  -7.531   6.510  1.00  0.00     0.117 C 
HETATM   14  O   UNL     1      38.431  -8.926   4.611  1.00  0.00    -0.274 OA
HETATM   15  H   UNL     1      40.784  -8.939   6.765  1.00  0.00     0.169 HD
ENDBRANCH   8  11
ENDBRANCH   2   5
BRANCH   1  16
HETATM   16  C   UNL     1      42.837 -16.381   3.869  1.00  0.00     0.065 C 
HETATM   17  C   UNL     1      43.823 -17.178   4.474  1.00  0.00    -0.031 C 
HETATM   18  C   UNL     1      44.546 -16.851   5.751  1.00  0.00     0.050 C 
HETATM   19  C   UNL     1      44.149 -18.412   3.880  1.00  0.00     0.035 C 
HETATM   20  C   UNL     1      43.444 -18.863   2.775  1.00  0.00     0.031 C 
HETATM   21  N   UNL     1      42.417 -18.169   2.251  1.00  0.00    -0.256 NA
HETATM   22  C   UNL     1      43.810 -20.159   2.116  1.00  0.00     0.070 C 
HETATM   23  C   UNL     1      42.119 -16.960   2.797  1.00  0.00     0.058 C 
HETATM   24  C   UNL     1      40.961 -16.264   2.137  1.00  0.00     0.073 C 
ENDBRANCH   1  16
TORSDOF 3
ENDMDL
MODEL 8
REMARK VINA RESULT:      -6.7      3.352      4.319
REMARK  3 active torsions:
REMARK  status: ('A' for Active; 'I' for Inactive)
REMARK    1  A    between atoms: C_3  and  N_4 
REMARK       I    between atoms: N_4  and  C_5 
REMARK    2  A    between atoms: C_5  and  C_6 
REMARK    3  A    between atoms: C_9  and  N_10 
REMARK       I    between atoms: N_10  and  C_11 
ROOT
HETATM    1  N   UNL     1      41.629 -15.202   4.579  1.00  0.00    -0.321 N 
HETATM    2  C   UNL     1      42.041 -13.882   4.622  1.00  0.00     0.256 C 
HETATM    3  O   UNL     1      43.201 -13.488   4.666  1.00  0.00    -0.267 OA
HETATM    4  H   UNL     1      40.691 -15.339   4.239  1.00  0.00     0.169 HD
ENDROOT
BRANCH   2   5
HETATM    5  C   UNL     1      40.963 -12.846   4.482  1.00  0.00     0.032 A 
HETATM    6  C   UNL     1      40.695 -12.154   3.295  1.00  0.00     0.019 A 
HETATM    7  C   UNL     1      39.736 -11.128   3.270  1.00  0.00     0.030 A 
HETATM    8  C   UNL     1      39.016 -10.794   4.419  1.00  0.00     0.034 A 
HETATM    9  C   UNL     1      39.239 -11.527   5.588  1.00  0.00     0.030 A 
HETATM   10  C   UNL     1      40.204 -12.539   5.621  1.00  0.00     0.019 A 
BRANCH   8  11
HETATM   11  N   UNL     1      38.077  -9.746   4.489  1.00  0.00    -0.328 N 
HETATM   12  C   UNL     1      38.320  -8.418   4.792  1.00  0.00     0.218 C 
HETATM   13  C   UNL     1      37.047  -7.609   4.829  1.00  0.00     0.117 C 
HETATM   14  O   UNL     1      39.407  -7.897   5.014  1.00  0.00    -0.274 OA
HETATM   15  H   UNL     1      37.109 -10.007   4.350  1.00  0.00     0.169 HD
ENDBRANCH   8  11
ENDBRANCH   2   5
BRANCH   1  16
HETATM   16  C   UNL     1      42.454 -16.364   4.524  1.00  0.00     0.065 C 
HETATM   17  C   UNL     1      43.001 -16.924   3.357  1.00  0.00    -0.031 C 
HETATM   18  C   UNL     1      42.984 -16.287   1.995  1.00  0.00     0.050 C 
HETATM   19  C   UNL     1      43.663 -18.163   3.450  1.00  0.00     0.035 C 
HETATM   20  C   UNL     1      43.846 -18.765   4.684  1.00  0.00     0.031 C 
HETATM   21  N   UNL     1      43.434 -18.189   5.829  1.00  0.00    -0.256 NA
HETATM   22  C   UNL     1      44.518 -20.101   4.787  1.00  0.00     0.070 C 
HETATM   23  C   UNL     1      42.762 -17.010   5.744  1.00  0.00     0.058 C 
HETATM   24  C   UNL     1      42.342 -16.453   7.076  1.00  0.00     0.073 C 
ENDBRANCH   1  16
TORSDOF 3
ENDMDL
MODEL 9
REMARK VINA RESULT:      -6.6      2.472      9.318
REMARK  3 active torsions:
REMARK  status: ('A' for Active; 'I' for Inactive)
REMARK    1  A    between atoms: C_3  and  N_4 
REMARK       I    between atoms: N_4  and  C_5 
REMARK    2  A    between atoms: C_5  and  C_6 
REMARK    3  A    between atoms: C_9  and  N_10 
REMARK       I    between atoms: N_10  and  C_11 
ROOT
HETATM    1  N   UNL     1      42.894  -9.998   8.840  1.00  0.00    -0.321 N 
HETATM    2  C   UNL     1      43.938 -10.294   7.981  1.00  0.00     0.256 C 
HETATM    3  O   UNL     1      45.087  -9.879   8.073  1.00  0.00    -0.267 OA
HETATM    4  H   UNL     1      42.125 -10.647   8.805  1.00  0.00     0.169 HD
ENDROOT
BRANCH   2   5
HETATM    5  C   UNL     1      43.651 -11.309   6.912  1.00  0.00     0.032 A 
HETATM    6  C   UNL     1      43.093 -10.996   5.667  1.00  0.00     0.019 A 
HETATM    7  C   UNL     1      42.761 -12.014   4.760  1.00  0.00     0.030 A 
HETATM    8  C   UNL     1      43.002 -13.354   5.069  1.00  0.00     0.034 A 
HETATM    9  C   UNL     1      43.616 -13.663   6.286  1.00  0.00     0.030 A 
HETATM   10  C   UNL     1      43.934 -12.652   7.199  1.00  0.00     0.019 A 
BRANCH   8  11
HETATM   11  N   UNL     1      42.652 -14.436   4.236  1.00  0.00    -0.328 N 
HETATM   12  C   UNL     1      41.523 -15.232   4.321  1.00  0.00     0.218 C 
HETATM   13  C   UNL     1      41.532 -16.329   3.286  1.00  0.00     0.117 C 
HETATM   14  O   UNL     1      40.595 -15.116   5.113  1.00  0.00    -0.274 OA
HETATM   15  H   UNL     1      43.329 -14.688   3.527  1.00  0.00     0.169 HD
ENDBRANCH   8  11
ENDBRANCH   2   5
BRANCH   1  16
HETATM   16  C   UNL     1      42.947  -9.205  10.024  1.00  0.00     0.065 C 
HETATM   17  C   UNL     1      43.272  -9.674  11.308  1.00  0.00    -0.031 C 
HETATM   18  C   UNL     1      43.819 -11.039  11.624  1.00  0.00     0.050 C 
HETATM   19  C   UNL     1      43.125  -8.801  12.402  1.00  0.00     0.035 C 
HETATM   20  C   UNL     1      42.754  -7.481  12.196  1.00  0.00     0.031 C 
HETATM   21  N   UNL     1      42.552  -6.980  10.964  1.00  0.00    -0.256 NA
HETATM   22  C   UNL     1      42.561  -6.555  13.359  1.00  0.00     0.070 C 
HETATM   23  C   UNL     1      42.657  -7.826   9.905  1.00  0.00     0.058 C 
HETATM   24  C   UNL     1      42.408  -7.169   8.575  1.00  0.00     0.073 C 
ENDBRANCH   1  16
TORSDOF 3
ENDMDL
MODEL 10
REMARK VINA RESULT:      -6.6     16.129     17.475
REMARK  3 active torsions:
REMARK  status: ('A' for Active; 'I' for Inactive)
REMARK    1  A    between atoms: C_3  and  N_4 
REMARK       I    between atoms: N_4  and  C_5 
REMARK    2  A    between atoms: C_5  and  C_6 
REMARK    3  A    between atoms: C_9  and  N_10 
REMARK       I    between atoms: N_10  and  C_11 
ROOT
HETATM    1  N   UNL     1      47.492 -29.938   0.764  1.00  0.00    -0.321 N 
HETATM    2  C   UNL     1      47.907 -29.154   1.826  1.00  0.00     0.256 C 
HETATM    3  O   UNL     1      47.532 -28.014   2.071  1.00  0.00    -0.267 OA
HETATM    4  H   UNL     1      47.650 -30.926   0.883  1.00  0.00     0.169 HD
ENDROOT
BRANCH   2   5
HETATM    5  C   UNL     1      48.808 -29.818   2.827  1.00  0.00     0.032 A 
HETATM    6  C   UNL     1      50.203 -29.852   2.720  1.00  0.00     0.019 A 
HETATM    7  C   UNL     1      50.970 -30.579   3.645  1.00  0.00     0.030 A 
HETATM    8  C   UNL     1      50.362 -31.260   4.700  1.00  0.00     0.034 A 
HETATM    9  C   UNL     1      48.974 -31.174   4.844  1.00  0.00     0.030 A 
HETATM   10  C   UNL     1      48.205 -30.464   3.916  1.00  0.00     0.019 A 
BRANCH   8  11
HETATM   11  N   UNL     1      51.054 -32.052   5.638  1.00  0.00    -0.328 N 
HETATM   12  C   UNL     1      52.137 -31.681   6.416  1.00  0.00     0.218 C 
HETATM   13  C   UNL     1      52.642 -32.827   7.256  1.00  0.00     0.117 C 
HETATM   14  O   UNL     1      52.669 -30.578   6.464  1.00  0.00    -0.274 OA
HETATM   15  H   UNL     1      50.754 -33.016   5.713  1.00  0.00     0.169 HD
ENDBRANCH   8  11
ENDBRANCH   2   5
BRANCH   1  16
HETATM   16  C   UNL     1      46.517 -29.610  -0.224  1.00  0.00     0.065 C 
HETATM   17  C   UNL     1      45.129 -29.546  -0.013  1.00  0.00    -0.031 C 
HETATM   18  C   UNL     1      44.448 -29.608   1.326  1.00  0.00     0.050 C 
HETATM   19  C   UNL     1      44.286 -29.364  -1.126  1.00  0.00     0.035 C 
HETATM   20  C   UNL     1      44.827 -29.162  -2.386  1.00  0.00     0.031 C 
HETATM   21  N   UNL     1      46.155 -29.103  -2.592  1.00  0.00    -0.256 NA
HETATM   22  C   UNL     1      43.935 -29.004  -3.580  1.00  0.00     0.070 C 
HETATM   23  C   UNL     1      46.976 -29.313  -1.529  1.00  0.00     0.058 C 
HETATM   24  C   UNL     1      48.440 -29.230  -1.865  1.00  0.00     0.073 C 
ENDBRANCH   1  16
TORSDOF 3
ENDMDL
