MODEL 1
REMARK VINA RESULT:      -8.9      0.000      0.000
REMARK  2 active torsions:
REMARK  status: ('A' for Active; 'I' for Inactive)
REMARK    1  A    between atoms: C_5  and  C_6 
REMARK    2  A    between atoms: C_9  and  C_10 
ROOT
HETATM    1  C   UNL     1      42.017 -15.497   4.231  1.00  0.00     0.220 C 
HETATM    2  N   UNL     1      42.912 -14.357   4.318  1.00  0.00    -0.126 NA
HETATM    3  N   UNL     1      42.410 -13.498   5.321  1.00  0.00    -0.126 NA
HETATM    4  C   UNL     1      42.687 -12.136   4.907  1.00  0.00     0.220 C 
HETATM    5  N   UNL     1      43.388 -12.278   3.657  1.00  0.00    -0.324 N 
HETATM    6  C   UNL     1      43.314 -13.599   3.231  1.00  0.00     0.315 C 
HETATM    7  O   UNL     1      43.487 -13.969   2.083  1.00  0.00    -0.252 OA
HETATM    8  C   UNL     1      41.164 -13.950   5.723  1.00  0.00     0.315 C 
HETATM    9  O   UNL     1      40.293 -13.328   6.304  1.00  0.00    -0.252 OA
HETATM   10  N   UNL     1      41.024 -15.248   5.243  1.00  0.00    -0.324 N 
HETATM   11  H   UNL     1      43.500 -11.536   2.984  1.00  0.00     0.165 HD
HETATM   12  H   UNL     1      40.126 -15.705   5.278  1.00  0.00     0.165 HD
ENDROOT
BRANCH   1  13
HETATM   13  C   UNL     1      42.724 -16.814   4.440  1.00  0.00    -0.020 A 
HETATM   14  C   UNL     1      43.216 -17.559   3.355  1.00  0.00     0.011 A 
HETATM   15  C   UNL     1      43.817 -18.803   3.554  1.00  0.00     0.007 A 
HETATM   16  C   UNL     1      43.945 -19.328   4.843  1.00  0.00    -0.062 A 
HETATM   17  C   UNL     1      44.581 -20.669   5.063  1.00  0.00     0.048 C 
HETATM   18  C   UNL     1      43.506 -18.567   5.932  1.00  0.00     0.007 A 
HETATM   19  C   UNL     1      42.900 -17.324   5.734  1.00  0.00     0.011 A 
ENDBRANCH   1  13
BRANCH   4  20
HETATM   20  C   UNL     1      43.493 -11.367   5.926  1.00  0.00    -0.020 A 
HETATM   21  C   UNL     1      44.875 -11.575   6.074  1.00  0.00     0.011 A 
HETATM   22  C   UNL     1      45.599 -10.902   7.059  1.00  0.00     0.007 A 
HETATM   23  C   UNL     1      44.959 -10.003   7.918  1.00  0.00    -0.062 A 
HETATM   24  C   UNL     1      45.735  -9.286   8.983  1.00  0.00     0.048 C 
HETATM   25  C   UNL     1      43.595  -9.749   7.741  1.00  0.00     0.007 A 
HETATM   26  C   UNL     1      42.868 -10.426   6.758  1.00  0.00     0.011 A 
ENDBRANCH   4  20
TORSDOF 2
ENDMDL
MODEL 2
REMARK VINA RESULT:      -8.9      0.137      7.075
REMARK  2 active torsions:
REMARK  status: ('A' for Active; 'I' for Inactive)
REMARK    1  A    between atoms: C_5  and  C_6 
REMARK    2  A    between atoms: C_9  and  C_10 
ROOT
HETATM    1  C   UNL     1      42.571 -12.159   5.028  1.00  0.00     0.220 C 
HETATM    2  N   UNL     1      42.322 -13.531   5.432  1.00  0.00    -0.126 NA
HETATM    3  N   UNL     1      42.824 -14.372   4.414  1.00  0.00    -0.126 NA
HETATM    4  C   UNL     1      41.948 -15.524   4.327  1.00  0.00     0.220 C 
HETATM    5  N   UNL     1      40.963 -15.302   5.355  1.00  0.00    -0.324 N 
HETATM    6  C   UNL     1      41.088 -14.007   5.845  1.00  0.00     0.315 C 
HETATM    7  O   UNL     1      40.215 -13.404   6.445  1.00  0.00    -0.252 OA
HETATM    8  C   UNL     1      43.200 -13.596   3.330  1.00  0.00     0.315 C 
HETATM    9  O   UNL     1      43.364 -13.951   2.176  1.00  0.00    -0.252 OA
HETATM   10  N   UNL     1      43.258 -12.277   3.769  1.00  0.00    -0.324 N 
HETATM   11  H   UNL     1      40.073 -15.773   5.397  1.00  0.00     0.165 HD
HETATM   12  H   UNL     1      43.349 -11.527   3.102  1.00  0.00     0.165 HD
ENDROOT
BRANCH   1  13
HETATM   13  C   UNL     1      43.377 -11.388   6.045  1.00  0.00    -0.020 A 
HETATM   14  C   UNL     1      44.756 -11.607   6.202  1.00  0.00     0.011 A 
HETATM   15  C   UNL     1      45.481 -10.930   7.185  1.00  0.00     0.007 A 
HETATM   16  C   UNL     1      44.846 -10.015   8.029  1.00  0.00    -0.062 A 
HETATM   17  C   UNL     1      45.617  -9.293   9.093  1.00  0.00     0.048 C 
HETATM   18  C   UNL     1      43.484  -9.753   7.842  1.00  0.00     0.007 A 
HETATM   19  C   UNL     1      42.756 -10.433   6.863  1.00  0.00     0.011 A 
ENDBRANCH   1  13
BRANCH   4  20
HETATM   20  C   UNL     1      42.679 -16.831   4.513  1.00  0.00    -0.020 A 
HETATM   21  C   UNL     1      43.194 -17.544   3.417  1.00  0.00     0.011 A 
HETATM   22  C   UNL     1      43.817 -18.780   3.594  1.00  0.00     0.007 A 
HETATM   23  C   UNL     1      43.943 -19.331   4.873  1.00  0.00    -0.062 A 
HETATM   24  C   UNL     1      44.604 -20.664   5.064  1.00  0.00     0.048 C 
HETATM   25  C   UNL     1      43.483 -18.603   5.975  1.00  0.00     0.007 A 
HETATM   26  C   UNL     1      42.855 -17.367   5.798  1.00  0.00     0.011 A 
ENDBRANCH   4  20
TORSDOF 2
ENDMDL
MODEL 3
REMARK VINA RESULT:      -8.7      1.397      7.083
REMARK  2 active torsions:
REMARK  status: ('A' for Active; 'I' for Inactive)
REMARK    1  A    between atoms: C_5  and  C_6 
REMARK    2  A    between atoms: C_9  and  C_10 
ROOT
HETATM    1  C   UNL     1      42.048 -11.224   5.532  1.00  0.00     0.220 C 
HETATM    2  N   UNL     1      41.756 -12.647   5.518  1.00  0.00    -0.126 NA
HETATM    3  N   UNL     1      42.192 -13.158   4.275  1.00  0.00    -0.126 NA
HETATM    4  C   UNL     1      41.267 -14.204   3.885  1.00  0.00     0.220 C 
HETATM    5  N   UNL     1      40.326 -14.272   4.972  1.00  0.00    -0.324 N 
HETATM    6  C   UNL     1      40.518 -13.189   5.822  1.00  0.00     0.315 C 
HETATM    7  O   UNL     1      39.690 -12.768   6.610  1.00  0.00    -0.252 OA
HETATM    8  C   UNL     1      42.565 -12.103   3.457  1.00  0.00     0.315 C 
HETATM    9  O   UNL     1      42.678 -12.101   2.244  1.00  0.00    -0.252 OA
HETATM   10  N   UNL     1      42.690 -10.980   4.267  1.00  0.00    -0.324 N 
HETATM   11  H   UNL     1      39.419 -14.708   4.909  1.00  0.00     0.165 HD
HETATM   12  H   UNL     1      42.790 -10.067   3.851  1.00  0.00     0.165 HD
ENDROOT
BRANCH   1  13
HETATM   13  C   UNL     1      42.917 -10.818   6.698  1.00  0.00    -0.020 A 
HETATM   14  C   UNL     1      44.205 -11.352   6.871  1.00  0.00     0.011 A 
HETATM   15  C   UNL     1      44.977 -11.014   7.983  1.00  0.00     0.007 A 
HETATM   16  C   UNL     1      44.482 -10.129   8.946  1.00  0.00    -0.062 A 
HETATM   17  C   UNL     1      45.303  -9.770  10.148  1.00  0.00     0.048 C 
HETATM   18  C   UNL     1      43.222  -9.552   8.752  1.00  0.00     0.007 A 
HETATM   19  C   UNL     1      42.446  -9.894   7.642  1.00  0.00     0.011 A 
ENDBRANCH   1  13
BRANCH   4  20
HETATM   20  C   UNL     1      41.950 -15.528   3.641  1.00  0.00    -0.020 A 
HETATM   21  C   UNL     1      42.970 -15.992   4.489  1.00  0.00     0.011 A 
HETATM   22  C   UNL     1      43.635 -17.190   4.221  1.00  0.00     0.007 A 
HETATM   23  C   UNL     1      43.295 -17.952   3.100  1.00  0.00    -0.062 A 
HETATM   24  C   UNL     1      44.015 -19.234   2.806  1.00  0.00     0.048 C 
HETATM   25  C   UNL     1      42.244 -17.525   2.282  1.00  0.00     0.007 A 
HETATM   26  C   UNL     1      41.580 -16.324   2.547  1.00  0.00     0.011 A 
ENDBRANCH   4  20
TORSDOF 2
ENDMDL
MODEL 4
REMARK VINA RESULT:      -8.7      1.361      2.046
REMARK  2 active torsions:
REMARK  status: ('A' for Active; 'I' for Inactive)
REMARK    1  A    between atoms: C_5  and  C_6 
REMARK    2  A    between atoms: C_9  and  C_10 
ROOT
HETATM    1  C   UNL     1      41.292 -14.238   3.853  1.00  0.00     0.220 C 
HETATM    2  N   UNL     1      42.230 -13.215   4.279  1.00  0.00    -0.126 NA
HETATM    3  N   UNL     1      41.769 -12.701   5.512  1.00  0.00    -0.126 NA
HETATM    4  C   UNL     1      42.093 -11.288   5.545  1.00  0.00     0.220 C 
HETATM    5  N   UNL     1      42.778 -11.050   4.300  1.00  0.00    -0.324 N 
HETATM    6  C   UNL     1      42.651 -12.165   3.480  1.00  0.00     0.315 C 
HETATM    7  O   UNL     1      42.801 -12.158   2.270  1.00  0.00    -0.252 OA
HETATM    8  C   UNL     1      40.510 -13.217   5.775  1.00  0.00     0.315 C 
HETATM    9  O   UNL     1      39.668 -12.783   6.540  1.00  0.00    -0.252 OA
HETATM   10  N   UNL     1      40.318 -14.291   4.911  1.00  0.00    -0.324 N 
HETATM   11  H   UNL     1      42.912 -10.137   3.894  1.00  0.00     0.165 HD
HETATM   12  H   UNL     1      39.404 -14.705   4.818  1.00  0.00     0.165 HD
ENDROOT
BRANCH   1  13
HETATM   13  C   UNL     1      41.952 -15.576   3.621  1.00  0.00    -0.020 A 
HETATM   14  C   UNL     1      42.944 -16.062   4.489  1.00  0.00     0.011 A 
HETATM   15  C   UNL     1      43.589 -17.273   4.233  1.00  0.00     0.007 A 
HETATM   16  C   UNL     1      43.253 -18.029   3.106  1.00  0.00    -0.062 A 
HETATM   17  C   UNL     1      43.949 -19.326   2.821  1.00  0.00     0.048 C 
HETATM   18  C   UNL     1      42.228 -17.577   2.267  1.00  0.00     0.007 A 
HETATM   19  C   UNL     1      41.585 -16.362   2.519  1.00  0.00     0.011 A 
ENDBRANCH   1  13
BRANCH   4  20
HETATM   20  C   UNL     1      42.935 -10.909   6.739  1.00  0.00    -0.020 A 
HETATM   21  C   UNL     1      42.480  -9.980   7.690  1.00  0.00     0.011 A 
HETATM   22  C   UNL     1      43.290  -9.592   8.758  1.00  0.00     0.007 A 
HETATM   23  C   UNL     1      44.574 -10.128   8.903  1.00  0.00    -0.062 A 
HETATM   24  C   UNL     1      45.449  -9.705  10.045  1.00  0.00     0.048 C 
HETATM   25  C   UNL     1      45.013 -11.094   7.992  1.00  0.00     0.007 A 
HETATM   26  C   UNL     1      44.204 -11.480   6.920  1.00  0.00     0.011 A 
ENDBRANCH   4  20
TORSDOF 2
ENDMDL
MODEL 5
REMARK VINA RESULT:      -8.6      2.821      4.703
REMARK  2 active torsions:
REMARK  status: ('A' for Active; 'I' for Inactive)
REMARK    1  A    between atoms: C_5  and  C_6 
REMARK    2  A    between atoms: C_9  and  C_10 
ROOT
HETATM    1  C   UNL     1      42.789 -15.609   5.341  1.00  0.00     0.220 C 
HETATM    2  N   UNL     1      41.456 -15.063   5.154  1.00  0.00    -0.126 NA
HETATM    3  N   UNL     1      41.599 -13.697   4.822  1.00  0.00    -0.126 NA
HETATM    4  C   UNL     1      40.483 -12.985   5.415  1.00  0.00     0.220 C 
HETATM    5  N   UNL     1      39.705 -14.012   6.057  1.00  0.00    -0.324 N 
HETATM    6  C   UNL     1      40.424 -15.202   6.067  1.00  0.00     0.315 C 
HETATM    7  O   UNL     1      40.211 -16.136   6.820  1.00  0.00    -0.252 OA
HETATM    8  C   UNL     1      42.926 -13.330   4.975  1.00  0.00     0.315 C 
HETATM    9  O   UNL     1      43.382 -12.208   5.103  1.00  0.00    -0.252 OA
HETATM   10  N   UNL     1      43.668 -14.503   5.068  1.00  0.00    -0.324 N 
HETATM   11  H   UNL     1      39.012 -13.836   6.768  1.00  0.00     0.165 HD
HETATM   12  H   UNL     1      44.635 -14.466   5.351  1.00  0.00     0.165 HD
ENDROOT
BRANCH   1  13
HETATM   13  C   UNL     1      43.067 -16.791   4.446  1.00  0.00    -0.020 A 
HETATM   14  C   UNL     1      42.516 -16.877   3.156  1.00  0.00     0.011 A 
HETATM   15  C   UNL     1      42.733 -18.001   2.358  1.00  0.00     0.007 A 
HETATM   16  C   UNL     1      43.510 -19.064   2.828  1.00  0.00    -0.062 A 
HETATM   17  C   UNL     1      43.738 -20.279   1.979  1.00  0.00     0.048 C 
HETATM   18  C   UNL     1      44.106 -18.961   4.090  1.00  0.00     0.007 A 
HETATM   19  C   UNL     1      43.885 -17.839   4.892  1.00  0.00     0.011 A 
ENDBRANCH   1  13
BRANCH   4  20
HETATM   20  C   UNL     1      39.677 -12.212   4.399  1.00  0.00    -0.020 A 
HETATM   21  C   UNL     1      39.296 -12.788   3.176  1.00  0.00     0.011 A 
HETATM   22  C   UNL     1      38.601 -12.046   2.219  1.00  0.00     0.007 A 
HETATM   23  C   UNL     1      38.268 -10.711   2.466  1.00  0.00    -0.062 A 
HETATM   24  C   UNL     1      37.530  -9.909   1.435  1.00  0.00     0.048 C 
HETATM   25  C   UNL     1      38.595 -10.146   3.703  1.00  0.00     0.007 A 
HETATM   26  C   UNL     1      39.295 -10.887   4.659  1.00  0.00     0.011 A 
ENDBRANCH   4  20
TORSDOF 2
ENDMDL
MODEL 6
REMARK VINA RESULT:      -8.2      4.347      7.859
REMARK  2 active torsions:
REMARK  status: ('A' for Active; 'I' for Inactive)
REMARK    1  A    between atoms: C_5  and  C_6 
REMARK    2  A    between atoms: C_9  and  C_10 
ROOT
HETATM    1  C   UNL     1      39.625 -12.716   0.638  1.00  0.00     0.220 C 
HETATM    2  N   UNL     1      40.201 -13.315   1.828  1.00  0.00    -0.126 NA
HETATM    3  N   UNL     1      40.364 -14.695   1.574  1.00  0.00    -0.126 NA
HETATM    4  C   UNL     1      40.122 -15.400   2.818  1.00  0.00     0.220 C 
HETATM    5  N   UNL     1      39.852 -14.356   3.773  1.00  0.00    -0.324 N 
HETATM    6  C   UNL     1      39.694 -13.147   3.107  1.00  0.00     0.315 C 
HETATM    7  O   UNL     1      39.125 -12.171   3.564  1.00  0.00    -0.252 OA
HETATM    8  C   UNL     1      39.754 -15.009   0.370  1.00  0.00     0.315 C 
HETATM    9  O   UNL     1      39.399 -16.105  -0.025  1.00  0.00    -0.252 OA
HETATM   10  N   UNL     1      39.508 -13.810  -0.290  1.00  0.00    -0.324 N 
HETATM   11  H   UNL     1      39.400 -14.506   4.661  1.00  0.00     0.165 HD
HETATM   12  H   UNL     1      38.920 -13.796  -1.109  1.00  0.00     0.165 HD
ENDROOT
BRANCH   1  13
HETATM   13  C   UNL     1      40.464 -11.589   0.086  1.00  0.00    -0.020 A 
HETATM   14  C   UNL     1      40.874 -10.518   0.898  1.00  0.00     0.011 A 
HETATM   15  C   UNL     1      41.600  -9.452   0.364  1.00  0.00     0.007 A 
HETATM   16  C   UNL     1      41.938  -9.434  -0.992  1.00  0.00    -0.062 A 
HETATM   17  C   UNL     1      42.709  -8.287  -1.573  1.00  0.00     0.048 C 
HETATM   18  C   UNL     1      41.579 -10.523  -1.795  1.00  0.00     0.007 A 
HETATM   19  C   UNL     1      40.847 -11.589  -1.263  1.00  0.00     0.011 A 
ENDBRANCH   1  13
BRANCH   4  20
HETATM   20  C   UNL     1      41.287 -16.265   3.236  1.00  0.00    -0.020 A 
HETATM   21  C   UNL     1      41.716 -16.318   4.573  1.00  0.00     0.011 A 
HETATM   22  C   UNL     1      42.830 -17.076   4.938  1.00  0.00     0.007 A 
HETATM   23  C   UNL     1      43.538 -17.801   3.976  1.00  0.00    -0.062 A 
HETATM   24  C   UNL     1      44.741 -18.608   4.365  1.00  0.00     0.048 C 
HETATM   25  C   UNL     1      43.084 -17.798   2.653  1.00  0.00     0.007 A 
HETATM   26  C   UNL     1      41.972 -17.037   2.285  1.00  0.00     0.011 A 
ENDBRANCH   4  20
TORSDOF 2
ENDMDL
MODEL 7
REMARK VINA RESULT:      -8.2      3.588      8.106
REMARK  2 active torsions:
REMARK  status: ('A' for Active; 'I' for Inactive)
REMARK    1  A    between atoms: C_5  and  C_6 
REMARK    2  A    between atoms: C_9  and  C_10 
ROOT
HETATM    1  C   UNL     1      44.175  -9.130   8.846  1.00  0.00     0.220 C 
HETATM    2  N   UNL     1      43.394  -9.993   7.978  1.00  0.00    -0.126 NA
HETATM    3  N   UNL     1      44.278 -10.935   7.407  1.00  0.00    -0.126 NA
HETATM    4  C   UNL     1      43.817 -11.206   6.059  1.00  0.00     0.220 C 
HETATM    5  N   UNL     1      42.629 -10.403   5.920  1.00  0.00    -0.324 N 
HETATM    6  C   UNL     1      42.529  -9.532   6.999  1.00  0.00     0.315 C 
HETATM    7  O   UNL     1      41.862  -8.512   7.009  1.00  0.00    -0.252 OA
HETATM    8  C   UNL     1      45.580 -10.588   7.729  1.00  0.00     0.315 C 
HETATM    9  O   UNL     1      46.607 -10.940   7.177  1.00  0.00    -0.252 OA
HETATM   10  N   UNL     1      45.513  -9.653   8.757  1.00  0.00    -0.324 N 
HETATM   11  H   UNL     1      42.210 -10.161   5.036  1.00  0.00     0.165 HD
HETATM   12  H   UNL     1      46.339  -9.143   9.029  1.00  0.00     0.165 HD
ENDROOT
BRANCH   1  13
HETATM   13  C   UNL     1      43.665  -9.114  10.266  1.00  0.00    -0.020 A 
HETATM   14  C   UNL     1      43.519 -10.301  11.004  1.00  0.00     0.011 A 
HETATM   15  C   UNL     1      42.991 -10.280  12.297  1.00  0.00     0.007 A 
HETATM   16  C   UNL     1      42.603  -9.072  12.883  1.00  0.00    -0.062 A 
HETATM   17  C   UNL     1      42.026  -9.045  14.267  1.00  0.00     0.048 C 
HETATM   18  C   UNL     1      42.796  -7.881  12.175  1.00  0.00     0.007 A 
HETATM   19  C   UNL     1      43.318  -7.901  10.879  1.00  0.00     0.011 A 
ENDBRANCH   1  13
BRANCH   4  20
HETATM   20  C   UNL     1      43.545 -12.671   5.817  1.00  0.00    -0.020 A 
HETATM   21  C   UNL     1      43.825 -13.639   6.797  1.00  0.00     0.011 A 
HETATM   22  C   UNL     1      43.624 -14.996   6.541  1.00  0.00     0.007 A 
HETATM   23  C   UNL     1      43.136 -15.417   5.301  1.00  0.00    -0.062 A 
HETATM   24  C   UNL     1      42.928 -16.876   5.022  1.00  0.00     0.048 C 
HETATM   25  C   UNL     1      42.802 -14.457   4.341  1.00  0.00     0.007 A 
HETATM   26  C   UNL     1      43.006 -13.098   4.594  1.00  0.00     0.011 A 
ENDBRANCH   4  20
TORSDOF 2
ENDMDL
MODEL 8
REMARK VINA RESULT:      -8.1      3.547      7.325
REMARK  2 active torsions:
REMARK  status: ('A' for Active; 'I' for Inactive)
REMARK    1  A    between atoms: C_5  and  C_6 
REMARK    2  A    between atoms: C_9  and  C_10 
ROOT
HETATM    1  C   UNL     1      40.278 -12.201   3.488  1.00  0.00     0.220 C 
HETATM    2  N   UNL     1      41.374 -13.068   3.096  1.00  0.00    -0.126 NA
HETATM    3  N   UNL     1      41.306 -14.229   3.898  1.00  0.00    -0.126 NA
HETATM    4  C   UNL     1      42.666 -14.662   4.157  1.00  0.00     0.220 C 
HETATM    5  N   UNL     1      43.483 -13.715   3.442  1.00  0.00    -0.324 N 
HETATM    6  C   UNL     1      42.694 -12.659   3.002  1.00  0.00     0.315 C 
HETATM    7  O   UNL     1      43.117 -11.559   2.689  1.00  0.00    -0.252 OA
HETATM    8  C   UNL     1      40.347 -14.045   4.881  1.00  0.00     0.315 C 
HETATM    9  O   UNL     1      40.224 -14.653   5.929  1.00  0.00    -0.252 OA
HETATM   10  N   UNL     1      39.586 -12.941   4.511  1.00  0.00    -0.324 N 
HETATM   11  H   UNL     1      44.466 -13.573   3.614  1.00  0.00     0.165 HD
HETATM   12  H   UNL     1      38.941 -12.531   5.167  1.00  0.00     0.165 HD
ENDROOT
BRANCH   1  13
HETATM   13  C   UNL     1      39.373 -11.844   2.334  1.00  0.00    -0.020 A 
HETATM   14  C   UNL     1      39.530 -12.439   1.071  1.00  0.00     0.011 A 
HETATM   15  C   UNL     1      38.725 -12.060  -0.005  1.00  0.00     0.007 A 
HETATM   16  C   UNL     1      37.741 -11.081   0.159  1.00  0.00    -0.062 A 
HETATM   17  C   UNL     1      36.880 -10.663  -0.995  1.00  0.00     0.048 C 
HETATM   18  C   UNL     1      37.542 -10.524   1.427  1.00  0.00     0.007 A 
HETATM   19  C   UNL     1      38.351 -10.899   2.503  1.00  0.00     0.011 A 
ENDBRANCH   1  13
BRANCH   4  20
HETATM   20  C   UNL     1      42.922 -16.082   3.715  1.00  0.00    -0.020 A 
HETATM   21  C   UNL     1      43.729 -16.949   4.472  1.00  0.00     0.011 A 
HETATM   22  C   UNL     1      44.008 -18.242   4.025  1.00  0.00     0.007 A 
HETATM   23  C   UNL     1      43.483 -18.699   2.813  1.00  0.00    -0.062 A 
HETATM   24  C   UNL     1      43.788 -20.085   2.327  1.00  0.00     0.048 C 
HETATM   25  C   UNL     1      42.634 -17.862   2.081  1.00  0.00     0.007 A 
HETATM   26  C   UNL     1      42.358 -16.566   2.526  1.00  0.00     0.011 A 
ENDBRANCH   4  20
TORSDOF 2
ENDMDL
MODEL 9
REMARK VINA RESULT:      -8.0      3.428      5.573
REMARK  2 active torsions:
REMARK  status: ('A' for Active; 'I' for Inactive)
REMARK    1  A    between atoms: C_5  and  C_6 
REMARK    2  A    between atoms: C_9  and  C_10 
ROOT
HETATM    1  C   UNL     1      42.723 -14.934   4.250  1.00  0.00     0.220 C 
HETATM    2  N   UNL     1      41.382 -14.503   3.895  1.00  0.00    -0.126 NA
HETATM    3  N   UNL     1      41.503 -13.307   3.154  1.00  0.00    -0.126 NA
HETATM    4  C   UNL     1      40.366 -12.470   3.488  1.00  0.00     0.220 C 
HETATM    5  N   UNL     1      39.600 -13.263   4.415  1.00  0.00    -0.324 N 
HETATM    6  C   UNL     1      40.342 -14.373   4.800  1.00  0.00     0.315 C 
HETATM    7  O   UNL     1      40.138 -15.030   5.806  1.00  0.00    -0.252 OA
HETATM    8  C   UNL     1      42.820 -12.880   3.192  1.00  0.00     0.315 C 
HETATM    9  O   UNL     1      43.253 -11.764   2.966  1.00  0.00    -0.252 OA
HETATM   10  N   UNL     1      43.584 -13.949   3.651  1.00  0.00    -0.324 N 
HETATM   11  H   UNL     1      38.895 -12.889   5.031  1.00  0.00     0.165 HD
HETATM   12  H   UNL     1      44.546 -13.804   3.913  1.00  0.00     0.165 HD
ENDROOT
BRANCH   1  13
HETATM   13  C   UNL     1      43.035 -16.330   3.770  1.00  0.00    -0.020 A 
HETATM   14  C   UNL     1      42.478 -16.836   2.584  1.00  0.00     0.011 A 
HETATM   15  C   UNL     1      42.727 -18.149   2.179  1.00  0.00     0.007 A 
HETATM   16  C   UNL     1      43.544 -18.984   2.948  1.00  0.00    -0.062 A 
HETATM   17  C   UNL     1      43.807 -20.397   2.523  1.00  0.00     0.048 C 
HETATM   18  C   UNL     1      44.145 -18.468   4.101  1.00  0.00     0.007 A 
HETATM   19  C   UNL     1      43.892 -17.157   4.511  1.00  0.00     0.011 A 
ENDBRANCH   1  13
BRANCH   4  20
HETATM   20  C   UNL     1      39.557 -12.071   2.278  1.00  0.00    -0.020 A 
HETATM   21  C   UNL     1      38.371 -11.328   2.403  1.00  0.00     0.011 A 
HETATM   22  C   UNL     1      37.600 -11.014   1.282  1.00  0.00     0.007 A 
HETATM   23  C   UNL     1      37.999 -11.433   0.010  1.00  0.00    -0.062 A 
HETATM   24  C   UNL     1      37.167 -11.104  -1.194  1.00  0.00     0.048 C 
HETATM   25  C   UNL     1      39.207 -12.124  -0.130  1.00  0.00     0.007 A 
HETATM   26  C   UNL     1      39.977 -12.443   0.992  1.00  0.00     0.011 A 
ENDBRANCH   4  20
TORSDOF 2
ENDMDL
MODEL 10
REMARK VINA RESULT:      -7.9     15.566     17.939
REMARK  2 active torsions:
REMARK  status: ('A' for Active; 'I' for Inactive)
REMARK    1  A    between atoms: C_5  and  C_6 
REMARK    2  A    between atoms: C_9  and  C_10 
ROOT
HETATM    1  C   UNL     1      48.248 -28.690  -0.849  1.00  0.00     0.220 C 
HETATM    2  N   UNL     1      47.238 -29.042   0.132  1.00  0.00    -0.126 NA
HETATM    3  N   UNL     1      46.019 -29.224  -0.559  1.00  0.00    -0.126 NA
HETATM    4  C   UNL     1      44.953 -28.760   0.308  1.00  0.00     0.220 C 
HETATM    5  N   UNL     1      45.626 -28.346   1.512  1.00  0.00    -0.324 N 
HETATM    6  C   UNL     1      46.998 -28.325   1.293  1.00  0.00     0.315 C 
HETATM    7  O   UNL     1      47.800 -27.702   1.968  1.00  0.00    -0.252 OA
HETATM    8  C   UNL     1      46.181 -28.825  -1.876  1.00  0.00     0.315 C 
HETATM    9  O   UNL     1      45.316 -28.525  -2.679  1.00  0.00    -0.252 OA
HETATM   10  N   UNL     1      47.549 -28.717  -2.106  1.00  0.00    -0.324 N 
HETATM   11  H   UNL     1      45.217 -27.745   2.210  1.00  0.00     0.165 HD
HETATM   12  H   UNL     1      47.884 -28.279  -2.950  1.00  0.00     0.165 HD
ENDROOT
BRANCH   1  13
HETATM   13  C   UNL     1      49.429 -29.630  -0.835  1.00  0.00    -0.020 A 
HETATM   14  C   UNL     1      50.020 -30.077  -2.029  1.00  0.00     0.011 A 
HETATM   15  C   UNL     1      51.075 -30.992  -2.007  1.00  0.00     0.007 A 
HETATM   16  C   UNL     1      51.566 -31.476  -0.791  1.00  0.00    -0.062 A 
HETATM   17  C   UNL     1      52.692 -32.466  -0.761  1.00  0.00     0.048 C 
HETATM   18  C   UNL     1      51.018 -30.993   0.402  1.00  0.00     0.007 A 
HETATM   19  C   UNL     1      49.959 -30.082   0.382  1.00  0.00     0.011 A 
ENDBRANCH   1  13
BRANCH   4  20
HETATM   20  C   UNL     1      43.911 -29.820   0.573  1.00  0.00    -0.020 A 
HETATM   21  C   UNL     1      42.747 -29.534   1.306  1.00  0.00     0.011 A 
HETATM   22  C   UNL     1      41.819 -30.536   1.596  1.00  0.00     0.007 A 
HETATM   23  C   UNL     1      42.032 -31.845   1.158  1.00  0.00    -0.062 A 
HETATM   24  C   UNL     1      41.041 -32.925   1.477  1.00  0.00     0.048 C 
HETATM   25  C   UNL     1      43.161 -32.127   0.382  1.00  0.00     0.007 A 
HETATM   26  C   UNL     1      44.093 -31.126   0.094  1.00  0.00     0.011 A 
ENDBRANCH   4  20
TORSDOF 2
ENDMDL
