MODEL 1
REMARK VINA RESULT:      -7.8      0.000      0.000
REMARK  5 active torsions:
REMARK  status: ('A' for Active; 'I' for Inactive)
REMARK    1  A    between atoms: C_2  and  N_3 
REMARK       I    between atoms: N_3  and  C_4 
REMARK    2  A    between atoms: C_4  and  C_5 
REMARK    3  A    between atoms: C_13  and  C_14 
REMARK    4  A    between atoms: C_15  and  O_16 
REMARK    5  A    between atoms: C_19  and  O_20 
ROOT
HETATM    1  C   UNL     1      42.999 -12.423   6.282  1.00  0.00     0.046 A 
HETATM    2  C   UNL     1      41.751 -12.043   5.740  1.00  0.00     0.008 A 
HETATM    3  C   UNL     1      41.003 -13.068   5.130  1.00  0.00     0.068 A 
HETATM    4  C   UNL     1      39.764 -12.761   4.583  1.00  0.00     0.032 A 
HETATM    5  C   UNL     1      39.237 -11.468   4.620  1.00  0.00     0.002 A 
HETATM    6  C   UNL     1      39.961 -10.450   5.223  1.00  0.00     0.001 A 
HETATM    7  C   UNL     1      41.207 -10.733   5.781  1.00  0.00     0.015 A 
HETATM    8  N   UNL     1      41.426 -14.341   5.057  1.00  0.00    -0.247 NA
HETATM    9  C   UNL     1      42.641 -14.668   5.556  1.00  0.00     0.071 A 
HETATM   10  C   UNL     1      43.453 -13.739   6.180  1.00  0.00     0.050 A 
ENDROOT
BRANCH   9  11
HETATM   11  C   UNL     1      43.034 -16.077   5.435  1.00  0.00     0.026 A 
HETATM   12  C   UNL     1      43.473 -16.635   4.223  1.00  0.00     0.083 A 
HETATM   13  C   UNL     1      43.887 -17.973   4.135  1.00  0.00     0.074 A 
HETATM   14  C   UNL     1      43.834 -18.793   5.259  1.00  0.00     0.070 A 
HETATM   15  C   UNL     1      43.378 -18.262   6.467  1.00  0.00     0.038 A 
HETATM   16  C   UNL     1      42.986 -16.923   6.557  1.00  0.00     0.019 A 
BRANCH  12  17
HETATM   17  O   UNL     1      43.598 -15.841   3.108  1.00  0.00    -0.355 OA
HETATM   18  C   UNL     1      43.138 -16.540   1.950  1.00  0.00     0.210 C 
ENDBRANCH  12  17
BRANCH  14  19
HETATM   19  O   UNL     1      44.200 -20.109   5.315  1.00  0.00    -0.356 OA
HETATM   20  C   UNL     1      43.885 -20.912   4.185  1.00  0.00     0.210 C 
ENDBRANCH  14  19
ENDBRANCH   9  11
BRANCH   1  21
HETATM   21  C   UNL     1      43.884 -11.448   6.969  1.00  0.00     0.253 C 
HETATM   22  N   UNL     1      43.511 -11.149   8.264  1.00  0.00    -0.349 N 
HETATM   23  H   UNL     1      42.603 -11.474   8.570  1.00  0.00     0.163 HD
HETATM   24  O   UNL     1      44.850 -10.973   6.388  1.00  0.00    -0.268 OA
BRANCH  22  25
HETATM   25  C   UNL     1      44.194 -10.173   9.128  1.00  0.00     0.022 C 
HETATM   26  C   UNL     1      43.847  -8.737   8.707  1.00  0.00     0.037 C 
HETATM   27  C   UNL     1      45.717 -10.379   9.104  1.00  0.00     0.037 C 
HETATM   28  C   UNL     1      43.704 -10.394  10.571  1.00  0.00     0.037 C 
ENDBRANCH  22  25
ENDBRANCH   1  21
TORSDOF 5
ENDMDL
MODEL 2
REMARK VINA RESULT:      -7.8      3.380      6.523
REMARK  5 active torsions:
REMARK  status: ('A' for Active; 'I' for Inactive)
REMARK    1  A    between atoms: C_2  and  N_3 
REMARK       I    between atoms: N_3  and  C_4 
REMARK    2  A    between atoms: C_4  and  C_5 
REMARK    3  A    between atoms: C_13  and  C_14 
REMARK    4  A    between atoms: C_15  and  O_16 
REMARK    5  A    between atoms: C_19  and  O_20 
ROOT
HETATM    1  C   UNL     1      40.678 -13.767   1.487  1.00  0.00     0.046 A 
HETATM    2  C   UNL     1      40.193 -13.011   2.578  1.00  0.00     0.008 A 
HETATM    3  C   UNL     1      40.528 -13.490   3.860  1.00  0.00     0.068 A 
HETATM    4  C   UNL     1      40.086 -12.789   4.974  1.00  0.00     0.032 A 
HETATM    5  C   UNL     1      39.323 -11.625   4.864  1.00  0.00     0.002 A 
HETATM    6  C   UNL     1      38.991 -11.140   3.608  1.00  0.00     0.001 A 
HETATM    7  C   UNL     1      39.424 -11.824   2.473  1.00  0.00     0.015 A 
HETATM    8  N   UNL     1      41.266 -14.594   4.061  1.00  0.00    -0.247 NA
HETATM    9  C   UNL     1      41.688 -15.315   2.996  1.00  0.00     0.071 A 
HETATM   10  C   UNL     1      41.419 -14.931   1.696  1.00  0.00     0.050 A 
ENDROOT
BRANCH   9  11
HETATM   11  C   UNL     1      42.486 -16.510   3.298  1.00  0.00     0.026 A 
HETATM   12  C   UNL     1      43.288 -16.610   4.447  1.00  0.00     0.083 A 
HETATM   13  C   UNL     1      44.009 -17.776   4.743  1.00  0.00     0.074 A 
HETATM   14  C   UNL     1      43.970 -18.859   3.868  1.00  0.00     0.070 A 
HETATM   15  C   UNL     1      43.196 -18.770   2.710  1.00  0.00     0.038 A 
HETATM   16  C   UNL     1      42.462 -17.614   2.428  1.00  0.00     0.019 A 
BRANCH  12  17
HETATM   17  O   UNL     1      43.303 -15.585   5.364  1.00  0.00    -0.355 OA
HETATM   18  C   UNL     1      44.136 -15.928   6.473  1.00  0.00     0.210 C 
ENDBRANCH  12  17
BRANCH  14  19
HETATM   19  O   UNL     1      44.623 -20.049   4.029  1.00  0.00    -0.356 OA
HETATM   20  C   UNL     1      44.354 -20.774   5.223  1.00  0.00     0.210 C 
ENDBRANCH  14  19
ENDBRANCH   9  11
BRANCH   1  21
HETATM   21  C   UNL     1      40.414 -13.369   0.081  1.00  0.00     0.253 C 
HETATM   22  N   UNL     1      39.542 -14.199  -0.595  1.00  0.00    -0.349 N 
HETATM   23  H   UNL     1      39.297 -15.073  -0.149  1.00  0.00     0.163 HD
HETATM   24  O   UNL     1      40.955 -12.380  -0.394  1.00  0.00    -0.268 OA
BRANCH  22  25
HETATM   25  C   UNL     1      39.167 -14.046  -2.010  1.00  0.00     0.022 C 
HETATM   26  C   UNL     1      40.392 -13.670  -2.859  1.00  0.00     0.037 C 
HETATM   27  C   UNL     1      38.060 -12.993  -2.181  1.00  0.00     0.037 C 
HETATM   28  C   UNL     1      38.623 -15.398  -2.505  1.00  0.00     0.037 C 
ENDBRANCH  22  25
ENDBRANCH   1  21
TORSDOF 5
ENDMDL
MODEL 3
REMARK VINA RESULT:      -7.5      1.158      1.996
REMARK  5 active torsions:
REMARK  status: ('A' for Active; 'I' for Inactive)
REMARK    1  A    between atoms: C_2  and  N_3 
REMARK       I    between atoms: N_3  and  C_4 
REMARK    2  A    between atoms: C_4  and  C_5 
REMARK    3  A    between atoms: C_13  and  C_14 
REMARK    4  A    between atoms: C_15  and  O_16 
REMARK    5  A    between atoms: C_19  and  O_20 
ROOT
HETATM    1  C   UNL     1      42.988 -12.371   5.701  1.00  0.00     0.046 A 
HETATM    2  C   UNL     1      41.668 -11.985   5.378  1.00  0.00     0.008 A 
HETATM    3  C   UNL     1      40.884 -12.950   4.717  1.00  0.00     0.068 A 
HETATM    4  C   UNL     1      39.575 -12.635   4.378  1.00  0.00     0.032 A 
HETATM    5  C   UNL     1      39.012 -11.391   4.672  1.00  0.00     0.002 A 
HETATM    6  C   UNL     1      39.771 -10.434   5.328  1.00  0.00     0.001 A 
HETATM    7  C   UNL     1      41.087 -10.727   5.681  1.00  0.00     0.015 A 
HETATM    8  N   UNL     1      41.339 -14.175   4.403  1.00  0.00    -0.247 NA
HETATM    9  C   UNL     1      42.619 -14.505   4.696  1.00  0.00     0.071 A 
HETATM   10  C   UNL     1      43.471 -13.633   5.348  1.00  0.00     0.050 A 
ENDROOT
BRANCH   9  11
HETATM   11  C   UNL     1      43.042 -15.858   4.318  1.00  0.00     0.026 A 
HETATM   12  C   UNL     1      43.894 -16.633   5.124  1.00  0.00     0.083 A 
HETATM   13  C   UNL     1      44.252 -17.942   4.770  1.00  0.00     0.074 A 
HETATM   14  C   UNL     1      43.793 -18.491   3.575  1.00  0.00     0.070 A 
HETATM   15  C   UNL     1      42.965 -17.727   2.750  1.00  0.00     0.038 A 
HETATM   16  C   UNL     1      42.591 -16.430   3.117  1.00  0.00     0.019 A 
BRANCH  12  17
HETATM   17  O   UNL     1      44.317 -16.149   6.339  1.00  0.00    -0.355 OA
HETATM   18  C   UNL     1      43.684 -16.862   7.402  1.00  0.00     0.210 C 
ENDBRANCH  12  17
BRANCH  14  19
HETATM   19  O   UNL     1      44.066 -19.746   3.106  1.00  0.00    -0.356 OA
HETATM   20  C   UNL     1      43.312 -20.192   1.986  1.00  0.00     0.210 C 
ENDBRANCH  14  19
ENDBRANCH   9  11
BRANCH   1  21
HETATM   21  C   UNL     1      43.919 -11.459   6.413  1.00  0.00     0.253 C 
HETATM   22  N   UNL     1      43.598 -11.233   7.737  1.00  0.00    -0.349 N 
HETATM   23  H   UNL     1      42.695 -11.558   8.056  1.00  0.00     0.163 HD
HETATM   24  O   UNL     1      44.874 -10.969   5.827  1.00  0.00    -0.268 OA
BRANCH  22  25
HETATM   25  C   UNL     1      44.334 -10.328   8.634  1.00  0.00     0.022 C 
HETATM   26  C   UNL     1      45.850 -10.529   8.483  1.00  0.00     0.037 C 
HETATM   27  C   UNL     1      43.915 -10.534  10.098  1.00  0.00     0.037 C 
HETATM   28  C   UNL     1      43.988  -8.882   8.235  1.00  0.00     0.037 C 
ENDBRANCH  22  25
ENDBRANCH   1  21
TORSDOF 5
ENDMDL
MODEL 4
REMARK VINA RESULT:      -7.5      3.872      6.696
REMARK  5 active torsions:
REMARK  status: ('A' for Active; 'I' for Inactive)
REMARK    1  A    between atoms: C_2  and  N_3 
REMARK       I    between atoms: N_3  and  C_4 
REMARK    2  A    between atoms: C_4  and  C_5 
REMARK    3  A    between atoms: C_13  and  C_14 
REMARK    4  A    between atoms: C_15  and  O_16 
REMARK    5  A    between atoms: C_19  and  O_20 
ROOT
HETATM    1  C   UNL     1      42.246 -14.390   3.849  1.00  0.00     0.046 A 
HETATM    2  C   UNL     1      42.805 -15.684   3.752  1.00  0.00     0.008 A 
HETATM    3  C   UNL     1      42.605 -16.355   2.530  1.00  0.00     0.068 A 
HETATM    4  C   UNL     1      43.135 -17.628   2.369  1.00  0.00     0.032 A 
HETATM    5  C   UNL     1      43.861 -18.263   3.379  1.00  0.00     0.002 A 
HETATM    6  C   UNL     1      44.070 -17.611   4.585  1.00  0.00     0.001 A 
HETATM    7  C   UNL     1      43.550 -16.331   4.771  1.00  0.00     0.015 A 
HETATM    8  N   UNL     1      41.929 -15.818   1.500  1.00  0.00    -0.247 NA
HETATM    9  C   UNL     1      41.376 -14.590   1.635  1.00  0.00     0.071 A 
HETATM   10  C   UNL     1      41.518 -13.844   2.791  1.00  0.00     0.050 A 
ENDROOT
BRANCH   9  11
HETATM   11  C   UNL     1      40.651 -14.074   0.469  1.00  0.00     0.026 A 
HETATM   12  C   UNL     1      40.733 -12.731   0.064  1.00  0.00     0.083 A 
HETATM   13  C   UNL     1      40.069 -12.265  -1.080  1.00  0.00     0.074 A 
HETATM   14  C   UNL     1      39.273 -13.131  -1.825  1.00  0.00     0.070 A 
HETATM   15  C   UNL     1      39.160 -14.464  -1.424  1.00  0.00     0.038 A 
HETATM   16  C   UNL     1      39.841 -14.931  -0.295  1.00  0.00     0.019 A 
BRANCH  12  17
HETATM   17  O   UNL     1      41.558 -11.861   0.737  1.00  0.00    -0.355 OA
HETATM   18  C   UNL     1      40.938 -10.579   0.848  1.00  0.00     0.210 C 
ENDBRANCH  12  17
BRANCH  14  19
HETATM   19  O   UNL     1      38.569 -12.812  -2.952  1.00  0.00    -0.356 OA
HETATM   20  C   UNL     1      37.155 -12.726  -2.825  1.00  0.00     0.210 C 
ENDBRANCH  14  19
ENDBRANCH   9  11
BRANCH   1  21
HETATM   21  C   UNL     1      42.395 -13.563   5.073  1.00  0.00     0.253 C 
HETATM   22  N   UNL     1      43.476 -12.704   5.057  1.00  0.00    -0.349 N 
HETATM   23  H   UNL     1      44.151 -12.826   4.313  1.00  0.00     0.163 HD
HETATM   24  O   UNL     1      41.599 -13.675   5.996  1.00  0.00    -0.268 OA
BRANCH  22  25
HETATM   25  C   UNL     1      43.864 -11.825   6.171  1.00  0.00     0.022 C 
HETATM   26  C   UNL     1      43.868 -12.599   7.498  1.00  0.00     0.037 C 
HETATM   27  C   UNL     1      42.930 -10.608   6.270  1.00  0.00     0.037 C 
HETATM   28  C   UNL     1      45.290 -11.313   5.896  1.00  0.00     0.037 C 
ENDBRANCH  22  25
ENDBRANCH   1  21
TORSDOF 5
ENDMDL
MODEL 5
REMARK VINA RESULT:      -7.4      7.688     11.776
REMARK  5 active torsions:
REMARK  status: ('A' for Active; 'I' for Inactive)
REMARK    1  A    between atoms: C_2  and  N_3 
REMARK       I    between atoms: N_3  and  C_4 
REMARK    2  A    between atoms: C_4  and  C_5 
REMARK    3  A    between atoms: C_13  and  C_14 
REMARK    4  A    between atoms: C_15  and  O_16 
REMARK    5  A    between atoms: C_19  and  O_20 
ROOT
HETATM    1  C   UNL     1      41.048  -6.970  16.591  1.00  0.00     0.046 A 
HETATM    2  C   UNL     1      40.038  -6.090  16.140  1.00  0.00     0.008 A 
HETATM    3  C   UNL     1      39.788  -6.093  14.754  1.00  0.00     0.068 A 
HETATM    4  C   UNL     1      38.804  -5.254  14.248  1.00  0.00     0.032 A 
HETATM    5  C   UNL     1      38.054  -4.411  15.070  1.00  0.00     0.002 A 
HETATM    6  C   UNL     1      38.286  -4.402  16.437  1.00  0.00     0.001 A 
HETATM    7  C   UNL     1      39.268  -5.236  16.970  1.00  0.00     0.015 A 
HETATM    8  N   UNL     1      40.453  -6.878  13.890  1.00  0.00    -0.247 NA
HETATM    9  C   UNL     1      41.438  -7.686  14.348  1.00  0.00     0.071 A 
HETATM   10  C   UNL     1      41.760  -7.764  15.690  1.00  0.00     0.050 A 
ENDROOT
BRANCH   9  11
HETATM   11  C   UNL     1      42.120  -8.510  13.342  1.00  0.00     0.026 A 
HETATM   12  C   UNL     1      41.647  -9.777  12.960  1.00  0.00     0.083 A 
HETATM   13  C   UNL     1      42.286 -10.532  11.965  1.00  0.00     0.074 A 
HETATM   14  C   UNL     1      43.440 -10.046  11.356  1.00  0.00     0.070 A 
HETATM   15  C   UNL     1      43.938  -8.799  11.740  1.00  0.00     0.038 A 
HETATM   16  C   UNL     1      43.287  -8.039  12.717  1.00  0.00     0.019 A 
BRANCH  12  17
HETATM   17  O   UNL     1      40.477 -10.262  13.494  1.00  0.00    -0.355 OA
HETATM   18  C   UNL     1      39.514 -10.475  12.461  1.00  0.00     0.210 C 
ENDBRANCH  12  17
BRANCH  14  19
HETATM   19  O   UNL     1      44.163 -10.675  10.381  1.00  0.00    -0.356 OA
HETATM   20  C   UNL     1      45.267  -9.961   9.839  1.00  0.00     0.210 C 
ENDBRANCH  14  19
ENDBRANCH   9  11
BRANCH   1  21
HETATM   21  C   UNL     1      41.404  -7.082  18.028  1.00  0.00     0.253 C 
HETATM   22  N   UNL     1      40.883  -8.192  18.662  1.00  0.00    -0.349 N 
HETATM   23  H   UNL     1      40.187  -8.728  18.159  1.00  0.00     0.163 HD
HETATM   24  O   UNL     1      42.102  -6.230  18.561  1.00  0.00    -0.268 OA
BRANCH  22  25
HETATM   25  C   UNL     1      41.049  -8.495  20.093  1.00  0.00     0.022 C 
HETATM   26  C   UNL     1      40.498  -7.350  20.957  1.00  0.00     0.037 C 
HETATM   27  C   UNL     1      42.523  -8.758  20.438  1.00  0.00     0.037 C 
HETATM   28  C   UNL     1      40.249  -9.773  20.402  1.00  0.00     0.037 C 
ENDBRANCH  22  25
ENDBRANCH   1  21
TORSDOF 5
ENDMDL
MODEL 6
REMARK VINA RESULT:      -7.2      2.638      4.664
REMARK  5 active torsions:
REMARK  status: ('A' for Active; 'I' for Inactive)
REMARK    1  A    between atoms: C_2  and  N_3 
REMARK       I    between atoms: N_3  and  C_4 
REMARK    2  A    between atoms: C_4  and  C_5 
REMARK    3  A    between atoms: C_13  and  C_14 
REMARK    4  A    between atoms: C_15  and  O_16 
REMARK    5  A    between atoms: C_19  and  O_20 
ROOT
HETATM    1  C   UNL     1      42.623 -10.343   7.193  1.00  0.00     0.046 A 
HETATM    2  C   UNL     1      43.966 -10.072   7.537  1.00  0.00     0.008 A 
HETATM    3  C   UNL     1      44.943 -10.832   6.866  1.00  0.00     0.068 A 
HETATM    4  C   UNL     1      46.283 -10.609   7.155  1.00  0.00     0.032 A 
HETATM    5  C   UNL     1      46.691  -9.654   8.088  1.00  0.00     0.002 A 
HETATM    6  C   UNL     1      45.739  -8.894   8.752  1.00  0.00     0.001 A 
HETATM    7  C   UNL     1      44.388  -9.098   8.478  1.00  0.00     0.015 A 
HETATM    8  N   UNL     1      44.643 -11.764   5.946  1.00  0.00    -0.247 NA
HETATM    9  C   UNL     1      43.346 -12.026   5.661  1.00  0.00     0.071 A 
HETATM   10  C   UNL     1      42.309 -11.333   6.259  1.00  0.00     0.050 A 
ENDROOT
BRANCH   9  11
HETATM   11  C   UNL     1      43.099 -13.060   4.650  1.00  0.00     0.026 A 
HETATM   12  C   UNL     1      43.029 -12.768   3.277  1.00  0.00     0.083 A 
HETATM   13  C   UNL     1      42.838 -13.775   2.319  1.00  0.00     0.074 A 
HETATM   14  C   UNL     1      42.674 -15.098   2.723  1.00  0.00     0.070 A 
HETATM   15  C   UNL     1      42.718 -15.403   4.084  1.00  0.00     0.038 A 
HETATM   16  C   UNL     1      42.930 -14.400   5.036  1.00  0.00     0.019 A 
BRANCH  12  17
HETATM   17  O   UNL     1      43.248 -11.484   2.836  1.00  0.00    -0.355 OA
HETATM   18  C   UNL     1      42.075 -10.974   2.201  1.00  0.00     0.210 C 
ENDBRANCH  12  17
BRANCH  14  19
HETATM   19  O   UNL     1      42.477 -16.173   1.902  1.00  0.00    -0.356 OA
HETATM   20  C   UNL     1      42.578 -17.462   2.495  1.00  0.00     0.210 C 
ENDBRANCH  14  19
ENDBRANCH   9  11
BRANCH   1  21
HETATM   21  C   UNL     1      41.492  -9.605   7.810  1.00  0.00     0.253 C 
HETATM   22  N   UNL     1      41.319  -9.846   9.158  1.00  0.00    -0.349 N 
HETATM   23  H   UNL     1      41.848 -10.607   9.563  1.00  0.00     0.163 HD
HETATM   24  O   UNL     1      40.797  -8.859   7.134  1.00  0.00    -0.268 OA
BRANCH  22  25
HETATM   25  C   UNL     1      40.238  -9.277   9.979  1.00  0.00     0.022 C 
HETATM   26  C   UNL     1      38.866  -9.750   9.472  1.00  0.00     0.037 C 
HETATM   27  C   UNL     1      40.298  -7.741   9.991  1.00  0.00     0.037 C 
HETATM   28  C   UNL     1      40.427  -9.775  11.423  1.00  0.00     0.037 C 
ENDBRANCH  22  25
ENDBRANCH   1  21
TORSDOF 5
ENDMDL
MODEL 7
REMARK VINA RESULT:      -7.0     16.559     17.636
REMARK  5 active torsions:
REMARK  status: ('A' for Active; 'I' for Inactive)
REMARK    1  A    between atoms: C_2  and  N_3 
REMARK       I    between atoms: N_3  and  C_4 
REMARK    2  A    between atoms: C_4  and  C_5 
REMARK    3  A    between atoms: C_13  and  C_14 
REMARK    4  A    between atoms: C_15  and  O_16 
REMARK    5  A    between atoms: C_19  and  O_20 
ROOT
HETATM    1  C   UNL     1      46.068 -29.261   1.281  1.00  0.00     0.046 A 
HETATM    2  C   UNL     1      45.887 -28.862  -0.063  1.00  0.00     0.008 A 
HETATM    3  C   UNL     1      44.602 -29.067  -0.602  1.00  0.00     0.068 A 
HETATM    4  C   UNL     1      44.358 -28.690  -1.916  1.00  0.00     0.032 A 
HETATM    5  C   UNL     1      45.346 -28.114  -2.718  1.00  0.00     0.002 A 
HETATM    6  C   UNL     1      46.613 -27.902  -2.198  1.00  0.00     0.001 A 
HETATM    7  C   UNL     1      46.884 -28.270  -0.880  1.00  0.00     0.015 A 
HETATM    8  N   UNL     1      43.590 -29.604   0.099  1.00  0.00    -0.247 NA
HETATM    9  C   UNL     1      43.802 -30.007   1.374  1.00  0.00     0.071 A 
HETATM   10  C   UNL     1      45.025 -29.847   2.000  1.00  0.00     0.050 A 
ENDROOT
BRANCH   9  11
HETATM   11  C   UNL     1      42.649 -30.587   2.071  1.00  0.00     0.026 A 
HETATM   12  C   UNL     1      41.964 -31.714   1.585  1.00  0.00     0.083 A 
HETATM   13  C   UNL     1      40.892 -32.283   2.288  1.00  0.00     0.074 A 
HETATM   14  C   UNL     1      40.457 -31.709   3.480  1.00  0.00     0.070 A 
HETATM   15  C   UNL     1      41.110 -30.575   3.966  1.00  0.00     0.038 A 
HETATM   16  C   UNL     1      42.193 -30.022   3.274  1.00  0.00     0.019 A 
BRANCH  12  17
HETATM   17  O   UNL     1      42.403 -32.345   0.445  1.00  0.00    -0.355 OA
HETATM   18  C   UNL     1      41.836 -33.653   0.356  1.00  0.00     0.210 C 
ENDBRANCH  12  17
BRANCH  14  19
HETATM   19  O   UNL     1      39.427 -32.154   4.261  1.00  0.00    -0.356 OA
HETATM   20  C   UNL     1      38.701 -33.281   3.786  1.00  0.00     0.210 C 
ENDBRANCH  14  19
ENDBRANCH   9  11
BRANCH   1  21
HETATM   21  C   UNL     1      47.366 -29.089   1.981  1.00  0.00     0.253 C 
HETATM   22  N   UNL     1      48.095 -30.252   2.130  1.00  0.00    -0.349 N 
HETATM   23  H   UNL     1      47.627 -31.122   1.911  1.00  0.00     0.163 HD
HETATM   24  O   UNL     1      47.713 -27.985   2.379  1.00  0.00    -0.268 OA
BRANCH  22  25
HETATM   25  C   UNL     1      49.383 -30.348   2.834  1.00  0.00     0.022 C 
HETATM   26  C   UNL     1      49.393 -29.441   4.075  1.00  0.00     0.037 C 
HETATM   27  C   UNL     1      50.554 -29.988   1.905  1.00  0.00     0.037 C 
HETATM   28  C   UNL     1      49.566 -31.807   3.290  1.00  0.00     0.037 C 
ENDBRANCH  22  25
ENDBRANCH   1  21
TORSDOF 5
ENDMDL
MODEL 8
REMARK VINA RESULT:      -7.0      4.452      6.458
REMARK  5 active torsions:
REMARK  status: ('A' for Active; 'I' for Inactive)
REMARK    1  A    between atoms: C_2  and  N_3 
REMARK       I    between atoms: N_3  and  C_4 
REMARK    2  A    between atoms: C_4  and  C_5 
REMARK    3  A    between atoms: C_13  and  C_14 
REMARK    4  A    between atoms: C_15  and  O_16 
REMARK    5  A    between atoms: C_19  and  O_20 
ROOT
HETATM    1  C   UNL     1      40.491 -12.156   0.224  1.00  0.00     0.046 A 
HETATM    2  C   UNL     1      39.758 -12.725  -0.841  1.00  0.00     0.008 A 
HETATM    3  C   UNL     1      39.734 -14.132  -0.893  1.00  0.00     0.068 A 
HETATM    4  C   UNL     1      39.026 -14.753  -1.913  1.00  0.00     0.032 A 
HETATM    5  C   UNL     1      38.335 -14.028  -2.885  1.00  0.00     0.002 A 
HETATM    6  C   UNL     1      38.346 -12.642  -2.842  1.00  0.00     0.001 A 
HETATM    7  C   UNL     1      39.048 -11.993  -1.827  1.00  0.00     0.015 A 
HETATM    8  N   UNL     1      40.360 -14.911   0.005  1.00  0.00    -0.247 NA
HETATM    9  C   UNL     1      41.083 -14.336   0.995  1.00  0.00     0.071 A 
HETATM   10  C   UNL     1      41.167 -12.963   1.141  1.00  0.00     0.050 A 
ENDROOT
BRANCH   9  11
HETATM   11  C   UNL     1      41.740 -15.252   1.934  1.00  0.00     0.026 A 
HETATM   12  C   UNL     1      41.342 -15.369   3.277  1.00  0.00     0.083 A 
HETATM   13  C   UNL     1      41.951 -16.283   4.149  1.00  0.00     0.074 A 
HETATM   14  C   UNL     1      43.004 -17.077   3.701  1.00  0.00     0.070 A 
HETATM   15  C   UNL     1      43.429 -16.958   2.376  1.00  0.00     0.038 A 
HETATM   16  C   UNL     1      42.805 -16.061   1.503  1.00  0.00     0.019 A 
BRANCH  12  17
HETATM   17  O   UNL     1      40.266 -14.647   3.738  1.00  0.00    -0.355 OA
HETATM   18  C   UNL     1      40.638 -13.891   4.891  1.00  0.00     0.210 C 
ENDBRANCH  12  17
BRANCH  14  19
HETATM   19  O   UNL     1      43.689 -18.000   4.440  1.00  0.00    -0.356 OA
HETATM   20  C   UNL     1      44.196 -19.132   3.745  1.00  0.00     0.210 C 
ENDBRANCH  14  19
ENDBRANCH   9  11
BRANCH   1  21
HETATM   21  C   UNL     1      40.587 -10.686   0.411  1.00  0.00     0.253 C 
HETATM   22  N   UNL     1      39.528 -10.125   1.095  1.00  0.00    -0.349 N 
HETATM   23  H   UNL     1      38.720 -10.712   1.258  1.00  0.00     0.163 HD
HETATM   24  O   UNL     1      41.546 -10.067  -0.030  1.00  0.00    -0.268 OA
BRANCH  22  25
HETATM   25  C   UNL     1      39.367  -8.686   1.358  1.00  0.00     0.022 C 
HETATM   26  C   UNL     1      39.339  -7.894   0.041  1.00  0.00     0.037 C 
HETATM   27  C   UNL     1      40.486  -8.158   2.269  1.00  0.00     0.037 C 
HETATM   28  C   UNL     1      38.024  -8.483   2.082  1.00  0.00     0.037 C 
ENDBRANCH  22  25
ENDBRANCH   1  21
TORSDOF 5
ENDMDL
MODEL 9
REMARK VINA RESULT:      -7.0      2.220      4.798
REMARK  5 active torsions:
REMARK  status: ('A' for Active; 'I' for Inactive)
REMARK    1  A    between atoms: C_2  and  N_3 
REMARK       I    between atoms: N_3  and  C_4 
REMARK    2  A    between atoms: C_4  and  C_5 
REMARK    3  A    between atoms: C_13  and  C_14 
REMARK    4  A    between atoms: C_15  and  O_16 
REMARK    5  A    between atoms: C_19  and  O_20 
ROOT
HETATM    1  C   UNL     1      41.262 -12.658   4.880  1.00  0.00     0.046 A 
HETATM    2  C   UNL     1      42.116 -11.995   5.789  1.00  0.00     0.008 A 
HETATM    3  C   UNL     1      43.252 -12.714   6.210  1.00  0.00     0.068 A 
HETATM    4  C   UNL     1      44.134 -12.115   7.098  1.00  0.00     0.032 A 
HETATM    5  C   UNL     1      43.933 -10.822   7.585  1.00  0.00     0.002 A 
HETATM    6  C   UNL     1      42.823 -10.101   7.174  1.00  0.00     0.001 A 
HETATM    7  C   UNL     1      41.922 -10.679   6.281  1.00  0.00     0.015 A 
HETATM    8  N   UNL     1      43.531 -13.958   5.785  1.00  0.00    -0.247 NA
HETATM    9  C   UNL     1      42.675 -14.581   4.940  1.00  0.00     0.071 A 
HETATM   10  C   UNL     1      41.535 -13.962   4.462  1.00  0.00     0.050 A 
ENDROOT
BRANCH   9  11
HETATM   11  C   UNL     1      43.047 -15.938   4.526  1.00  0.00     0.026 A 
HETATM   12  C   UNL     1      43.166 -16.999   5.439  1.00  0.00     0.083 A 
HETATM   13  C   UNL     1      43.478 -18.301   5.020  1.00  0.00     0.074 A 
HETATM   14  C   UNL     1      43.717 -18.560   3.673  1.00  0.00     0.070 A 
HETATM   15  C   UNL     1      43.627 -17.514   2.753  1.00  0.00     0.038 A 
HETATM   16  C   UNL     1      43.294 -16.221   3.171  1.00  0.00     0.019 A 
BRANCH  12  17
HETATM   17  O   UNL     1      42.877 -16.796   6.768  1.00  0.00    -0.355 OA
HETATM   18  C   UNL     1      44.047 -16.991   7.563  1.00  0.00     0.210 C 
ENDBRANCH  12  17
BRANCH  14  19
HETATM   19  O   UNL     1      44.034 -19.773   3.129  1.00  0.00    -0.356 OA
HETATM   20  C   UNL     1      43.304 -20.170   1.974  1.00  0.00     0.210 C 
ENDBRANCH  14  19
ENDBRANCH   9  11
BRANCH   1  21
HETATM   21  C   UNL     1      40.038 -12.012   4.341  1.00  0.00     0.253 C 
HETATM   22  N   UNL     1      40.223 -11.340   3.150  1.00  0.00    -0.349 N 
HETATM   23  H   UNL     1      41.177 -11.202   2.840  1.00  0.00     0.163 HD
HETATM   24  O   UNL     1      38.978 -12.094   4.945  1.00  0.00    -0.268 OA
BRANCH  22  25
HETATM   25  C   UNL     1      39.179 -10.576   2.448  1.00  0.00     0.022 C 
HETATM   26  C   UNL     1      38.546  -9.535   3.384  1.00  0.00     0.037 C 
HETATM   27  C   UNL     1      38.096 -11.508   1.881  1.00  0.00     0.037 C 
HETATM   28  C   UNL     1      39.842  -9.840   1.270  1.00  0.00     0.037 C 
ENDBRANCH  22  25
ENDBRANCH   1  21
TORSDOF 5
ENDMDL
MODEL 10
REMARK VINA RESULT:      -6.9      4.998      9.521
REMARK  5 active torsions:
REMARK  status: ('A' for Active; 'I' for Inactive)
REMARK    1  A    between atoms: C_2  and  N_3 
REMARK       I    between atoms: N_3  and  C_4 
REMARK    2  A    between atoms: C_4  and  C_5 
REMARK    3  A    between atoms: C_13  and  C_14 
REMARK    4  A    between atoms: C_15  and  O_16 
REMARK    5  A    between atoms: C_19  and  O_20 
ROOT
HETATM    1  C   UNL     1      42.235  -9.650   8.473  1.00  0.00     0.046 A 
HETATM    2  C   UNL     1      43.569 -10.029   8.203  1.00  0.00     0.008 A 
HETATM    3  C   UNL     1      44.457  -9.991   9.297  1.00  0.00     0.068 A 
HETATM    4  C   UNL     1      45.781 -10.357   9.099  1.00  0.00     0.032 A 
HETATM    5  C   UNL     1      46.260 -10.764   7.852  1.00  0.00     0.002 A 
HETATM    6  C   UNL     1      45.395 -10.813   6.769  1.00  0.00     0.001 A 
HETATM    7  C   UNL     1      44.060 -10.451   6.941  1.00  0.00     0.015 A 
HETATM    8  N   UNL     1      44.082  -9.622  10.533  1.00  0.00    -0.247 NA
HETATM    9  C   UNL     1      42.804  -9.232  10.753  1.00  0.00     0.071 A 
HETATM   10  C   UNL     1      41.852  -9.239   9.750  1.00  0.00     0.050 A 
ENDROOT
BRANCH   9  11
HETATM   11  C   UNL     1      42.473  -8.841  12.128  1.00  0.00     0.026 A 
HETATM   12  C   UNL     1      41.411  -9.422  12.842  1.00  0.00     0.083 A 
HETATM   13  C   UNL     1      41.137  -9.068  14.171  1.00  0.00     0.074 A 
HETATM   14  C   UNL     1      41.902  -8.092  14.804  1.00  0.00     0.070 A 
HETATM   15  C   UNL     1      42.947  -7.487  14.103  1.00  0.00     0.038 A 
HETATM   16  C   UNL     1      43.232  -7.857  12.785  1.00  0.00     0.019 A 
BRANCH  12  17
HETATM   17  O   UNL     1      40.673 -10.432  12.272  1.00  0.00    -0.355 OA
HETATM   18  C   UNL     1      39.444 -10.605  12.978  1.00  0.00     0.210 C 
ENDBRANCH  12  17
BRANCH  14  19
HETATM   19  O   UNL     1      41.743  -7.649  16.087  1.00  0.00    -0.356 OA
HETATM   20  C   UNL     1      41.902  -6.254  16.310  1.00  0.00     0.210 C 
ENDBRANCH  14  19
ENDBRANCH   9  11
BRANCH   1  21
HETATM   21  C   UNL     1      41.190  -9.660   7.418  1.00  0.00     0.253 C 
HETATM   22  N   UNL     1      40.816 -10.920   6.994  1.00  0.00    -0.349 N 
HETATM   23  H   UNL     1      41.383 -11.699   7.303  1.00  0.00     0.163 HD
HETATM   24  O   UNL     1      40.734  -8.609   6.988  1.00  0.00    -0.268 OA
BRANCH  22  25
HETATM   25  C   UNL     1      39.842 -11.189   5.924  1.00  0.00     0.022 C 
HETATM   26  C   UNL     1      40.325 -10.599   4.590  1.00  0.00     0.037 C 
HETATM   27  C   UNL     1      38.455 -10.629   6.281  1.00  0.00     0.037 C 
HETATM   28  C   UNL     1      39.717 -12.716   5.771  1.00  0.00     0.037 C 
ENDBRANCH  22  25
ENDBRANCH   1  21
TORSDOF 5
ENDMDL
