MODEL 1
REMARK VINA RESULT:      -8.6      0.000      0.000
REMARK  2 active torsions:
REMARK  status: ('A' for Active; 'I' for Inactive)
REMARK       I    between atoms: C_2  and  N_3 
REMARK    1  A    between atoms: N_3  and  C_4 
REMARK    2  A    between atoms: C_13  and  N_14 
REMARK       I    between atoms: N_14  and  C_15 
ROOT
HETATM    1  C   UNL     1      42.315 -14.938   1.966  1.00  0.00     0.035 A 
HETATM    2  C   UNL     1      42.874 -16.140   1.536  1.00  0.00     0.038 A 
HETATM    3  C   UNL     1      43.128 -17.131   2.479  1.00  0.00    -0.041 A 
HETATM    4  C   UNL     1      42.861 -16.963   3.855  1.00  0.00    -0.016 A 
HETATM    5  C   UNL     1      43.258 -18.180   4.566  1.00  0.00     0.008 A 
HETATM    6  C   UNL     1      43.693 -19.117   3.592  1.00  0.00    -0.041 A 
HETATM    7  C   UNL     1      44.090 -20.402   3.921  1.00  0.00     0.008 A 
HETATM    8  C   UNL     1      44.069 -20.762   5.261  1.00  0.00     0.003 A 
HETATM    9  C   UNL     1      43.677 -19.839   6.248  1.00  0.00     0.030 A 
HETATM   10  C   UNL     1      43.269 -18.535   5.922  1.00  0.00     0.046 A 
HETATM   11  C   UNL     1      43.674 -18.512   2.206  1.00  0.00     0.079 A 
HETATM   12  C   UNL     1      42.261 -15.786   4.273  1.00  0.00     0.015 A 
HETATM   13  C   UNL     1      42.000 -14.778   3.329  1.00  0.00     0.030 A 
ENDROOT
BRANCH   1  14
HETATM   14  N   UNL     1      42.025 -13.856   1.110  1.00  0.00    -0.328 N 
HETATM   15  C   UNL     1      40.865 -13.642   0.386  1.00  0.00     0.218 C 
HETATM   16  C   UNL     1      40.923 -12.383  -0.444  1.00  0.00     0.117 C 
HETATM   17  O   UNL     1      39.876 -14.366   0.350  1.00  0.00    -0.274 OA
HETATM   18  H   UNL     1      42.763 -13.171   1.000  1.00  0.00     0.169 HD
ENDBRANCH   1  14
BRANCH  10  19
HETATM   19  N   UNL     1      42.987 -17.562   6.897  1.00  0.00    -0.327 N 
HETATM   20  C   UNL     1      43.610 -16.417   7.290  1.00  0.00     0.218 C 
HETATM   21  C   UNL     1      45.004 -16.088   6.842  1.00  0.00     0.117 C 
HETATM   22  O   UNL     1      43.015 -15.669   8.071  1.00  0.00    -0.274 OA
HETATM   23  H   UNL     1      42.108 -17.676   7.384  1.00  0.00     0.169 HD
ENDBRANCH  10  19
TORSDOF 2
ENDMDL
MODEL 2
REMARK VINA RESULT:      -8.5      2.807      5.536
REMARK  2 active torsions:
REMARK  status: ('A' for Active; 'I' for Inactive)
REMARK       I    between atoms: C_2  and  N_3 
REMARK    1  A    between atoms: N_3  and  C_4 
REMARK    2  A    between atoms: C_13  and  N_14 
REMARK       I    between atoms: N_14  and  C_15 
ROOT
HETATM    1  C   UNL     1      43.302 -13.209   6.527  1.00  0.00     0.035 A 
HETATM    2  C   UNL     1      43.579 -14.527   6.884  1.00  0.00     0.038 A 
HETATM    3  C   UNL     1      43.556 -15.504   5.894  1.00  0.00    -0.041 A 
HETATM    4  C   UNL     1      43.245 -15.218   4.547  1.00  0.00    -0.016 A 
HETATM    5  C   UNL     1      43.292 -16.463   3.776  1.00  0.00     0.008 A 
HETATM    6  C   UNL     1      43.715 -17.492   4.659  1.00  0.00    -0.041 A 
HETATM    7  C   UNL     1      43.919 -18.796   4.239  1.00  0.00     0.008 A 
HETATM    8  C   UNL     1      43.680 -19.089   2.903  1.00  0.00     0.003 A 
HETATM    9  C   UNL     1      43.224 -18.094   2.018  1.00  0.00     0.030 A 
HETATM   10  C   UNL     1      43.019 -16.770   2.436  1.00  0.00     0.046 A 
HETATM   11  C   UNL     1      43.881 -16.968   6.068  1.00  0.00     0.079 A 
HETATM   12  C   UNL     1      43.016 -13.900   4.185  1.00  0.00     0.015 A 
HETATM   13  C   UNL     1      43.037 -12.905   5.178  1.00  0.00     0.030 A 
ENDROOT
BRANCH   1  14
HETATM   14  N   UNL     1      43.281 -12.135   7.441  1.00  0.00    -0.328 N 
HETATM   15  C   UNL     1      44.333 -11.306   7.790  1.00  0.00     0.218 C 
HETATM   16  C   UNL     1      43.943 -10.279   8.824  1.00  0.00     0.117 C 
HETATM   17  O   UNL     1      45.485 -11.363   7.373  1.00  0.00    -0.274 OA
HETATM   18  H   UNL     1      42.398 -11.971   7.908  1.00  0.00     0.169 HD
ENDBRANCH   1  14
BRANCH  10  19
HETATM   19  N   UNL     1      42.454 -15.790   1.600  1.00  0.00    -0.327 N 
HETATM   20  C   UNL     1      41.205 -15.261   1.484  1.00  0.00     0.218 C 
HETATM   21  C   UNL     1      40.021 -15.886   2.162  1.00  0.00     0.117 C 
HETATM   22  O   UNL     1      41.056 -14.272   0.760  1.00  0.00    -0.274 OA
HETATM   23  H   UNL     1      43.102 -15.314   0.988  1.00  0.00     0.169 HD
ENDBRANCH  10  19
TORSDOF 2
ENDMDL
MODEL 3
REMARK VINA RESULT:      -8.0      2.428      3.280
REMARK  2 active torsions:
REMARK  status: ('A' for Active; 'I' for Inactive)
REMARK       I    between atoms: C_2  and  N_3 
REMARK    1  A    between atoms: N_3  and  C_4 
REMARK    2  A    between atoms: C_13  and  N_14 
REMARK       I    between atoms: N_14  and  C_15 
ROOT
HETATM    1  C   UNL     1      40.335 -15.125   1.249  1.00  0.00     0.035 A 
HETATM    2  C   UNL     1      41.379 -16.026   1.445  1.00  0.00     0.038 A 
HETATM    3  C   UNL     1      42.048 -16.016   2.665  1.00  0.00    -0.041 A 
HETATM    4  C   UNL     1      41.725 -15.118   3.705  1.00  0.00    -0.016 A 
HETATM    5  C   UNL     1      42.624 -15.360   4.836  1.00  0.00     0.008 A 
HETATM    6  C   UNL     1      43.442 -16.471   4.496  1.00  0.00    -0.041 A 
HETATM    7  C   UNL     1      44.375 -17.003   5.370  1.00  0.00     0.008 A 
HETATM    8  C   UNL     1      44.510 -16.403   6.615  1.00  0.00     0.003 A 
HETATM    9  C   UNL     1      43.737 -15.279   6.960  1.00  0.00     0.030 A 
HETATM   10  C   UNL     1      42.786 -14.736   6.080  1.00  0.00     0.046 A 
HETATM   11  C   UNL     1      43.160 -16.945   3.087  1.00  0.00     0.079 A 
HETATM   12  C   UNL     1      40.656 -14.255   3.526  1.00  0.00     0.015 A 
HETATM   13  C   UNL     1      39.973 -14.257   2.298  1.00  0.00     0.030 A 
ENDROOT
BRANCH   1  14
HETATM   14  N   UNL     1      39.593 -15.029   0.054  1.00  0.00    -0.328 N 
HETATM   15  C   UNL     1      39.754 -14.108  -0.966  1.00  0.00     0.218 C 
HETATM   16  C   UNL     1      38.757 -14.298  -2.082  1.00  0.00     0.117 C 
HETATM   17  O   UNL     1      40.571 -13.194  -1.011  1.00  0.00    -0.274 OA
HETATM   18  H   UNL     1      38.843 -15.701  -0.054  1.00  0.00     0.169 HD
ENDBRANCH   1  14
BRANCH  10  19
HETATM   19  N   UNL     1      42.090 -13.547   6.357  1.00  0.00    -0.327 N 
HETATM   20  C   UNL     1      42.301 -12.239   6.044  1.00  0.00     0.218 C 
HETATM   21  C   UNL     1      43.608 -11.769   5.475  1.00  0.00     0.117 C 
HETATM   22  O   UNL     1      41.402 -11.429   6.286  1.00  0.00    -0.274 OA
HETATM   23  H   UNL     1      41.206 -13.662   6.833  1.00  0.00     0.169 HD
ENDBRANCH  10  19
TORSDOF 2
ENDMDL
MODEL 4
REMARK VINA RESULT:      -7.8      3.278      6.389
REMARK  2 active torsions:
REMARK  status: ('A' for Active; 'I' for Inactive)
REMARK       I    between atoms: C_2  and  N_3 
REMARK    1  A    between atoms: N_3  and  C_4 
REMARK    2  A    between atoms: C_13  and  N_14 
REMARK       I    between atoms: N_14  and  C_15 
ROOT
HETATM    1  C   UNL     1      43.578 -17.153   5.476  1.00  0.00     0.035 A 
HETATM    2  C   UNL     1      43.076 -16.594   4.302  1.00  0.00     0.038 A 
HETATM    3  C   UNL     1      42.910 -15.215   4.238  1.00  0.00    -0.041 A 
HETATM    4  C   UNL     1      43.213 -14.358   5.319  1.00  0.00    -0.016 A 
HETATM    5  C   UNL     1      42.910 -12.979   4.929  1.00  0.00     0.008 A 
HETATM    6  C   UNL     1      42.497 -13.004   3.570  1.00  0.00    -0.041 A 
HETATM    7  C   UNL     1      42.187 -11.853   2.866  1.00  0.00     0.008 A 
HETATM    8  C   UNL     1      42.273 -10.641   3.538  1.00  0.00     0.003 A 
HETATM    9  C   UNL     1      42.644 -10.595   4.895  1.00  0.00     0.030 A 
HETATM   10  C   UNL     1      42.965 -11.758   5.614  1.00  0.00     0.046 A 
HETATM   11  C   UNL     1      42.436 -14.421   3.045  1.00  0.00     0.079 A 
HETATM   12  C   UNL     1      43.757 -14.910   6.468  1.00  0.00     0.015 A 
HETATM   13  C   UNL     1      43.928 -16.303   6.543  1.00  0.00     0.030 A 
ENDROOT
BRANCH   1  14
HETATM   14  N   UNL     1      43.777 -18.536   5.666  1.00  0.00    -0.328 N 
HETATM   15  C   UNL     1      44.144 -19.472   4.716  1.00  0.00     0.218 C 
HETATM   16  C   UNL     1      44.237 -20.867   5.282  1.00  0.00     0.117 C 
HETATM   17  O   UNL     1      44.355 -19.269   3.525  1.00  0.00    -0.274 OA
HETATM   18  H   UNL     1      43.608 -18.880   6.603  1.00  0.00     0.169 HD
ENDBRANCH   1  14
BRANCH  10  19
HETATM   19  N   UNL     1      43.222 -11.747   6.996  1.00  0.00    -0.327 N 
HETATM   20  C   UNL     1      44.305 -11.406   7.749  1.00  0.00     0.218 C 
HETATM   21  C   UNL     1      45.651 -11.175   7.128  1.00  0.00     0.117 C 
HETATM   22  O   UNL     1      44.164 -11.337   8.973  1.00  0.00    -0.274 OA
HETATM   23  H   UNL     1      42.434 -11.976   7.587  1.00  0.00     0.169 HD
ENDBRANCH  10  19
TORSDOF 2
ENDMDL
MODEL 5
REMARK VINA RESULT:      -7.6      3.159      6.361
REMARK  2 active torsions:
REMARK  status: ('A' for Active; 'I' for Inactive)
REMARK       I    between atoms: C_2  and  N_3 
REMARK    1  A    between atoms: N_3  and  C_4 
REMARK    2  A    between atoms: C_13  and  N_14 
REMARK       I    between atoms: N_14  and  C_15 
ROOT
HETATM    1  C   UNL     1      43.393 -17.348   4.744  1.00  0.00     0.035 A 
HETATM    2  C   UNL     1      42.312 -16.887   3.995  1.00  0.00     0.038 A 
HETATM    3  C   UNL     1      41.875 -15.581   4.191  1.00  0.00    -0.041 A 
HETATM    4  C   UNL     1      42.470 -14.709   5.129  1.00  0.00    -0.016 A 
HETATM    5  C   UNL     1      41.764 -13.426   5.096  1.00  0.00     0.008 A 
HETATM    6  C   UNL     1      40.787 -13.506   4.068  1.00  0.00    -0.041 A 
HETATM    7  C   UNL     1      39.974 -12.438   3.729  1.00  0.00     0.008 A 
HETATM    8  C   UNL     1      40.125 -11.258   4.446  1.00  0.00     0.003 A 
HETATM    9  C   UNL     1      41.061 -11.167   5.493  1.00  0.00     0.030 A 
HETATM   10  C   UNL     1      41.892 -12.245   5.839  1.00  0.00     0.046 A 
HETATM   11  C   UNL     1      40.765 -14.884   3.443  1.00  0.00     0.079 A 
HETATM   12  C   UNL     1      43.574 -15.154   5.838  1.00  0.00     0.015 A 
HETATM   13  C   UNL     1      44.024 -16.471   5.648  1.00  0.00     0.030 A 
ENDROOT
BRANCH   1  14
HETATM   14  N   UNL     1      43.918 -18.653   4.645  1.00  0.00    -0.328 N 
HETATM   15  C   UNL     1      43.828 -19.669   5.581  1.00  0.00     0.218 C 
HETATM   16  C   UNL     1      44.535 -20.927   5.140  1.00  0.00     0.117 C 
HETATM   17  O   UNL     1      43.282 -19.614   6.678  1.00  0.00    -0.274 OA
HETATM   18  H   UNL     1      44.437 -18.857   3.800  1.00  0.00     0.169 HD
ENDBRANCH   1  14
BRANCH  10  19
HETATM   19  N   UNL     1      42.747 -12.215   6.955  1.00  0.00    -0.327 N 
HETATM   20  C   UNL     1      44.022 -11.779   7.151  1.00  0.00     0.218 C 
HETATM   21  C   UNL     1      44.916 -11.425   5.999  1.00  0.00     0.117 C 
HETATM   22  O   UNL     1      44.448 -11.726   8.308  1.00  0.00    -0.274 OA
HETATM   23  H   UNL     1      42.334 -12.516   7.827  1.00  0.00     0.169 HD
ENDBRANCH  10  19
TORSDOF 2
ENDMDL
MODEL 6
REMARK VINA RESULT:      -7.5      3.351      5.584
REMARK  2 active torsions:
REMARK  status: ('A' for Active; 'I' for Inactive)
REMARK       I    between atoms: C_2  and  N_3 
REMARK    1  A    between atoms: N_3  and  C_4 
REMARK    2  A    between atoms: C_13  and  N_14 
REMARK       I    between atoms: N_14  and  C_15 
ROOT
HETATM    1  C   UNL     1      42.714 -11.612   5.488  1.00  0.00     0.035 A 
HETATM    2  C   UNL     1      43.046 -12.798   6.141  1.00  0.00     0.038 A 
HETATM    3  C   UNL     1      43.135 -13.968   5.394  1.00  0.00    -0.041 A 
HETATM    4  C   UNL     1      42.884 -14.007   4.005  1.00  0.00    -0.016 A 
HETATM    5  C   UNL     1      43.046 -15.385   3.534  1.00  0.00     0.008 A 
HETATM    6  C   UNL     1      43.476 -16.163   4.641  1.00  0.00    -0.041 A 
HETATM    7  C   UNL     1      43.778 -17.510   4.531  1.00  0.00     0.008 A 
HETATM    8  C   UNL     1      43.631 -18.106   3.286  1.00  0.00     0.003 A 
HETATM    9  C   UNL     1      43.171 -17.363   2.182  1.00  0.00     0.030 A 
HETATM   10  C   UNL     1      42.867 -15.996   2.285  1.00  0.00     0.046 A 
HETATM   11  C   UNL     1      43.533 -15.332   5.903  1.00  0.00     0.079 A 
HETATM   12  C   UNL     1      42.601 -12.819   3.350  1.00  0.00     0.015 A 
HETATM   13  C   UNL     1      42.509 -11.632   4.095  1.00  0.00     0.030 A 
ENDROOT
BRANCH   1  14
HETATM   14  N   UNL     1      42.581 -10.368   6.138  1.00  0.00    -0.328 N 
HETATM   15  C   UNL     1      41.473  -9.886   6.814  1.00  0.00     0.218 C 
HETATM   16  C   UNL     1      41.688  -8.497   7.363  1.00  0.00     0.117 C 
HETATM   17  O   UNL     1      40.396 -10.453   6.961  1.00  0.00    -0.274 OA
HETATM   18  H   UNL     1      43.383  -9.753   6.082  1.00  0.00     0.169 HD
ENDBRANCH   1  14
BRANCH  10  19
HETATM   19  N   UNL     1      42.295 -15.265   1.229  1.00  0.00    -0.327 N 
HETATM   20  C   UNL     1      41.012 -14.990   0.862  1.00  0.00     0.218 C 
HETATM   21  C   UNL     1      39.848 -15.712   1.476  1.00  0.00     0.117 C 
HETATM   22  O   UNL     1      40.828 -14.160  -0.031  1.00  0.00    -0.274 OA
HETATM   23  H   UNL     1      42.949 -14.774   0.636  1.00  0.00     0.169 HD
ENDBRANCH  10  19
TORSDOF 2
ENDMDL
MODEL 7
REMARK VINA RESULT:      -7.4     12.952     14.779
REMARK  2 active torsions:
REMARK  status: ('A' for Active; 'I' for Inactive)
REMARK       I    between atoms: C_2  and  N_3 
REMARK    1  A    between atoms: N_3  and  C_4 
REMARK    2  A    between atoms: C_13  and  N_14 
REMARK       I    between atoms: N_14  and  C_15 
ROOT
HETATM    1  C   UNL     1      44.755 -29.824  -4.521  1.00  0.00     0.035 A 
HETATM    2  C   UNL     1      46.048 -29.538  -4.086  1.00  0.00     0.038 A 
HETATM    3  C   UNL     1      46.258 -29.301  -2.732  1.00  0.00    -0.041 A 
HETATM    4  C   UNL     1      45.214 -29.320  -1.782  1.00  0.00    -0.016 A 
HETATM    5  C   UNL     1      45.769 -29.016  -0.461  1.00  0.00     0.008 A 
HETATM    6  C   UNL     1      47.176 -28.893  -0.612  1.00  0.00    -0.041 A 
HETATM    7  C   UNL     1      48.022 -28.660   0.460  1.00  0.00     0.008 A 
HETATM    8  C   UNL     1      47.449 -28.529   1.718  1.00  0.00     0.003 A 
HETATM    9  C   UNL     1      46.054 -28.610   1.886  1.00  0.00     0.030 A 
HETATM   10  C   UNL     1      45.191 -28.851   0.805  1.00  0.00     0.046 A 
HETATM   11  C   UNL     1      47.584 -29.032  -2.062  1.00  0.00     0.079 A 
HETATM   12  C   UNL     1      43.938 -29.651  -2.209  1.00  0.00     0.015 A 
HETATM   13  C   UNL     1      43.714 -29.893  -3.575  1.00  0.00     0.030 A 
ENDROOT
BRANCH   1  14
HETATM   14  N   UNL     1      44.415 -30.067  -5.867  1.00  0.00    -0.328 N 
HETATM   15  C   UNL     1      44.229 -31.294  -6.480  1.00  0.00     0.218 C 
HETATM   16  C   UNL     1      43.895 -31.166  -7.946  1.00  0.00     0.117 C 
HETATM   17  O   UNL     1      44.338 -32.401  -5.961  1.00  0.00    -0.274 OA
HETATM   18  H   UNL     1      44.318 -29.247  -6.452  1.00  0.00     0.169 HD
ENDBRANCH   1  14
BRANCH  10  19
HETATM   19  N   UNL     1      43.791 -28.818   0.930  1.00  0.00    -0.327 N 
HETATM   20  C   UNL     1      42.848 -29.764   1.194  1.00  0.00     0.218 C 
HETATM   21  C   UNL     1      43.175 -31.229   1.160  1.00  0.00     0.117 C 
HETATM   22  O   UNL     1      41.694 -29.389   1.417  1.00  0.00    -0.274 OA
HETATM   23  H   UNL     1      43.372 -27.899   0.883  1.00  0.00     0.169 HD
ENDBRANCH  10  19
TORSDOF 2
ENDMDL
MODEL 8
REMARK VINA RESULT:      -7.2      2.689      6.789
REMARK  2 active torsions:
REMARK  status: ('A' for Active; 'I' for Inactive)
REMARK       I    between atoms: C_2  and  N_3 
REMARK    1  A    between atoms: N_3  and  C_4 
REMARK    2  A    between atoms: C_13  and  N_14 
REMARK       I    between atoms: N_14  and  C_15 
ROOT
HETATM    1  C   UNL     1      42.723 -16.746   3.546  1.00  0.00     0.035 A 
HETATM    2  C   UNL     1      41.690 -16.830   2.614  1.00  0.00     0.038 A 
HETATM    3  C   UNL     1      41.293 -15.672   1.954  1.00  0.00    -0.041 A 
HETATM    4  C   UNL     1      41.879 -14.412   2.202  1.00  0.00    -0.016 A 
HETATM    5  C   UNL     1      41.222 -13.409   1.360  1.00  0.00     0.008 A 
HETATM    6  C   UNL     1      40.285 -14.094   0.540  1.00  0.00    -0.041 A 
HETATM    7  C   UNL     1      39.525 -13.448  -0.420  1.00  0.00     0.008 A 
HETATM    8  C   UNL     1      39.688 -12.076  -0.558  1.00  0.00     0.003 A 
HETATM    9  C   UNL     1      40.584 -11.371   0.268  1.00  0.00     0.030 A 
HETATM   10  C   UNL     1      41.361 -12.020   1.240  1.00  0.00     0.046 A 
HETATM   11  C   UNL     1      40.238 -15.568   0.879  1.00  0.00     0.079 A 
HETATM   12  C   UNL     1      42.938 -14.339   3.093  1.00  0.00     0.015 A 
HETATM   13  C   UNL     1      43.348 -15.503   3.766  1.00  0.00     0.030 A 
ENDROOT
BRANCH   1  14
HETATM   14  N   UNL     1      43.205 -17.844   4.287  1.00  0.00    -0.328 N 
HETATM   15  C   UNL     1      43.968 -18.902   3.825  1.00  0.00     0.218 C 
HETATM   16  C   UNL     1      44.276 -19.910   4.905  1.00  0.00     0.117 C 
HETATM   17  O   UNL     1      44.357 -19.083   2.676  1.00  0.00    -0.274 OA
HETATM   18  H   UNL     1      42.939 -17.866   5.264  1.00  0.00     0.169 HD
ENDBRANCH   1  14
BRANCH  10  19
HETATM   19  N   UNL     1      42.171 -11.322   2.153  1.00  0.00    -0.327 N 
HETATM   20  C   UNL     1      41.984 -10.874   3.425  1.00  0.00     0.218 C 
HETATM   21  C   UNL     1      40.622 -10.847   4.055  1.00  0.00     0.117 C 
HETATM   22  O   UNL     1      42.962 -10.439   4.039  1.00  0.00    -0.274 OA
HETATM   23  H   UNL     1      43.123 -11.160   1.854  1.00  0.00     0.169 HD
ENDBRANCH  10  19
TORSDOF 2
ENDMDL
MODEL 9
REMARK VINA RESULT:      -7.1      2.524      6.320
REMARK  2 active torsions:
REMARK  status: ('A' for Active; 'I' for Inactive)
REMARK       I    between atoms: C_2  and  N_3 
REMARK    1  A    between atoms: N_3  and  C_4 
REMARK    2  A    between atoms: C_13  and  N_14 
REMARK       I    between atoms: N_14  and  C_15 
ROOT
HETATM    1  C   UNL     1      43.187 -17.553   3.661  1.00  0.00     0.035 A 
HETATM    2  C   UNL     1      42.240 -17.385   2.653  1.00  0.00     0.038 A 
HETATM    3  C   UNL     1      41.677 -16.125   2.471  1.00  0.00    -0.041 A 
HETATM    4  C   UNL     1      42.012 -15.016   3.277  1.00  0.00    -0.016 A 
HETATM    5  C   UNL     1      41.233 -13.857   2.835  1.00  0.00     0.008 A 
HETATM    6  C   UNL     1      40.483 -14.260   1.698  1.00  0.00    -0.041 A 
HETATM    7  C   UNL     1      39.674 -13.386   0.992  1.00  0.00     0.008 A 
HETATM    8  C   UNL     1      39.595 -12.074   1.440  1.00  0.00     0.003 A 
HETATM    9  C   UNL     1      40.300 -11.661   2.585  1.00  0.00     0.030 A 
HETATM   10  C   UNL     1      41.126 -12.541   3.303  1.00  0.00     0.046 A 
HETATM   11  C   UNL     1      40.684 -15.731   1.405  1.00  0.00     0.079 A 
HETATM   12  C   UNL     1      42.988 -15.174   4.248  1.00  0.00     0.015 A 
HETATM   13  C   UNL     1      43.563 -16.442   4.440  1.00  0.00     0.030 A 
ENDROOT
BRANCH   1  14
HETATM   14  N   UNL     1      43.816 -18.781   3.951  1.00  0.00    -0.328 N 
HETATM   15  C   UNL     1      43.862 -19.436   5.170  1.00  0.00     0.218 C 
HETATM   16  C   UNL     1      44.650 -20.721   5.108  1.00  0.00     0.117 C 
HETATM   17  O   UNL     1      43.371 -19.058   6.228  1.00  0.00    -0.274 OA
HETATM   18  H   UNL     1      44.306 -19.218   3.181  1.00  0.00     0.169 HD
ENDBRANCH   1  14
BRANCH  10  19
HETATM   19  N   UNL     1      41.744 -12.182   4.514  1.00  0.00    -0.327 N 
HETATM   20  C   UNL     1      42.964 -11.665   4.831  1.00  0.00     0.218 C 
HETATM   21  C   UNL     1      44.075 -11.604   3.824  1.00  0.00     0.117 C 
HETATM   22  O   UNL     1      43.153 -11.289   5.991  1.00  0.00    -0.274 OA
HETATM   23  H   UNL     1      41.161 -12.252   5.337  1.00  0.00     0.169 HD
ENDBRANCH  10  19
TORSDOF 2
ENDMDL
MODEL 10
REMARK VINA RESULT:      -7.1     13.365     15.306
REMARK  2 active torsions:
REMARK  status: ('A' for Active; 'I' for Inactive)
REMARK       I    between atoms: C_2  and  N_3 
REMARK    1  A    between atoms: N_3  and  C_4 
REMARK    2  A    between atoms: C_13  and  N_14 
REMARK       I    between atoms: N_14  and  C_15 
ROOT
HETATM    1  C   UNL     1      47.399 -28.513  -1.540  1.00  0.00     0.035 A 
HETATM    2  C   UNL     1      47.076 -28.254  -0.209  1.00  0.00     0.038 A 
HETATM    3  C   UNL     1      47.868 -28.810   0.790  1.00  0.00    -0.041 A 
HETATM    4  C   UNL     1      48.975 -29.642   0.512  1.00  0.00    -0.016 A 
HETATM    5  C   UNL     1      49.575 -30.070   1.777  1.00  0.00     0.008 A 
HETATM    6  C   UNL     1      48.866 -29.421   2.823  1.00  0.00    -0.041 A 
HETATM    7  C   UNL     1      49.212 -29.563   4.156  1.00  0.00     0.008 A 
HETATM    8  C   UNL     1      50.286 -30.388   4.461  1.00  0.00     0.003 A 
HETATM    9  C   UNL     1      50.980 -31.070   3.445  1.00  0.00     0.030 A 
HETATM   10  C   UNL     1      50.638 -30.928   2.090  1.00  0.00     0.046 A 
HETATM   11  C   UNL     1      47.716 -28.604   2.277  1.00  0.00     0.079 A 
HETATM   12  C   UNL     1      49.323 -29.859  -0.812  1.00  0.00     0.015 A 
HETATM   13  C   UNL     1      48.529 -29.302  -1.829  1.00  0.00     0.030 A 
ENDROOT
BRANCH   1  14
HETATM   14  N   UNL     1      46.665 -28.018  -2.637  1.00  0.00    -0.328 N 
HETATM   15  C   UNL     1      45.428 -28.446  -3.085  1.00  0.00     0.218 C 
HETATM   16  C   UNL     1      44.962 -27.697  -4.309  1.00  0.00     0.117 C 
HETATM   17  O   UNL     1      44.745 -29.349  -2.611  1.00  0.00    -0.274 OA
HETATM   18  H   UNL     1      47.110 -27.279  -3.167  1.00  0.00     0.169 HD
ENDBRANCH   1  14
BRANCH  10  19
HETATM   19  N   UNL     1      51.239 -31.690   1.072  1.00  0.00    -0.327 N 
HETATM   20  C   UNL     1      50.963 -32.902   0.517  1.00  0.00     0.218 C 
HETATM   21  C   UNL     1      49.979 -33.847   1.143  1.00  0.00     0.117 C 
HETATM   22  O   UNL     1      51.581 -33.231  -0.499  1.00  0.00    -0.274 OA
HETATM   23  H   UNL     1      52.003 -31.240   0.587  1.00  0.00     0.169 HD
ENDBRANCH  10  19
TORSDOF 2
ENDMDL
