MODEL 1
REMARK VINA RESULT:      -8.1      0.000      0.000
REMARK  9 active torsions:
REMARK  status: ('A' for Active; 'I' for Inactive)
REMARK    1  A    between atoms: O_2  and  C_3 
REMARK    2  A    between atoms: C_5  and  O_6 
REMARK    3  A    between atoms: C_9  and  C_10 
REMARK       I    between atoms: C_10  and  N_11 
REMARK    4  A    between atoms: N_11  and  C_12 
REMARK    5  A    between atoms: C_13  and  C_14 
REMARK       I    between atoms: C_14  and  N_15 
REMARK    6  A    between atoms: N_15  and  C_16 
REMARK    7  A    between atoms: C_16  and  C_17 
REMARK    8  A    between atoms: C_17  and  O_18 
REMARK    9  A    between atoms: O_18  and  C_19 
ROOT
HETATM    1  C   UNL     1      43.410 -18.242   3.104  1.00  0.00     0.050 A 
HETATM    2  C   UNL     1      43.801 -18.535   4.425  1.00  0.00     0.058 A 
HETATM    3  C   UNL     1      44.055 -19.866   4.806  1.00  0.00     0.019 A 
HETATM    4  C   UNL     1      43.974 -20.901   3.877  1.00  0.00     0.001 A 
HETATM    5  C   UNL     1      43.654 -20.612   2.556  1.00  0.00     0.002 A 
HETATM    6  C   UNL     1      43.381 -19.296   2.172  1.00  0.00     0.030 A 
ENDROOT
BRANCH   1   7
HETATM    7  N   UNL     1      43.008 -16.978   2.592  1.00  0.00    -0.322 N 
HETATM    8  C   UNL     1      41.871 -16.285   2.975  1.00  0.00     0.256 C 
HETATM    9  O   UNL     1      41.052 -16.659   3.804  1.00  0.00    -0.267 OA
HETATM   10  H   UNL     1      43.366 -16.749   1.674  1.00  0.00     0.169 HD
BRANCH   8  11
HETATM   11  C   UNL     1      41.582 -15.023   2.228  1.00  0.00     0.037 A 
HETATM   12  C   UNL     1      40.664 -15.101   1.168  1.00  0.00     0.054 A 
HETATM   13  C   UNL     1      40.352 -13.968   0.423  1.00  0.00     0.071 A 
HETATM   14  C   UNL     1      40.978 -12.760   0.731  1.00  0.00     0.073 A 
HETATM   15  C   UNL     1      41.880 -12.662   1.795  1.00  0.00     0.071 A 
HETATM   16  C   UNL     1      42.175 -13.794   2.555  1.00  0.00     0.054 A 
BRANCH  13  17
HETATM   17  O   UNL     1      39.476 -13.919  -0.625  1.00  0.00    -0.356 OA
HETATM   18  C   UNL     1      39.036 -12.625  -1.026  1.00  0.00     0.210 C 
ENDBRANCH  13  17
BRANCH  15  19
HETATM   19  O   UNL     1      42.392 -11.408   1.984  1.00  0.00    -0.356 OA
HETATM   20  C   UNL     1      41.615 -10.306   1.536  1.00  0.00     0.210 C 
ENDBRANCH  15  19
ENDBRANCH   8  11
ENDBRANCH   1   7
BRANCH   2  21
HETATM   21  C   UNL     1      44.121 -17.530   5.469  1.00  0.00     0.253 C 
HETATM   22  N   UNL     1      43.462 -17.708   6.669  1.00  0.00    -0.355 N 
HETATM   23  H   UNL     1      42.897 -18.536   6.787  1.00  0.00     0.162 HD
HETATM   24  O   UNL     1      44.836 -16.571   5.204  1.00  0.00    -0.268 OA
BRANCH  22  25
HETATM   25  C   UNL     1      43.754 -16.902   7.840  1.00  0.00     0.149 C 
BRANCH  25  26
HETATM   26  C   UNL     1      42.962 -15.594   7.953  1.00  0.00     0.195 C 
BRANCH  26  27
HETATM   27  O   UNL     1      41.861 -15.615   7.032  1.00  0.00    -0.350 OA
BRANCH  27  28
HETATM   28  C   UNL     1      41.597 -14.387   6.481  1.00  0.00     0.068 A 
HETATM   29  C   UNL     1      40.270 -14.133   6.138  1.00  0.00     0.037 A 
HETATM   30  C   UNL     1      39.913 -12.906   5.576  1.00  0.00     0.003 A 
HETATM   31  C   UNL     1      40.882 -11.924   5.373  1.00  0.00     0.000 A 
HETATM   32  C   UNL     1      42.205 -12.166   5.740  1.00  0.00     0.003 A 
HETATM   33  C   UNL     1      42.563 -13.394   6.299  1.00  0.00     0.037 A 
ENDBRANCH  27  28
ENDBRANCH  26  27
ENDBRANCH  25  26
ENDBRANCH  22  25
ENDBRANCH   2  21
TORSDOF 9
ENDMDL
MODEL 2
REMARK VINA RESULT:      -8.0      0.192      1.850
REMARK  9 active torsions:
REMARK  status: ('A' for Active; 'I' for Inactive)
REMARK    1  A    between atoms: O_2  and  C_3 
REMARK    2  A    between atoms: C_5  and  O_6 
REMARK    3  A    between atoms: C_9  and  C_10 
REMARK       I    between atoms: C_10  and  N_11 
REMARK    4  A    between atoms: N_11  and  C_12 
REMARK    5  A    between atoms: C_13  and  C_14 
REMARK       I    between atoms: C_14  and  N_15 
REMARK    6  A    between atoms: N_15  and  C_16 
REMARK    7  A    between atoms: C_16  and  C_17 
REMARK    8  A    between atoms: C_17  and  O_18 
REMARK    9  A    between atoms: O_18  and  C_19 
ROOT
HETATM    1  C   UNL     1      43.383 -18.272   3.089  1.00  0.00     0.050 A 
HETATM    2  C   UNL     1      43.775 -18.552   4.412  1.00  0.00     0.058 A 
HETATM    3  C   UNL     1      44.050 -19.877   4.800  1.00  0.00     0.019 A 
HETATM    4  C   UNL     1      43.987 -20.918   3.877  1.00  0.00     0.001 A 
HETATM    5  C   UNL     1      43.666 -20.641   2.554  1.00  0.00     0.002 A 
HETATM    6  C   UNL     1      43.373 -19.332   2.162  1.00  0.00     0.030 A 
ENDROOT
BRANCH   1   7
HETATM    7  N   UNL     1      42.963 -17.017   2.569  1.00  0.00    -0.322 N 
HETATM    8  C   UNL     1      41.819 -16.335   2.952  1.00  0.00     0.256 C 
HETATM    9  O   UNL     1      41.010 -16.714   3.788  1.00  0.00    -0.267 OA
HETATM   10  H   UNL     1      43.314 -16.791   1.647  1.00  0.00     0.169 HD
BRANCH   8  11
HETATM   11  C   UNL     1      41.511 -15.084   2.197  1.00  0.00     0.037 A 
HETATM   12  C   UNL     1      42.210 -13.922   2.568  1.00  0.00     0.054 A 
HETATM   13  C   UNL     1      41.969 -12.718   1.915  1.00  0.00     0.071 A 
HETATM   14  C   UNL     1      41.012 -12.675   0.901  1.00  0.00     0.073 A 
HETATM   15  C   UNL     1      40.321 -13.825   0.507  1.00  0.00     0.071 A 
HETATM   16  C   UNL     1      40.580 -15.038   1.149  1.00  0.00     0.054 A 
BRANCH  13  17
HETATM   17  O   UNL     1      42.586 -11.527   2.184  1.00  0.00    -0.356 OA
HETATM   18  C   UNL     1      41.767 -10.363   2.140  1.00  0.00     0.210 C 
ENDBRANCH  13  17
BRANCH  15  19
HETATM   19  O   UNL     1      39.433 -13.627  -0.513  1.00  0.00    -0.356 OA
HETATM   20  C   UNL     1      39.528 -12.410  -1.240  1.00  0.00     0.210 C 
ENDBRANCH  15  19
ENDBRANCH   8  11
ENDBRANCH   1   7
BRANCH   2  21
HETATM   21  C   UNL     1      44.077 -17.536   5.451  1.00  0.00     0.253 C 
HETATM   22  N   UNL     1      43.470 -17.755   6.671  1.00  0.00    -0.355 N 
HETATM   23  H   UNL     1      42.954 -18.611   6.803  1.00  0.00     0.162 HD
HETATM   24  O   UNL     1      44.732 -16.540   5.169  1.00  0.00    -0.268 OA
BRANCH  22  25
HETATM   25  C   UNL     1      43.758 -16.940   7.837  1.00  0.00     0.149 C 
BRANCH  25  26
HETATM   26  C   UNL     1      43.019 -15.599   7.903  1.00  0.00     0.195 C 
BRANCH  26  27
HETATM   27  O   UNL     1      41.868 -15.639   7.045  1.00  0.00    -0.350 OA
BRANCH  27  28
HETATM   28  C   UNL     1      41.568 -14.423   6.489  1.00  0.00     0.068 A 
HETATM   29  C   UNL     1      40.230 -14.201   6.168  1.00  0.00     0.037 A 
HETATM   30  C   UNL     1      39.836 -12.986   5.602  1.00  0.00     0.003 A 
HETATM   31  C   UNL     1      40.779 -11.985   5.374  1.00  0.00     0.000 A 
HETATM   32  C   UNL     1      42.114 -12.195   5.720  1.00  0.00     0.003 A 
HETATM   33  C   UNL     1      42.508 -13.410   6.283  1.00  0.00     0.037 A 
ENDBRANCH  27  28
ENDBRANCH  26  27
ENDBRANCH  25  26
ENDBRANCH  22  25
ENDBRANCH   2  21
TORSDOF 9
ENDMDL
MODEL 3
REMARK VINA RESULT:      -7.8      2.072      4.799
REMARK  9 active torsions:
REMARK  status: ('A' for Active; 'I' for Inactive)
REMARK    1  A    between atoms: O_2  and  C_3 
REMARK    2  A    between atoms: C_5  and  O_6 
REMARK    3  A    between atoms: C_9  and  C_10 
REMARK       I    between atoms: C_10  and  N_11 
REMARK    4  A    between atoms: N_11  and  C_12 
REMARK    5  A    between atoms: C_13  and  C_14 
REMARK       I    between atoms: C_14  and  N_15 
REMARK    6  A    between atoms: N_15  and  C_16 
REMARK    7  A    between atoms: C_16  and  C_17 
REMARK    8  A    between atoms: C_17  and  O_18 
REMARK    9  A    between atoms: O_18  and  C_19 
ROOT
HETATM    1  C   UNL     1      43.538 -17.490   4.336  1.00  0.00     0.050 A 
HETATM    2  C   UNL     1      43.184 -17.782   3.004  1.00  0.00     0.058 A 
HETATM    3  C   UNL     1      43.395 -19.073   2.485  1.00  0.00     0.019 A 
HETATM    4  C   UNL     1      43.907 -20.089   3.288  1.00  0.00     0.001 A 
HETATM    5  C   UNL     1      44.197 -19.828   4.622  1.00  0.00     0.002 A 
HETATM    6  C   UNL     1      44.010 -18.544   5.142  1.00  0.00     0.030 A 
ENDROOT
BRANCH   1   7
HETATM    7  N   UNL     1      43.498 -16.220   4.973  1.00  0.00    -0.322 N 
HETATM    8  C   UNL     1      42.361 -15.618   5.485  1.00  0.00     0.256 C 
HETATM    9  O   UNL     1      41.232 -16.090   5.462  1.00  0.00    -0.267 OA
HETATM   10  H   UNL     1      44.249 -15.588   4.726  1.00  0.00     0.169 HD
BRANCH   8  11
HETATM   11  C   UNL     1      42.527 -14.231   6.015  1.00  0.00     0.037 A 
HETATM   12  C   UNL     1      41.429 -13.363   5.897  1.00  0.00     0.054 A 
HETATM   13  C   UNL     1      41.514 -12.054   6.360  1.00  0.00     0.071 A 
HETATM   14  C   UNL     1      42.709 -11.611   6.927  1.00  0.00     0.073 A 
HETATM   15  C   UNL     1      43.806 -12.468   7.069  1.00  0.00     0.071 A 
HETATM   16  C   UNL     1      43.711 -13.787   6.622  1.00  0.00     0.054 A 
BRANCH  13  17
HETATM   17  O   UNL     1      40.516 -11.121   6.304  1.00  0.00    -0.356 OA
HETATM   18  C   UNL     1      40.882  -9.779   6.610  1.00  0.00     0.210 C 
ENDBRANCH  13  17
BRANCH  15  19
HETATM   19  O   UNL     1      44.896 -11.893   7.661  1.00  0.00    -0.356 OA
HETATM   20  C   UNL     1      45.414 -10.708   7.074  1.00  0.00     0.210 C 
ENDBRANCH  15  19
ENDBRANCH   8  11
ENDBRANCH   1   7
BRANCH   2  21
HETATM   21  C   UNL     1      42.451 -16.870   2.091  1.00  0.00     0.253 C 
HETATM   22  N   UNL     1      41.090 -16.801   2.307  1.00  0.00    -0.355 N 
HETATM   23  H   UNL     1      40.706 -17.285   3.104  1.00  0.00     0.162 HD
HETATM   24  O   UNL     1      43.036 -16.325   1.162  1.00  0.00    -0.268 OA
BRANCH  22  25
HETATM   25  C   UNL     1      40.240 -15.862   1.598  1.00  0.00     0.149 C 
BRANCH  25  26
HETATM   26  C   UNL     1      40.006 -14.522   2.305  1.00  0.00     0.195 C 
BRANCH  26  27
HETATM   27  O   UNL     1      40.523 -13.453   1.496  1.00  0.00    -0.350 OA
BRANCH  27  28
HETATM   28  C   UNL     1      41.486 -12.714   2.134  1.00  0.00     0.068 A 
HETATM   29  C   UNL     1      41.134 -11.414   2.491  1.00  0.00     0.037 A 
HETATM   30  C   UNL     1      42.053 -10.593   3.148  1.00  0.00     0.003 A 
HETATM   31  C   UNL     1      43.321 -11.080   3.464  1.00  0.00     0.000 A 
HETATM   32  C   UNL     1      43.666 -12.389   3.132  1.00  0.00     0.003 A 
HETATM   33  C   UNL     1      42.748 -13.209   2.472  1.00  0.00     0.037 A 
ENDBRANCH  27  28
ENDBRANCH  26  27
ENDBRANCH  25  26
ENDBRANCH  22  25
ENDBRANCH   2  21
TORSDOF 9
ENDMDL
MODEL 4
REMARK VINA RESULT:      -7.7      2.088      5.089
REMARK  9 active torsions:
REMARK  status: ('A' for Active; 'I' for Inactive)
REMARK    1  A    between atoms: O_2  and  C_3 
REMARK    2  A    between atoms: C_5  and  O_6 
REMARK    3  A    between atoms: C_9  and  C_10 
REMARK       I    between atoms: C_10  and  N_11 
REMARK    4  A    between atoms: N_11  and  C_12 
REMARK    5  A    between atoms: C_13  and  C_14 
REMARK       I    between atoms: C_14  and  N_15 
REMARK    6  A    between atoms: N_15  and  C_16 
REMARK    7  A    between atoms: C_16  and  C_17 
REMARK    8  A    between atoms: C_17  and  O_18 
REMARK    9  A    between atoms: O_18  and  C_19 
ROOT
HETATM    1  C   UNL     1      43.521 -17.337   4.397  1.00  0.00     0.050 A 
HETATM    2  C   UNL     1      43.191 -17.679   3.071  1.00  0.00     0.058 A 
HETATM    3  C   UNL     1      43.447 -18.977   2.592  1.00  0.00     0.019 A 
HETATM    4  C   UNL     1      43.981 -19.953   3.431  1.00  0.00     0.001 A 
HETATM    5  C   UNL     1      44.248 -19.644   4.759  1.00  0.00     0.002 A 
HETATM    6  C   UNL     1      44.015 -18.352   5.239  1.00  0.00     0.030 A 
ENDROOT
BRANCH   1   7
HETATM    7  N   UNL     1      43.434 -16.051   4.995  1.00  0.00    -0.322 N 
HETATM    8  C   UNL     1      42.273 -15.468   5.475  1.00  0.00     0.256 C 
HETATM    9  O   UNL     1      41.159 -15.975   5.452  1.00  0.00    -0.267 OA
HETATM   10  H   UNL     1      44.170 -15.404   4.740  1.00  0.00     0.169 HD
BRANCH   8  11
HETATM   11  C   UNL     1      42.391 -14.062   5.966  1.00  0.00     0.037 A 
HETATM   12  C   UNL     1      43.622 -13.680   6.525  1.00  0.00     0.054 A 
HETATM   13  C   UNL     1      43.803 -12.389   7.011  1.00  0.00     0.071 A 
HETATM   14  C   UNL     1      42.741 -11.486   6.952  1.00  0.00     0.073 A 
HETATM   15  C   UNL     1      41.515 -11.846   6.382  1.00  0.00     0.071 A 
HETATM   16  C   UNL     1      41.342 -13.135   5.875  1.00  0.00     0.054 A 
BRANCH  13  17
HETATM   17  O   UNL     1      44.950 -11.901   7.572  1.00  0.00    -0.356 OA
HETATM   18  C   UNL     1      45.006 -10.493   7.783  1.00  0.00     0.210 C 
ENDBRANCH  13  17
BRANCH  15  19
HETATM   19  O   UNL     1      40.582 -10.847   6.379  1.00  0.00    -0.356 OA
HETATM   20  C   UNL     1      41.038  -9.519   6.598  1.00  0.00     0.210 C 
ENDBRANCH  15  19
ENDBRANCH   8  11
ENDBRANCH   1   7
BRANCH   2  21
HETATM   21  C   UNL     1      42.442 -16.816   2.123  1.00  0.00     0.253 C 
HETATM   22  N   UNL     1      41.079 -16.768   2.334  1.00  0.00    -0.355 N 
HETATM   23  H   UNL     1      40.703 -17.230   3.149  1.00  0.00     0.162 HD
HETATM   24  O   UNL     1      43.017 -16.295   1.175  1.00  0.00    -0.268 OA
BRANCH  22  25
HETATM   25  C   UNL     1      40.211 -15.874   1.590  1.00  0.00     0.149 C 
BRANCH  25  26
HETATM   26  C   UNL     1      39.958 -14.509   2.240  1.00  0.00     0.195 C 
BRANCH  26  27
HETATM   27  O   UNL     1      40.503 -13.471   1.411  1.00  0.00    -0.350 OA
BRANCH  27  28
HETATM   28  C   UNL     1      41.376 -12.652   2.079  1.00  0.00     0.068 A 
HETATM   29  C   UNL     1      42.630 -13.188   2.369  1.00  0.00     0.037 A 
HETATM   30  C   UNL     1      43.582 -12.420   3.044  1.00  0.00     0.003 A 
HETATM   31  C   UNL     1      43.287 -11.108   3.412  1.00  0.00     0.000 A 
HETATM   32  C   UNL     1      42.043 -10.561   3.099  1.00  0.00     0.003 A 
HETATM   33  C   UNL     1      41.089 -11.330   2.428  1.00  0.00     0.037 A 
ENDBRANCH  27  28
ENDBRANCH  26  27
ENDBRANCH  25  26
ENDBRANCH  22  25
ENDBRANCH   2  21
TORSDOF 9
ENDMDL
MODEL 5
REMARK VINA RESULT:      -7.6      2.075      5.664
REMARK  9 active torsions:
REMARK  status: ('A' for Active; 'I' for Inactive)
REMARK    1  A    between atoms: O_2  and  C_3 
REMARK    2  A    between atoms: C_5  and  O_6 
REMARK    3  A    between atoms: C_9  and  C_10 
REMARK       I    between atoms: C_10  and  N_11 
REMARK    4  A    between atoms: N_11  and  C_12 
REMARK    5  A    between atoms: C_13  and  C_14 
REMARK       I    between atoms: C_14  and  N_15 
REMARK    6  A    between atoms: N_15  and  C_16 
REMARK    7  A    between atoms: C_16  and  C_17 
REMARK    8  A    between atoms: C_17  and  O_18 
REMARK    9  A    between atoms: O_18  and  C_19 
ROOT
HETATM    1  C   UNL     1      43.621 -17.237   4.392  1.00  0.00     0.050 A 
HETATM    2  C   UNL     1      43.289 -17.567   3.064  1.00  0.00     0.058 A 
HETATM    3  C   UNL     1      43.472 -18.882   2.597  1.00  0.00     0.019 A 
HETATM    4  C   UNL     1      43.936 -19.882   3.448  1.00  0.00     0.001 A 
HETATM    5  C   UNL     1      44.203 -19.580   4.778  1.00  0.00     0.002 A 
HETATM    6  C   UNL     1      44.042 -18.273   5.246  1.00  0.00     0.030 A 
ENDROOT
BRANCH   1   7
HETATM    7  N   UNL     1      43.604 -15.943   4.981  1.00  0.00    -0.322 N 
HETATM    8  C   UNL     1      42.468 -15.263   5.385  1.00  0.00     0.256 C 
HETATM    9  O   UNL     1      41.319 -15.675   5.292  1.00  0.00    -0.267 OA
HETATM   10  H   UNL     1      44.406 -15.362   4.772  1.00  0.00     0.169 HD
BRANCH   8  11
HETATM   11  C   UNL     1      42.672 -13.868   5.880  1.00  0.00     0.037 A 
HETATM   12  C   UNL     1      41.710 -12.911   5.515  1.00  0.00     0.054 A 
HETATM   13  C   UNL     1      41.839 -11.590   5.932  1.00  0.00     0.071 A 
HETATM   14  C   UNL     1      42.944 -11.226   6.702  1.00  0.00     0.073 A 
HETATM   15  C   UNL     1      43.900 -12.170   7.089  1.00  0.00     0.071 A 
HETATM   16  C   UNL     1      43.758 -13.499   6.688  1.00  0.00     0.054 A 
BRANCH  13  17
HETATM   17  O   UNL     1      40.971 -10.574   5.644  1.00  0.00    -0.356 OA
HETATM   18  C   UNL     1      39.687 -10.640   6.259  1.00  0.00     0.210 C 
ENDBRANCH  13  17
BRANCH  15  19
HETATM   19  O   UNL     1      44.911 -11.665   7.859  1.00  0.00    -0.356 OA
HETATM   20  C   UNL     1      45.903 -10.882   7.209  1.00  0.00     0.210 C 
ENDBRANCH  15  19
ENDBRANCH   8  11
ENDBRANCH   1   7
BRANCH   2  21
HETATM   21  C   UNL     1      42.605 -16.668   2.101  1.00  0.00     0.253 C 
HETATM   22  N   UNL     1      41.235 -16.591   2.249  1.00  0.00    -0.355 N 
HETATM   23  H   UNL     1      40.811 -17.061   3.034  1.00  0.00     0.162 HD
HETATM   24  O   UNL     1      43.237 -16.140   1.193  1.00  0.00    -0.268 OA
BRANCH  22  25
HETATM   25  C   UNL     1      40.424 -15.662   1.484  1.00  0.00     0.149 C 
BRANCH  25  26
HETATM   26  C   UNL     1      40.660 -14.178   1.787  1.00  0.00     0.195 C 
BRANCH  26  27
HETATM   27  O   UNL     1      39.698 -13.381   1.078  1.00  0.00    -0.350 OA
BRANCH  27  28
HETATM   28  C   UNL     1      40.010 -13.214  -0.246  1.00  0.00     0.068 A 
HETATM   29  C   UNL     1      40.853 -12.147  -0.555  1.00  0.00     0.037 A 
HETATM   30  C   UNL     1      41.225 -11.907  -1.879  1.00  0.00     0.003 A 
HETATM   31  C   UNL     1      40.769 -12.746  -2.895  1.00  0.00     0.000 A 
HETATM   32  C   UNL     1      39.948 -13.830  -2.586  1.00  0.00     0.003 A 
HETATM   33  C   UNL     1      39.573 -14.068  -1.262  1.00  0.00     0.037 A 
ENDBRANCH  27  28
ENDBRANCH  26  27
ENDBRANCH  25  26
ENDBRANCH  22  25
ENDBRANCH   2  21
TORSDOF 9
ENDMDL
MODEL 6
REMARK VINA RESULT:      -7.5      2.716      6.748
REMARK  9 active torsions:
REMARK  status: ('A' for Active; 'I' for Inactive)
REMARK    1  A    between atoms: O_2  and  C_3 
REMARK    2  A    between atoms: C_5  and  O_6 
REMARK    3  A    between atoms: C_9  and  C_10 
REMARK       I    between atoms: C_10  and  N_11 
REMARK    4  A    between atoms: N_11  and  C_12 
REMARK    5  A    between atoms: C_13  and  C_14 
REMARK       I    between atoms: C_14  and  N_15 
REMARK    6  A    between atoms: N_15  and  C_16 
REMARK    7  A    between atoms: C_16  and  C_17 
REMARK    8  A    between atoms: C_17  and  O_18 
REMARK    9  A    between atoms: O_18  and  C_19 
ROOT
HETATM    1  C   UNL     1      40.710 -14.217   1.214  1.00  0.00     0.050 A 
HETATM    2  C   UNL     1      40.668 -12.824   1.420  1.00  0.00     0.058 A 
HETATM    3  C   UNL     1      40.116 -11.982   0.438  1.00  0.00     0.019 A 
HETATM    4  C   UNL     1      39.560 -12.511  -0.725  1.00  0.00     0.001 A 
HETATM    5  C   UNL     1      39.537 -13.889  -0.907  1.00  0.00     0.002 A 
HETATM    6  C   UNL     1      40.100 -14.733   0.054  1.00  0.00     0.030 A 
ENDROOT
BRANCH   1   7
HETATM    7  N   UNL     1      41.332 -15.186   2.047  1.00  0.00    -0.322 N 
HETATM    8  C   UNL     1      42.691 -15.270   2.300  1.00  0.00     0.256 C 
HETATM    9  O   UNL     1      43.548 -14.525   1.844  1.00  0.00    -0.267 OA
HETATM   10  H   UNL     1      40.814 -16.047   2.169  1.00  0.00     0.169 HD
BRANCH   8  11
HETATM   11  C   UNL     1      43.141 -16.436   3.119  1.00  0.00     0.037 A 
HETATM   12  C   UNL     1      43.310 -16.224   4.498  1.00  0.00     0.054 A 
HETATM   13  C   UNL     1      43.735 -17.260   5.322  1.00  0.00     0.071 A 
HETATM   14  C   UNL     1      44.008 -18.507   4.759  1.00  0.00     0.073 A 
HETATM   15  C   UNL     1      43.827 -18.740   3.392  1.00  0.00     0.071 A 
HETATM   16  C   UNL     1      43.380 -17.704   2.570  1.00  0.00     0.054 A 
BRANCH  13  17
HETATM   17  O   UNL     1      43.932 -17.177   6.672  1.00  0.00    -0.356 OA
HETATM   18  C   UNL     1      43.360 -16.050   7.330  1.00  0.00     0.210 C 
ENDBRANCH  13  17
BRANCH  15  19
HETATM   19  O   UNL     1      44.116 -20.016   2.995  1.00  0.00    -0.356 OA
HETATM   20  C   UNL     1      43.540 -20.473   1.779  1.00  0.00     0.210 C 
ENDBRANCH  15  19
ENDBRANCH   8  11
ENDBRANCH   1   7
BRANCH   2  21
HETATM   21  C   UNL     1      41.036 -12.132   2.681  1.00  0.00     0.253 C 
HETATM   22  N   UNL     1      42.357 -11.743   2.766  1.00  0.00    -0.355 N 
HETATM   23  H   UNL     1      42.946 -11.865   1.956  1.00  0.00     0.162 HD
HETATM   24  O   UNL     1      40.222 -12.034   3.591  1.00  0.00    -0.268 OA
BRANCH  22  25
HETATM   25  C   UNL     1      42.859 -10.938   3.865  1.00  0.00     0.149 C 
BRANCH  25  26
HETATM   26  C   UNL     1      43.799 -11.661   4.835  1.00  0.00     0.195 C 
BRANCH  26  27
HETATM   27  O   UNL     1      43.307 -11.524   6.177  1.00  0.00    -0.350 OA
BRANCH  27  28
HETATM   28  C   UNL     1      44.111 -10.744   6.968  1.00  0.00     0.068 A 
HETATM   29  C   UNL     1      45.467 -11.065   6.980  1.00  0.00     0.037 A 
HETATM   30  C   UNL     1      46.358 -10.318   7.755  1.00  0.00     0.003 A 
HETATM   31  C   UNL     1      45.894  -9.238   8.504  1.00  0.00     0.000 A 
HETATM   32  C   UNL     1      44.542  -8.900   8.473  1.00  0.00     0.003 A 
HETATM   33  C   UNL     1      43.650  -9.648   7.701  1.00  0.00     0.037 A 
ENDBRANCH  27  28
ENDBRANCH  26  27
ENDBRANCH  25  26
ENDBRANCH  22  25
ENDBRANCH   2  21
TORSDOF 9
ENDMDL
MODEL 7
REMARK VINA RESULT:      -7.5      2.668      3.897
REMARK  9 active torsions:
REMARK  status: ('A' for Active; 'I' for Inactive)
REMARK    1  A    between atoms: O_2  and  C_3 
REMARK    2  A    between atoms: C_5  and  O_6 
REMARK    3  A    between atoms: C_9  and  C_10 
REMARK       I    between atoms: C_10  and  N_11 
REMARK    4  A    between atoms: N_11  and  C_12 
REMARK    5  A    between atoms: C_13  and  C_14 
REMARK       I    between atoms: C_14  and  N_15 
REMARK    6  A    between atoms: N_15  and  C_16 
REMARK    7  A    between atoms: C_16  and  C_17 
REMARK    8  A    between atoms: C_17  and  O_18 
REMARK    9  A    between atoms: O_18  and  C_19 
ROOT
HETATM    1  C   UNL     1      42.589 -16.982   2.999  1.00  0.00     0.050 A 
HETATM    2  C   UNL     1      42.824 -16.931   4.387  1.00  0.00     0.058 A 
HETATM    3  C   UNL     1      43.568 -17.948   5.014  1.00  0.00     0.019 A 
HETATM    4  C   UNL     1      44.121 -18.988   4.271  1.00  0.00     0.001 A 
HETATM    5  C   UNL     1      43.950 -19.011   2.891  1.00  0.00     0.002 A 
HETATM    6  C   UNL     1      43.197 -18.016   2.262  1.00  0.00     0.030 A 
ENDROOT
BRANCH   1   7
HETATM    7  N   UNL     1      41.769 -16.105   2.238  1.00  0.00    -0.322 N 
HETATM    8  C   UNL     1      42.169 -14.885   1.719  1.00  0.00     0.256 C 
HETATM    9  O   UNL     1      43.281 -14.387   1.843  1.00  0.00    -0.267 OA
HETATM   10  H   UNL     1      40.773 -16.208   2.383  1.00  0.00     0.169 HD
BRANCH   8  11
HETATM   11  C   UNL     1      41.112 -14.074   1.043  1.00  0.00     0.037 A 
HETATM   12  C   UNL     1      40.867 -12.787   1.551  1.00  0.00     0.054 A 
HETATM   13  C   UNL     1      39.891 -11.979   0.976  1.00  0.00     0.071 A 
HETATM   14  C   UNL     1      39.149 -12.469  -0.098  1.00  0.00     0.073 A 
HETATM   15  C   UNL     1      39.393 -13.741  -0.627  1.00  0.00     0.071 A 
HETATM   16  C   UNL     1      40.387 -14.542  -0.063  1.00  0.00     0.054 A 
BRANCH  13  17
HETATM   17  O   UNL     1      39.565 -10.713   1.379  1.00  0.00    -0.356 OA
HETATM   18  C   UNL     1      38.824 -10.602   2.590  1.00  0.00     0.210 C 
ENDBRANCH  13  17
BRANCH  15  19
HETATM   19  O   UNL     1      38.599 -14.070  -1.690  1.00  0.00    -0.356 OA
HETATM   20  C   UNL     1      39.241 -14.373  -2.921  1.00  0.00     0.210 C 
ENDBRANCH  15  19
ENDBRANCH   8  11
ENDBRANCH   1   7
BRANCH   2  21
HETATM   21  C   UNL     1      42.473 -15.795   5.275  1.00  0.00     0.253 C 
HETATM   22  N   UNL     1      43.197 -14.641   5.058  1.00  0.00    -0.355 N 
HETATM   23  H   UNL     1      43.831 -14.614   4.273  1.00  0.00     0.162 HD
HETATM   24  O   UNL     1      41.673 -15.952   6.190  1.00  0.00    -0.268 OA
BRANCH  22  25
HETATM   25  C   UNL     1      42.896 -13.397   5.741  1.00  0.00     0.149 C 
BRANCH  25  26
HETATM   26  C   UNL     1      43.670 -13.155   7.042  1.00  0.00     0.195 C 
BRANCH  26  27
HETATM   27  O   UNL     1      44.884 -12.444   6.756  1.00  0.00    -0.350 OA
BRANCH  27  28
HETATM   28  C   UNL     1      45.039 -11.317   7.522  1.00  0.00     0.068 A 
HETATM   29  C   UNL     1      46.161 -10.534   7.252  1.00  0.00     0.037 A 
HETATM   30  C   UNL     1      46.394  -9.367   7.982  1.00  0.00     0.003 A 
HETATM   31  C   UNL     1      45.494  -8.971   8.971  1.00  0.00     0.000 A 
HETATM   32  C   UNL     1      44.357  -9.738   9.224  1.00  0.00     0.003 A 
HETATM   33  C   UNL     1      44.126 -10.908   8.496  1.00  0.00     0.037 A 
ENDBRANCH  27  28
ENDBRANCH  26  27
ENDBRANCH  25  26
ENDBRANCH  22  25
ENDBRANCH   2  21
TORSDOF 9
ENDMDL
MODEL 8
REMARK VINA RESULT:      -7.5      2.111      5.889
REMARK  9 active torsions:
REMARK  status: ('A' for Active; 'I' for Inactive)
REMARK    1  A    between atoms: O_2  and  C_3 
REMARK    2  A    between atoms: C_5  and  O_6 
REMARK    3  A    between atoms: C_9  and  C_10 
REMARK       I    between atoms: C_10  and  N_11 
REMARK    4  A    between atoms: N_11  and  C_12 
REMARK    5  A    between atoms: C_13  and  C_14 
REMARK       I    between atoms: C_14  and  N_15 
REMARK    6  A    between atoms: N_15  and  C_16 
REMARK    7  A    between atoms: C_16  and  C_17 
REMARK    8  A    between atoms: C_17  and  O_18 
REMARK    9  A    between atoms: O_18  and  C_19 
ROOT
HETATM    1  C   UNL     1      43.587 -17.021   4.559  1.00  0.00     0.050 A 
HETATM    2  C   UNL     1      43.379 -17.382   3.214  1.00  0.00     0.058 A 
HETATM    3  C   UNL     1      43.593 -18.710   2.799  1.00  0.00     0.019 A 
HETATM    4  C   UNL     1      43.964 -19.692   3.715  1.00  0.00     0.001 A 
HETATM    5  C   UNL     1      44.106 -19.358   5.057  1.00  0.00     0.002 A 
HETATM    6  C   UNL     1      43.915 -18.038   5.475  1.00  0.00     0.030 A 
ENDROOT
BRANCH   1   7
HETATM    7  N   UNL     1      43.527 -15.712   5.112  1.00  0.00    -0.322 N 
HETATM    8  C   UNL     1      42.365 -15.002   5.363  1.00  0.00     0.256 C 
HETATM    9  O   UNL     1      41.227 -15.397   5.145  1.00  0.00    -0.267 OA
HETATM   10  H   UNL     1      44.359 -15.151   4.985  1.00  0.00     0.169 HD
BRANCH   8  11
HETATM   11  C   UNL     1      42.537 -13.599   5.846  1.00  0.00     0.037 A 
HETATM   12  C   UNL     1      43.687 -13.318   6.603  1.00  0.00     0.054 A 
HETATM   13  C   UNL     1      43.910 -12.036   7.094  1.00  0.00     0.071 A 
HETATM   14  C   UNL     1      42.968 -11.038   6.839  1.00  0.00     0.073 A 
HETATM   15  C   UNL     1      41.828 -11.297   6.071  1.00  0.00     0.071 A 
HETATM   16  C   UNL     1      41.617 -12.579   5.562  1.00  0.00     0.054 A 
BRANCH  13  17
HETATM   17  O   UNL     1      44.987 -11.642   7.837  1.00  0.00    -0.356 OA
HETATM   18  C   UNL     1      46.012 -10.933   7.145  1.00  0.00     0.210 C 
ENDBRANCH  13  17
BRANCH  15  19
HETATM   19  O   UNL     1      41.013 -10.214   5.892  1.00  0.00    -0.356 OA
HETATM   20  C   UNL     1      39.644 -10.357   6.245  1.00  0.00     0.210 C 
ENDBRANCH  15  19
ENDBRANCH   8  11
ENDBRANCH   1   7
BRANCH   2  21
HETATM   21  C   UNL     1      42.798 -16.503   2.169  1.00  0.00     0.253 C 
HETATM   22  N   UNL     1      41.419 -16.457   2.147  1.00  0.00    -0.355 N 
HETATM   23  H   UNL     1      40.913 -16.933   2.878  1.00  0.00     0.162 HD
HETATM   24  O   UNL     1      43.525 -15.965   1.341  1.00  0.00    -0.268 OA
BRANCH  22  25
HETATM   25  C   UNL     1      40.687 -15.549   1.283  1.00  0.00     0.149 C 
BRANCH  25  26
HETATM   26  C   UNL     1      40.549 -14.113   1.801  1.00  0.00     0.195 C 
BRANCH  26  27
HETATM   27  O   UNL     1      39.566 -13.412   1.025  1.00  0.00    -0.350 OA
BRANCH  27  28
HETATM   28  C   UNL     1      39.975 -13.158  -0.259  1.00  0.00     0.068 A 
HETATM   29  C   UNL     1      39.391 -13.932  -1.260  1.00  0.00     0.037 A 
HETATM   30  C   UNL     1      39.748 -13.736  -2.596  1.00  0.00     0.003 A 
HETATM   31  C   UNL     1      40.675 -12.751  -2.933  1.00  0.00     0.000 A 
HETATM   32  C   UNL     1      41.240 -11.958  -1.936  1.00  0.00     0.003 A 
HETATM   33  C   UNL     1      40.887 -12.156  -0.599  1.00  0.00     0.037 A 
ENDBRANCH  27  28
ENDBRANCH  26  27
ENDBRANCH  25  26
ENDBRANCH  22  25
ENDBRANCH   2  21
TORSDOF 9
ENDMDL
MODEL 9
REMARK VINA RESULT:      -7.5      2.629      3.440
REMARK  9 active torsions:
REMARK  status: ('A' for Active; 'I' for Inactive)
REMARK    1  A    between atoms: O_2  and  C_3 
REMARK    2  A    between atoms: C_5  and  O_6 
REMARK    3  A    between atoms: C_9  and  C_10 
REMARK       I    between atoms: C_10  and  N_11 
REMARK    4  A    between atoms: N_11  and  C_12 
REMARK    5  A    between atoms: C_13  and  C_14 
REMARK       I    between atoms: C_14  and  N_15 
REMARK    6  A    between atoms: N_15  and  C_16 
REMARK    7  A    between atoms: C_16  and  C_17 
REMARK    8  A    between atoms: C_17  and  O_18 
REMARK    9  A    between atoms: O_18  and  C_19 
ROOT
HETATM    1  C   UNL     1      42.511 -16.931   3.021  1.00  0.00     0.050 A 
HETATM    2  C   UNL     1      42.791 -16.863   4.400  1.00  0.00     0.058 A 
HETATM    3  C   UNL     1      43.578 -17.857   5.009  1.00  0.00     0.019 A 
HETATM    4  C   UNL     1      44.131 -18.890   4.256  1.00  0.00     0.001 A 
HETATM    5  C   UNL     1      43.915 -18.928   2.884  1.00  0.00     0.002 A 
HETATM    6  C   UNL     1      43.119 -17.957   2.272  1.00  0.00     0.030 A 
ENDROOT
BRANCH   1   7
HETATM    7  N   UNL     1      41.646 -16.080   2.281  1.00  0.00    -0.322 N 
HETATM    8  C   UNL     1      42.005 -14.864   1.723  1.00  0.00     0.256 C 
HETATM    9  O   UNL     1      43.114 -14.349   1.788  1.00  0.00    -0.267 OA
HETATM   10  H   UNL     1      40.659 -16.194   2.472  1.00  0.00     0.169 HD
BRANCH   8  11
HETATM   11  C   UNL     1      40.908 -14.081   1.079  1.00  0.00     0.037 A 
HETATM   12  C   UNL     1      40.441 -14.535  -0.166  1.00  0.00     0.054 A 
HETATM   13  C   UNL     1      39.427 -13.851  -0.829  1.00  0.00     0.071 A 
HETATM   14  C   UNL     1      38.894 -12.700  -0.250  1.00  0.00     0.073 A 
HETATM   15  C   UNL     1      39.335 -12.245   0.997  1.00  0.00     0.071 A 
HETATM   16  C   UNL     1      40.337 -12.944   1.671  1.00  0.00     0.054 A 
BRANCH  13  17
HETATM   17  O   UNL     1      38.890 -14.197  -2.038  1.00  0.00    -0.356 OA
HETATM   18  C   UNL     1      37.739 -13.469  -2.454  1.00  0.00     0.210 C 
ENDBRANCH  13  17
BRANCH  15  19
HETATM   19  O   UNL     1      38.701 -11.117   1.440  1.00  0.00    -0.356 OA
HETATM   20  C   UNL     1      39.094 -10.595   2.702  1.00  0.00     0.210 C 
ENDBRANCH  15  19
ENDBRANCH   8  11
ENDBRANCH   1   7
BRANCH   2  21
HETATM   21  C   UNL     1      42.442 -15.728   5.291  1.00  0.00     0.253 C 
HETATM   22  N   UNL     1      43.479 -15.265   6.075  1.00  0.00    -0.355 N 
HETATM   23  H   UNL     1      44.400 -15.651   5.928  1.00  0.00     0.162 HD
HETATM   24  O   UNL     1      41.283 -15.339   5.371  1.00  0.00    -0.268 OA
BRANCH  22  25
HETATM   25  C   UNL     1      43.354 -14.080   6.904  1.00  0.00     0.149 C 
BRANCH  25  26
HETATM   26  C   UNL     1      43.791 -12.766   6.245  1.00  0.00     0.195 C 
BRANCH  26  27
HETATM   27  O   UNL     1      45.065 -12.363   6.769  1.00  0.00    -0.350 OA
BRANCH  27  28
HETATM   28  C   UNL     1      45.039 -11.123   7.353  1.00  0.00     0.068 A 
HETATM   29  C   UNL     1      46.274 -10.515   7.574  1.00  0.00     0.037 A 
HETATM   30  C   UNL     1      46.338  -9.250   8.160  1.00  0.00     0.003 A 
HETATM   31  C   UNL     1      45.165  -8.582   8.509  1.00  0.00     0.000 A 
HETATM   32  C   UNL     1      43.928  -9.177   8.265  1.00  0.00     0.003 A 
HETATM   33  C   UNL     1      43.863 -10.445   7.682  1.00  0.00     0.037 A 
ENDBRANCH  27  28
ENDBRANCH  26  27
ENDBRANCH  25  26
ENDBRANCH  22  25
ENDBRANCH   2  21
TORSDOF 9
ENDMDL
MODEL 10
REMARK VINA RESULT:      -7.4      2.997      4.324
REMARK  9 active torsions:
REMARK  status: ('A' for Active; 'I' for Inactive)
REMARK    1  A    between atoms: O_2  and  C_3 
REMARK    2  A    between atoms: C_5  and  O_6 
REMARK    3  A    between atoms: C_9  and  C_10 
REMARK       I    between atoms: C_10  and  N_11 
REMARK    4  A    between atoms: N_11  and  C_12 
REMARK    5  A    between atoms: C_13  and  C_14 
REMARK       I    between atoms: C_14  and  N_15 
REMARK    6  A    between atoms: N_15  and  C_16 
REMARK    7  A    between atoms: C_16  and  C_17 
REMARK    8  A    between atoms: C_17  and  O_18 
REMARK    9  A    between atoms: O_18  and  C_19 
ROOT
HETATM    1  C   UNL     1      42.753 -15.845   2.505  1.00  0.00     0.050 A 
HETATM    2  C   UNL     1      42.856 -15.640   3.895  1.00  0.00     0.058 A 
HETATM    3  C   UNL     1      43.292 -16.685   4.731  1.00  0.00     0.019 A 
HETATM    4  C   UNL     1      43.673 -17.913   4.197  1.00  0.00     0.001 A 
HETATM    5  C   UNL     1      43.638 -18.103   2.821  1.00  0.00     0.002 A 
HETATM    6  C   UNL     1      43.188 -17.078   1.984  1.00  0.00     0.030 A 
ENDROOT
BRANCH   1   7
HETATM    7  N   UNL     1      42.226 -14.940   1.544  1.00  0.00    -0.322 N 
HETATM    8  C   UNL     1      40.925 -14.945   1.069  1.00  0.00     0.256 C 
HETATM    9  O   UNL     1      40.046 -15.728   1.407  1.00  0.00    -0.267 OA
HETATM   10  H   UNL     1      42.909 -14.513   0.931  1.00  0.00     0.169 HD
BRANCH   8  11
HETATM   11  C   UNL     1      40.613 -13.972  -0.020  1.00  0.00     0.037 A 
HETATM   12  C   UNL     1      40.919 -12.622   0.218  1.00  0.00     0.054 A 
HETATM   13  C   UNL     1      40.649 -11.658  -0.748  1.00  0.00     0.071 A 
HETATM   14  C   UNL     1      40.055 -12.047  -1.948  1.00  0.00     0.073 A 
HETATM   15  C   UNL     1      39.760 -13.390  -2.208  1.00  0.00     0.071 A 
HETATM   16  C   UNL     1      40.052 -14.359  -1.247  1.00  0.00     0.054 A 
BRANCH  13  17
HETATM   17  O   UNL     1      40.904 -10.320  -0.632  1.00  0.00    -0.356 OA
HETATM   18  C   UNL     1      41.479  -9.681  -1.769  1.00  0.00     0.210 C 
ENDBRANCH  13  17
BRANCH  15  19
HETATM   19  O   UNL     1      39.200 -13.615  -3.435  1.00  0.00    -0.356 OA
HETATM   20  C   UNL     1      38.339 -14.737  -3.568  1.00  0.00     0.210 C 
ENDBRANCH  15  19
ENDBRANCH   8  11
ENDBRANCH   1   7
BRANCH   2  21
HETATM   21  C   UNL     1      42.679 -14.339   4.586  1.00  0.00     0.253 C 
HETATM   22  N   UNL     1      43.308 -14.240   5.810  1.00  0.00    -0.355 N 
HETATM   23  H   UNL     1      43.906 -14.997   6.104  1.00  0.00     0.162 HD
HETATM   24  O   UNL     1      41.931 -13.488   4.118  1.00  0.00    -0.268 OA
BRANCH  22  25
HETATM   25  C   UNL     1      43.352 -12.998   6.561  1.00  0.00     0.149 C 
BRANCH  25  26
HETATM   26  C   UNL     1      44.719 -12.307   6.610  1.00  0.00     0.195 C 
BRANCH  26  27
HETATM   27  O   UNL     1      44.540 -10.882   6.609  1.00  0.00    -0.350 OA
BRANCH  27  28
HETATM   28  C   UNL     1      44.522 -10.341   7.869  1.00  0.00     0.068 A 
HETATM   29  C   UNL     1      43.334  -9.728   8.264  1.00  0.00     0.037 A 
HETATM   30  C   UNL     1      43.228  -9.156   9.533  1.00  0.00     0.003 A 
HETATM   31  C   UNL     1      44.306  -9.212  10.416  1.00  0.00     0.000 A 
HETATM   32  C   UNL     1      45.486  -9.848  10.033  1.00  0.00     0.003 A 
HETATM   33  C   UNL     1      45.594 -10.418   8.762  1.00  0.00     0.037 A 
ENDBRANCH  27  28
ENDBRANCH  26  27
ENDBRANCH  25  26
ENDBRANCH  22  25
ENDBRANCH   2  21
TORSDOF 9
ENDMDL
