MODEL 1
REMARK VINA RESULT:      -9.1      0.000      0.000
REMARK  7 active torsions:
REMARK  status: ('A' for Active; 'I' for Inactive)
REMARK    1  A    between atoms: C_2  and  O_3 
REMARK    2  A    between atoms: O_3  and  C_4 
REMARK    3  A    between atoms: C_5  and  N_6 
REMARK       I    between atoms: N_6  and  C_7 
REMARK       I    between atoms: C_7  and  N_8 
REMARK    4  A    between atoms: N_8  and  C_9 
REMARK    5  A    between atoms: C_9  and  C_10 
REMARK       I    between atoms: C_10  and  N_11 
REMARK    6  A    between atoms: N_11  and  C_12 
REMARK    7  A    between atoms: C_25  and  C_26 
ROOT
HETATM    1  N   UNL     1      42.050 -15.512   3.351  1.00  0.00    -0.306 N 
HETATM    2  C   UNL     1      42.530 -14.565   2.469  1.00  0.00     0.321 C 
HETATM    3  N   UNL     1      41.577 -13.628   2.173  1.00  0.00    -0.334 N 
HETATM    4  O   UNL     1      43.681 -14.482   2.057  1.00  0.00    -0.247 OA
HETATM    5  H   UNL     1      41.583 -15.067   4.127  1.00  0.00     0.171 HD
HETATM    6  H   UNL     1      40.620 -13.869   2.394  1.00  0.00     0.164 HD
ENDROOT
BRANCH   3   7
HETATM    7  C   UNL     1      41.884 -12.235   1.890  1.00  0.00     0.227 C 
BRANCH   7   8
HETATM    8  C   UNL     1      42.477 -11.326   2.984  1.00  0.00     0.239 C 
HETATM    9  N   UNL     1      43.341 -11.972   3.843  1.00  0.00    -0.326 N 
HETATM   10  H   UNL     1      43.628 -12.913   3.559  1.00  0.00     0.169 HD
HETATM   11  O   UNL     1      42.041 -10.185   3.131  1.00  0.00    -0.271 OA
BRANCH   9  12
HETATM   12  C   UNL     1      43.787 -11.548   5.110  1.00  0.00     0.037 A 
HETATM   13  C   UNL     1      42.926 -11.230   6.168  1.00  0.00     0.061 A 
HETATM   14  C   UNL     1      43.509 -10.910   7.374  1.00  0.00     0.065 A 
HETATM   15  C   UNL     1      44.890 -10.884   7.555  1.00  0.00     0.063 A 
HETATM   16  N   UNL     1      42.913 -10.590   8.590  1.00  0.00    -0.306 N 
HETATM   17  N   UNL     1      45.142 -10.548   8.881  1.00  0.00    -0.307 N 
HETATM   18  C   UNL     1      45.763 -11.171   6.538  1.00  0.00     0.034 A 
HETATM   19  C   UNL     1      43.918 -10.367   9.541  1.00  0.00     0.325 A 
HETATM   20  H   UNL     1      46.039 -10.460   9.330  1.00  0.00     0.170 HD
HETATM   21  O   UNL     1      43.761 -10.079  10.714  1.00  0.00    -0.247 OA
HETATM   22  C   UNL     1      45.194 -11.509   5.303  1.00  0.00     0.032 A 
HETATM   23  H   UNL     1      41.926 -10.540   8.786  1.00  0.00     0.170 HD
ENDBRANCH   9  12
ENDBRANCH   7   8
ENDBRANCH   3   7
BRANCH   1  24
HETATM   24  C   UNL     1      42.868 -16.616   3.693  1.00  0.00     0.070 A 
HETATM   25  C   UNL     1      43.698 -16.584   4.829  1.00  0.00     0.095 A 
HETATM   26  C   UNL     1      44.487 -17.699   5.119  1.00  0.00     0.040 A 
HETATM   27  C   UNL     1      44.423 -18.842   4.313  1.00  0.00     0.019 A 
HETATM   28  C   UNL     1      43.589 -18.880   3.187  1.00  0.00     0.050 A 
HETATM   29  C   UNL     1      42.838 -17.742   2.862  1.00  0.00     0.048 A 
BRANCH  25  30
HETATM   30  O   UNL     1      43.716 -15.411   5.540  1.00  0.00    -0.349 OA
BRANCH  30  31
HETATM   31  C   UNL     1      43.470 -15.488   6.942  1.00  0.00     0.171 C 
HETATM   32  C   UNL     1      42.002 -15.824   7.138  1.00  0.00     0.034 C 
ENDBRANCH  30  31
ENDBRANCH  25  30
BRANCH  28  33
HETATM   33  C   UNL     1      43.485 -20.142   2.366  1.00  0.00     0.417 C 
HETATM   34  F   UNL     1      42.273 -20.300   1.763  1.00  0.00    -0.166 F 
HETATM   35  F   UNL     1      44.407 -20.192   1.366  1.00  0.00    -0.166 F 
HETATM   36  F   UNL     1      43.679 -21.264   3.112  1.00  0.00    -0.166 F 
ENDBRANCH  28  33
ENDBRANCH   1  24
TORSDOF 7
ENDMDL
MODEL 2
REMARK VINA RESULT:      -8.6      4.165      6.669
REMARK  7 active torsions:
REMARK  status: ('A' for Active; 'I' for Inactive)
REMARK    1  A    between atoms: C_2  and  O_3 
REMARK    2  A    between atoms: O_3  and  C_4 
REMARK    3  A    between atoms: C_5  and  N_6 
REMARK       I    between atoms: N_6  and  C_7 
REMARK       I    between atoms: C_7  and  N_8 
REMARK    4  A    between atoms: N_8  and  C_9 
REMARK    5  A    between atoms: C_9  and  C_10 
REMARK       I    between atoms: C_10  and  N_11 
REMARK    6  A    between atoms: N_11  and  C_12 
REMARK    7  A    between atoms: C_25  and  C_26 
ROOT
HETATM    1  N   UNL     1      42.784 -15.437   1.513  1.00  0.00    -0.306 N 
HETATM    2  C   UNL     1      41.454 -15.180   1.249  1.00  0.00     0.321 C 
HETATM    3  N   UNL     1      41.309 -14.108   0.409  1.00  0.00    -0.334 N 
HETATM    4  O   UNL     1      40.502 -15.858   1.617  1.00  0.00    -0.247 OA
HETATM    5  H   UNL     1      43.320 -15.444   0.657  1.00  0.00     0.171 HD
HETATM    6  H   UNL     1      42.110 -13.500   0.307  1.00  0.00     0.164 HD
ENDROOT
BRANCH   3   7
HETATM    7  C   UNL     1      40.235 -13.994  -0.565  1.00  0.00     0.227 C 
BRANCH   7   8
HETATM    8  C   UNL     1      39.995 -12.669  -1.313  1.00  0.00     0.239 C 
HETATM    9  N   UNL     1      41.151 -12.037  -1.722  1.00  0.00    -0.326 N 
HETATM   10  H   UNL     1      42.009 -12.590  -1.646  1.00  0.00     0.169 HD
HETATM   11  O   UNL     1      38.863 -12.187  -1.353  1.00  0.00    -0.271 OA
BRANCH   9  12
HETATM   12  C   UNL     1      41.315 -10.696  -2.120  1.00  0.00     0.037 A 
HETATM   13  C   UNL     1      41.949  -9.726  -1.335  1.00  0.00     0.061 A 
HETATM   14  C   UNL     1      42.108  -8.476  -1.891  1.00  0.00     0.065 A 
HETATM   15  C   UNL     1      41.657  -8.163  -3.171  1.00  0.00     0.063 A 
HETATM   16  N   UNL     1      42.723  -7.343  -1.366  1.00  0.00    -0.306 N 
HETATM   17  N   UNL     1      41.993  -6.839  -3.432  1.00  0.00    -0.307 N 
HETATM   18  C   UNL     1      41.016  -9.082  -3.961  1.00  0.00     0.034 A 
HETATM   19  C   UNL     1      42.664  -6.315  -2.317  1.00  0.00     0.325 A 
HETATM   20  H   UNL     1      41.817  -6.319  -4.275  1.00  0.00     0.170 HD
HETATM   21  O   UNL     1      43.112  -5.189  -2.203  1.00  0.00    -0.247 OA
HETATM   22  C   UNL     1      40.850 -10.364  -3.421  1.00  0.00     0.032 A 
HETATM   23  H   UNL     1      43.162  -7.255  -0.464  1.00  0.00     0.170 HD
ENDBRANCH   9  12
ENDBRANCH   7   8
ENDBRANCH   3   7
BRANCH   1  24
HETATM   24  C   UNL     1      43.122 -16.450   2.443  1.00  0.00     0.070 A 
HETATM   25  C   UNL     1      43.362 -16.147   3.796  1.00  0.00     0.095 A 
HETATM   26  C   UNL     1      43.694 -17.185   4.670  1.00  0.00     0.040 A 
HETATM   27  C   UNL     1      43.750 -18.506   4.213  1.00  0.00     0.019 A 
HETATM   28  C   UNL     1      43.500 -18.812   2.868  1.00  0.00     0.050 A 
HETATM   29  C   UNL     1      43.222 -17.766   1.977  1.00  0.00     0.048 A 
BRANCH  25  30
HETATM   30  O   UNL     1      43.315 -14.822   4.143  1.00  0.00    -0.349 OA
BRANCH  30  31
HETATM   31  C   UNL     1      42.569 -14.473   5.307  1.00  0.00     0.171 C 
HETATM   32  C   UNL     1      41.096 -14.485   4.937  1.00  0.00     0.034 C 
ENDBRANCH  30  31
ENDBRANCH  25  30
BRANCH  28  33
HETATM   33  C   UNL     1      43.502 -20.249   2.406  1.00  0.00     0.417 C 
HETATM   34  F   UNL     1      44.468 -20.522   1.484  1.00  0.00    -0.166 F 
HETATM   35  F   UNL     1      43.704 -21.125   3.427  1.00  0.00    -0.166 F 
HETATM   36  F   UNL     1      42.323 -20.609   1.829  1.00  0.00    -0.166 F 
ENDBRANCH  28  33
ENDBRANCH   1  24
TORSDOF 7
ENDMDL
MODEL 3
REMARK VINA RESULT:      -8.3      5.117      8.174
REMARK  7 active torsions:
REMARK  status: ('A' for Active; 'I' for Inactive)
REMARK    1  A    between atoms: C_2  and  O_3 
REMARK    2  A    between atoms: O_3  and  C_4 
REMARK    3  A    between atoms: C_5  and  N_6 
REMARK       I    between atoms: N_6  and  C_7 
REMARK       I    between atoms: C_7  and  N_8 
REMARK    4  A    between atoms: N_8  and  C_9 
REMARK    5  A    between atoms: C_9  and  C_10 
REMARK       I    between atoms: C_10  and  N_11 
REMARK    6  A    between atoms: N_11  and  C_12 
REMARK    7  A    between atoms: C_25  and  C_26 
ROOT
HETATM    1  N   UNL     1      42.616 -15.406   1.325  1.00  0.00    -0.306 N 
HETATM    2  C   UNL     1      41.275 -15.216   1.060  1.00  0.00     0.321 C 
HETATM    3  N   UNL     1      41.081 -14.185   0.180  1.00  0.00    -0.334 N 
HETATM    4  O   UNL     1      40.354 -15.917   1.461  1.00  0.00    -0.247 OA
HETATM    5  H   UNL     1      43.147 -15.425   0.466  1.00  0.00     0.171 HD
HETATM    6  H   UNL     1      41.856 -13.548   0.049  1.00  0.00     0.164 HD
ENDROOT
BRANCH   3   7
HETATM    7  C   UNL     1      39.998 -14.153  -0.790  1.00  0.00     0.227 C 
BRANCH   7   8
HETATM    8  C   UNL     1      40.124 -13.316  -2.078  1.00  0.00     0.239 C 
HETATM    9  N   UNL     1      40.020 -11.956  -1.875  1.00  0.00    -0.326 N 
HETATM   10  H   UNL     1      40.052 -11.649  -0.900  1.00  0.00     0.169 HD
HETATM   11  O   UNL     1      40.136 -13.879  -3.172  1.00  0.00    -0.271 OA
BRANCH   9  12
HETATM   12  C   UNL     1      39.762 -10.952  -2.829  1.00  0.00     0.037 A 
HETATM   13  C   UNL     1      38.493 -10.697  -3.363  1.00  0.00     0.061 A 
HETATM   14  C   UNL     1      38.380  -9.629  -4.225  1.00  0.00     0.065 A 
HETATM   15  C   UNL     1      39.466  -8.831  -4.576  1.00  0.00     0.063 A 
HETATM   16  N   UNL     1      37.254  -9.126  -4.870  1.00  0.00    -0.306 N 
HETATM   17  N   UNL     1      39.009  -7.839  -5.437  1.00  0.00    -0.307 N 
HETATM   18  C   UNL     1      40.726  -9.062  -4.088  1.00  0.00     0.034 A 
HETATM   19  C   UNL     1      37.629  -8.006  -5.626  1.00  0.00     0.325 A 
HETATM   20  H   UNL     1      39.546  -7.099  -5.857  1.00  0.00     0.170 HD
HETATM   21  O   UNL     1      36.901  -7.309  -6.308  1.00  0.00    -0.247 OA
HETATM   22  C   UNL     1      40.866 -10.138  -3.202  1.00  0.00     0.032 A 
HETATM   23  H   UNL     1      36.312  -9.476  -4.807  1.00  0.00     0.170 HD
ENDBRANCH   9  12
ENDBRANCH   7   8
ENDBRANCH   3   7
BRANCH   1  24
HETATM   24  C   UNL     1      43.000 -16.368   2.291  1.00  0.00     0.070 A 
HETATM   25  C   UNL     1      43.276 -15.995   3.620  1.00  0.00     0.095 A 
HETATM   26  C   UNL     1      43.654 -16.983   4.533  1.00  0.00     0.040 A 
HETATM   27  C   UNL     1      43.720 -18.324   4.138  1.00  0.00     0.019 A 
HETATM   28  C   UNL     1      43.435 -18.700   2.817  1.00  0.00     0.050 A 
HETATM   29  C   UNL     1      43.110 -17.703   1.886  1.00  0.00     0.048 A 
BRANCH  25  30
HETATM   30  O   UNL     1      43.215 -14.655   3.905  1.00  0.00    -0.349 OA
BRANCH  30  31
HETATM   31  C   UNL     1      42.469 -14.261   5.054  1.00  0.00     0.171 C 
HETATM   32  C   UNL     1      40.997 -14.285   4.684  1.00  0.00     0.034 C 
ENDBRANCH  30  31
ENDBRANCH  25  30
BRANCH  28  33
HETATM   33  C   UNL     1      43.450 -20.157   2.425  1.00  0.00     0.417 C 
HETATM   34  F   UNL     1      43.608 -21.002   3.482  1.00  0.00    -0.166 F 
HETATM   35  F   UNL     1      42.300 -20.542   1.808  1.00  0.00    -0.166 F 
HETATM   36  F   UNL     1      44.458 -20.450   1.559  1.00  0.00    -0.166 F 
ENDBRANCH  28  33
ENDBRANCH   1  24
TORSDOF 7
ENDMDL
MODEL 4
REMARK VINA RESULT:      -8.3      3.820      6.276
REMARK  7 active torsions:
REMARK  status: ('A' for Active; 'I' for Inactive)
REMARK    1  A    between atoms: C_2  and  O_3 
REMARK    2  A    between atoms: O_3  and  C_4 
REMARK    3  A    between atoms: C_5  and  N_6 
REMARK       I    between atoms: N_6  and  C_7 
REMARK       I    between atoms: C_7  and  N_8 
REMARK    4  A    between atoms: N_8  and  C_9 
REMARK    5  A    between atoms: C_9  and  C_10 
REMARK       I    between atoms: C_10  and  N_11 
REMARK    6  A    between atoms: N_11  and  C_12 
REMARK    7  A    between atoms: C_25  and  C_26 
ROOT
HETATM    1  N   UNL     1      42.524 -12.692   6.469  1.00  0.00    -0.306 N 
HETATM    2  C   UNL     1      43.581 -11.861   6.784  1.00  0.00     0.321 C 
HETATM    3  N   UNL     1      43.244 -10.980   7.777  1.00  0.00    -0.334 N 
HETATM    4  O   UNL     1      44.716 -11.934   6.329  1.00  0.00    -0.247 OA
HETATM    5  H   UNL     1      42.113 -13.074   7.308  1.00  0.00     0.171 HD
HETATM    6  H   UNL     1      42.257 -10.857   7.959  1.00  0.00     0.164 HD
ENDROOT
BRANCH   3   7
HETATM    7  C   UNL     1      44.189 -10.493   8.769  1.00  0.00     0.227 C 
BRANCH   7   8
HETATM    8  C   UNL     1      43.848 -10.552  10.270  1.00  0.00     0.239 C 
HETATM    9  N   UNL     1      42.769  -9.773  10.632  1.00  0.00    -0.326 N 
HETATM   10  H   UNL     1      42.216  -9.395   9.859  1.00  0.00     0.169 HD
HETATM   11  O   UNL     1      44.615 -11.120  11.048  1.00  0.00    -0.271 OA
BRANCH   9  12
HETATM   12  C   UNL     1      42.402  -9.342  11.922  1.00  0.00     0.037 A 
HETATM   13  C   UNL     1      43.117  -8.385  12.653  1.00  0.00     0.061 A 
HETATM   14  C   UNL     1      42.590  -8.003  13.866  1.00  0.00     0.065 A 
HETATM   15  C   UNL     1      41.409  -8.538  14.372  1.00  0.00     0.063 A 
HETATM   16  N   UNL     1      43.057  -7.061  14.779  1.00  0.00    -0.306 N 
HETATM   17  N   UNL     1      41.150  -7.927  15.594  1.00  0.00    -0.307 N 
HETATM   18  C   UNL     1      40.692  -9.490  13.694  1.00  0.00     0.034 A 
HETATM   19  C   UNL     1      42.167  -6.999  15.859  1.00  0.00     0.325 A 
HETATM   20  H   UNL     1      40.364  -8.086  16.203  1.00  0.00     0.170 HD
HETATM   21  O   UNL     1      42.253  -6.276  16.835  1.00  0.00    -0.247 OA
HETATM   22  C   UNL     1      41.202  -9.889  12.452  1.00  0.00     0.032 A 
HETATM   23  H   UNL     1      43.883  -6.491  14.692  1.00  0.00     0.170 HD
ENDBRANCH   9  12
ENDBRANCH   7   8
ENDBRANCH   3   7
BRANCH   1  24
HETATM   24  C   UNL     1      42.659 -13.604   5.394  1.00  0.00     0.070 A 
HETATM   25  C   UNL     1      42.343 -13.227   4.075  1.00  0.00     0.095 A 
HETATM   26  C   UNL     1      42.491 -14.167   3.052  1.00  0.00     0.040 A 
HETATM   27  C   UNL     1      42.980 -15.448   3.332  1.00  0.00     0.019 A 
HETATM   28  C   UNL     1      43.306 -15.822   4.644  1.00  0.00     0.050 A 
HETATM   29  C   UNL     1      43.105 -14.899   5.679  1.00  0.00     0.048 A 
BRANCH  25  30
HETATM   30  O   UNL     1      41.842 -11.963   3.903  1.00  0.00    -0.349 OA
BRANCH  30  31
HETATM   31  C   UNL     1      42.614 -11.050   3.127  1.00  0.00     0.171 C 
HETATM   32  C   UNL     1      41.798 -10.675   1.903  1.00  0.00     0.034 C 
ENDBRANCH  30  31
ENDBRANCH  25  30
BRANCH  28  33
HETATM   33  C   UNL     1      43.891 -17.186   4.918  1.00  0.00     0.417 C 
HETATM   34  F   UNL     1      45.039 -17.146   5.651  1.00  0.00    -0.166 F 
HETATM   35  F   UNL     1      43.037 -17.992   5.605  1.00  0.00    -0.166 F 
HETATM   36  F   UNL     1      44.202 -17.856   3.774  1.00  0.00    -0.166 F 
ENDBRANCH  28  33
ENDBRANCH   1  24
TORSDOF 7
ENDMDL
MODEL 5
REMARK VINA RESULT:      -8.3      5.221      8.267
REMARK  7 active torsions:
REMARK  status: ('A' for Active; 'I' for Inactive)
REMARK    1  A    between atoms: C_2  and  O_3 
REMARK    2  A    between atoms: O_3  and  C_4 
REMARK    3  A    between atoms: C_5  and  N_6 
REMARK       I    between atoms: N_6  and  C_7 
REMARK       I    between atoms: C_7  and  N_8 
REMARK    4  A    between atoms: N_8  and  C_9 
REMARK    5  A    between atoms: C_9  and  C_10 
REMARK       I    between atoms: C_10  and  N_11 
REMARK    6  A    between atoms: N_11  and  C_12 
REMARK    7  A    between atoms: C_25  and  C_26 
ROOT
HETATM    1  N   UNL     1      42.701 -15.399   1.496  1.00  0.00    -0.306 N 
HETATM    2  C   UNL     1      41.364 -15.194   1.220  1.00  0.00     0.321 C 
HETATM    3  N   UNL     1      41.186 -14.137   0.370  1.00  0.00    -0.334 N 
HETATM    4  O   UNL     1      40.435 -15.903   1.590  1.00  0.00    -0.247 OA
HETATM    5  H   UNL     1      43.242 -15.395   0.644  1.00  0.00     0.171 HD
HETATM    6  H   UNL     1      41.965 -13.501   0.267  1.00  0.00     0.164 HD
ENDROOT
BRANCH   3   7
HETATM    7  C   UNL     1      40.115 -14.071  -0.612  1.00  0.00     0.227 C 
BRANCH   7   8
HETATM    8  C   UNL     1      39.574 -12.709  -1.090  1.00  0.00     0.239 C 
HETATM    9  N   UNL     1      38.221 -12.540  -0.884  1.00  0.00    -0.326 N 
HETATM   10  H   UNL     1      37.771 -13.240  -0.289  1.00  0.00     0.169 HD
HETATM   11  O   UNL     1      40.298 -11.962  -1.747  1.00  0.00    -0.271 OA
BRANCH   9  12
HETATM   12  C   UNL     1      37.363 -11.594  -1.478  1.00  0.00     0.037 A 
HETATM   13  C   UNL     1      36.894 -11.691  -2.794  1.00  0.00     0.061 A 
HETATM   14  C   UNL     1      35.995 -10.734  -3.211  1.00  0.00     0.065 A 
HETATM   15  C   UNL     1      35.566  -9.700  -2.384  1.00  0.00     0.063 A 
HETATM   16  N   UNL     1      35.344 -10.602  -4.434  1.00  0.00    -0.306 N 
HETATM   17  N   UNL     1      34.653  -8.931  -3.098  1.00  0.00    -0.307 N 
HETATM   18  C   UNL     1      36.017  -9.562  -1.097  1.00  0.00     0.034 A 
HETATM   19  C   UNL     1      34.500  -9.484  -4.378  1.00  0.00     0.325 A 
HETATM   20  H   UNL     1      34.153  -8.119  -2.775  1.00  0.00     0.170 HD
HETATM   21  O   UNL     1      33.770  -9.076  -5.262  1.00  0.00    -0.247 OA
HETATM   22  C   UNL     1      36.925 -10.529  -0.646  1.00  0.00     0.032 A 
HETATM   23  H   UNL     1      35.433 -11.205  -5.236  1.00  0.00     0.170 HD
ENDBRANCH   9  12
ENDBRANCH   7   8
ENDBRANCH   3   7
BRANCH   1  24
HETATM   24  C   UNL     1      43.069 -16.391   2.438  1.00  0.00     0.070 A 
HETATM   25  C   UNL     1      43.314 -16.062   3.784  1.00  0.00     0.095 A 
HETATM   26  C   UNL     1      43.678 -17.079   4.671  1.00  0.00     0.040 A 
HETATM   27  C   UNL     1      43.758 -18.406   4.233  1.00  0.00     0.019 A 
HETATM   28  C   UNL     1      43.503 -18.738   2.895  1.00  0.00     0.050 A 
HETATM   29  C   UNL     1      43.194 -17.712   1.991  1.00  0.00     0.048 A 
BRANCH  25  30
HETATM   30  O   UNL     1      43.241 -14.733   4.112  1.00  0.00    -0.349 OA
BRANCH  30  31
HETATM   31  C   UNL     1      42.465 -14.379   5.254  1.00  0.00     0.171 C 
HETATM   32  C   UNL     1      41.000 -14.483   4.871  1.00  0.00     0.034 C 
ENDBRANCH  30  31
ENDBRANCH  25  30
BRANCH  28  33
HETATM   33  C   UNL     1      43.533 -20.181   2.455  1.00  0.00     0.417 C 
HETATM   34  F   UNL     1      44.500 -20.447   1.532  1.00  0.00    -0.166 F 
HETATM   35  F   UNL     1      43.757 -21.037   3.489  1.00  0.00    -0.166 F 
HETATM   36  F   UNL     1      42.359 -20.574   1.889  1.00  0.00    -0.166 F 
ENDBRANCH  28  33
ENDBRANCH   1  24
TORSDOF 7
ENDMDL
MODEL 6
REMARK VINA RESULT:      -8.1      3.064      4.980
REMARK  7 active torsions:
REMARK  status: ('A' for Active; 'I' for Inactive)
REMARK    1  A    between atoms: C_2  and  O_3 
REMARK    2  A    between atoms: O_3  and  C_4 
REMARK    3  A    between atoms: C_5  and  N_6 
REMARK       I    between atoms: N_6  and  C_7 
REMARK       I    between atoms: C_7  and  N_8 
REMARK    4  A    between atoms: N_8  and  C_9 
REMARK    5  A    between atoms: C_9  and  C_10 
REMARK       I    between atoms: C_10  and  N_11 
REMARK    6  A    between atoms: N_11  and  C_12 
REMARK    7  A    between atoms: C_25  and  C_26 
ROOT
HETATM    1  N   UNL     1      41.923 -14.057   5.762  1.00  0.00    -0.306 N 
HETATM    2  C   UNL     1      42.762 -12.967   5.651  1.00  0.00     0.321 C 
HETATM    3  N   UNL     1      42.906 -12.324   6.851  1.00  0.00    -0.334 N 
HETATM    4  O   UNL     1      43.391 -12.640   4.652  1.00  0.00    -0.247 OA
HETATM    5  H   UNL     1      42.178 -14.620   6.560  1.00  0.00     0.171 HD
HETATM    6  H   UNL     1      42.220 -12.534   7.564  1.00  0.00     0.164 HD
ENDROOT
BRANCH   3   7
HETATM    7  C   UNL     1      44.130 -11.651   7.256  1.00  0.00     0.227 C 
BRANCH   7   8
HETATM    8  C   UNL     1      44.238 -10.992   8.645  1.00  0.00     0.239 C 
HETATM    9  N   UNL     1      43.055 -10.451   9.103  1.00  0.00    -0.326 N 
HETATM   10  H   UNL     1      42.218 -10.698   8.570  1.00  0.00     0.169 HD
HETATM   11  O   UNL     1      45.344 -10.840   9.163  1.00  0.00    -0.271 OA
BRANCH   9  12
HETATM   12  C   UNL     1      42.872  -9.515  10.140  1.00  0.00     0.037 A 
HETATM   13  C   UNL     1      42.701  -9.869  11.484  1.00  0.00     0.061 A 
HETATM   14  C   UNL     1      42.615  -8.841  12.396  1.00  0.00     0.065 A 
HETATM   15  C   UNL     1      42.680  -7.501  12.023  1.00  0.00     0.063 A 
HETATM   16  N   UNL     1      42.481  -8.893  13.780  1.00  0.00    -0.306 N 
HETATM   17  N   UNL     1      42.585  -6.730  13.176  1.00  0.00    -0.307 N 
HETATM   18  C   UNL     1      42.828  -7.116  10.715  1.00  0.00     0.034 A 
HETATM   19  C   UNL     1      42.466  -7.584  14.282  1.00  0.00     0.325 A 
HETATM   20  H   UNL     1      42.613  -5.726  13.244  1.00  0.00     0.170 HD
HETATM   21  O   UNL     1      42.375  -7.251  15.449  1.00  0.00    -0.247 OA
HETATM   22  C   UNL     1      42.927  -8.144   9.768  1.00  0.00     0.032 A 
HETATM   23  H   UNL     1      42.422  -9.719  14.353  1.00  0.00     0.170 HD
ENDBRANCH   9  12
ENDBRANCH   7   8
ENDBRANCH   3   7
BRANCH   1  24
HETATM   24  C   UNL     1      41.578 -14.786   4.597  1.00  0.00     0.070 A 
HETATM   25  C   UNL     1      40.508 -14.384   3.776  1.00  0.00     0.095 A 
HETATM   26  C   UNL     1      40.209 -15.141   2.640  1.00  0.00     0.040 A 
HETATM   27  C   UNL     1      40.985 -16.257   2.308  1.00  0.00     0.019 A 
HETATM   28  C   UNL     1      42.058 -16.653   3.118  1.00  0.00     0.050 A 
HETATM   29  C   UNL     1      42.326 -15.928   4.288  1.00  0.00     0.048 A 
BRANCH  25  30
HETATM   30  O   UNL     1      39.787 -13.297   4.199  1.00  0.00    -0.349 OA
BRANCH  30  31
HETATM   31  C   UNL     1      39.409 -12.336   3.217  1.00  0.00     0.171 C 
HETATM   32  C   UNL     1      40.377 -11.170   3.311  1.00  0.00     0.034 C 
ENDBRANCH  30  31
ENDBRANCH  25  30
BRANCH  28  33
HETATM   33  C   UNL     1      42.923 -17.820   2.710  1.00  0.00     0.417 C 
HETATM   34  F   UNL     1      43.950 -17.473   1.884  1.00  0.00    -0.166 F 
HETATM   35  F   UNL     1      43.497 -18.443   3.777  1.00  0.00    -0.166 F 
HETATM   36  F   UNL     1      42.220 -18.780   2.049  1.00  0.00    -0.166 F 
ENDBRANCH  28  33
ENDBRANCH   1  24
TORSDOF 7
ENDMDL
MODEL 7
REMARK VINA RESULT:      -8.0      4.469      6.706
REMARK  7 active torsions:
REMARK  status: ('A' for Active; 'I' for Inactive)
REMARK    1  A    between atoms: C_2  and  O_3 
REMARK    2  A    between atoms: O_3  and  C_4 
REMARK    3  A    between atoms: C_5  and  N_6 
REMARK       I    between atoms: N_6  and  C_7 
REMARK       I    between atoms: C_7  and  N_8 
REMARK    4  A    between atoms: N_8  and  C_9 
REMARK    5  A    between atoms: C_9  and  C_10 
REMARK       I    between atoms: C_10  and  N_11 
REMARK    6  A    between atoms: N_11  and  C_12 
REMARK    7  A    between atoms: C_25  and  C_26 
ROOT
HETATM    1  N   UNL     1      42.570 -15.373   1.238  1.00  0.00    -0.306 N 
HETATM    2  C   UNL     1      41.225 -15.172   1.003  1.00  0.00     0.321 C 
HETATM    3  N   UNL     1      41.022 -14.167   0.095  1.00  0.00    -0.334 N 
HETATM    4  O   UNL     1      40.306 -15.847   1.451  1.00  0.00    -0.247 OA
HETATM    5  H   UNL     1      43.077 -15.428   0.367  1.00  0.00     0.171 HD
HETATM    6  H   UNL     1      41.801 -13.547  -0.078  1.00  0.00     0.164 HD
ENDROOT
BRANCH   3   7
HETATM    7  C   UNL     1      39.913 -14.152  -0.846  1.00  0.00     0.227 C 
BRANCH   7   8
HETATM    8  C   UNL     1      39.209 -12.829  -1.205  1.00  0.00     0.239 C 
HETATM    9  N   UNL     1      39.038 -11.976  -0.134  1.00  0.00    -0.326 N 
HETATM   10  H   UNL     1      39.544 -12.227   0.719  1.00  0.00     0.169 HD
HETATM   11  O   UNL     1      38.713 -12.685  -2.321  1.00  0.00    -0.271 OA
BRANCH   9  12
HETATM   12  C   UNL     1      38.170 -10.871  -0.033  1.00  0.00     0.037 A 
HETATM   13  C   UNL     1      36.879 -10.946   0.503  1.00  0.00     0.061 A 
HETATM   14  C   UNL     1      36.177  -9.766   0.613  1.00  0.00     0.065 A 
HETATM   15  C   UNL     1      36.701  -8.543   0.205  1.00  0.00     0.063 A 
HETATM   16  N   UNL     1      34.906  -9.535   1.133  1.00  0.00    -0.306 N 
HETATM   17  N   UNL     1      35.754  -7.560   0.472  1.00  0.00    -0.307 N 
HETATM   18  C   UNL     1      37.953  -8.433  -0.341  1.00  0.00     0.034 A 
HETATM   19  C   UNL     1      34.630  -8.163   1.056  1.00  0.00     0.325 A 
HETATM   20  H   UNL     1      35.835  -6.571   0.305  1.00  0.00     0.170 HD
HETATM   21  O   UNL     1      33.617  -7.602   1.430  1.00  0.00    -0.247 OA
HETATM   22  C   UNL     1      38.692  -9.619  -0.455  1.00  0.00     0.032 A 
HETATM   23  H   UNL     1      34.278 -10.219   1.522  1.00  0.00     0.170 HD
ENDBRANCH   9  12
ENDBRANCH   7   8
ENDBRANCH   3   7
BRANCH   1  24
HETATM   24  C   UNL     1      42.967 -16.308   2.225  1.00  0.00     0.070 A 
HETATM   25  C   UNL     1      43.254 -15.901   3.541  1.00  0.00     0.095 A 
HETATM   26  C   UNL     1      43.645 -16.865   4.474  1.00  0.00     0.040 A 
HETATM   27  C   UNL     1      43.712 -18.215   4.113  1.00  0.00     0.019 A 
HETATM   28  C   UNL     1      43.417 -18.625   2.805  1.00  0.00     0.050 A 
HETATM   29  C   UNL     1      43.079 -17.653   1.853  1.00  0.00     0.048 A 
BRANCH  25  30
HETATM   30  O   UNL     1      43.191 -14.555   3.792  1.00  0.00    -0.349 OA
BRANCH  30  31
HETATM   31  C   UNL     1      42.471 -14.135   4.949  1.00  0.00     0.171 C 
HETATM   32  C   UNL     1      40.989 -14.198   4.623  1.00  0.00     0.034 C 
ENDBRANCH  30  31
ENDBRANCH  25  30
BRANCH  28  33
HETATM   33  C   UNL     1      43.433 -20.091   2.450  1.00  0.00     0.417 C 
HETATM   34  F   UNL     1      43.588 -20.909   3.529  1.00  0.00    -0.166 F 
HETATM   35  F   UNL     1      42.285 -20.493   1.839  1.00  0.00    -0.166 F 
HETATM   36  F   UNL     1      44.444 -20.406   1.595  1.00  0.00    -0.166 F 
ENDBRANCH  28  33
ENDBRANCH   1  24
TORSDOF 7
ENDMDL
MODEL 8
REMARK VINA RESULT:      -8.0      1.926      2.413
REMARK  7 active torsions:
REMARK  status: ('A' for Active; 'I' for Inactive)
REMARK    1  A    between atoms: C_2  and  O_3 
REMARK    2  A    between atoms: O_3  and  C_4 
REMARK    3  A    between atoms: C_5  and  N_6 
REMARK       I    between atoms: N_6  and  C_7 
REMARK       I    between atoms: C_7  and  N_8 
REMARK    4  A    between atoms: N_8  and  C_9 
REMARK    5  A    between atoms: C_9  and  C_10 
REMARK       I    between atoms: C_10  and  N_11 
REMARK    6  A    between atoms: N_11  and  C_12 
REMARK    7  A    between atoms: C_25  and  C_26 
ROOT
HETATM    1  N   UNL     1      41.388 -15.961   2.274  1.00  0.00    -0.306 N 
HETATM    2  C   UNL     1      41.941 -14.935   1.535  1.00  0.00     0.321 C 
HETATM    3  N   UNL     1      40.981 -14.233   0.857  1.00  0.00    -0.334 N 
HETATM    4  O   UNL     1      43.120 -14.600   1.535  1.00  0.00    -0.247 OA
HETATM    5  H   UNL     1      40.597 -15.627   2.805  1.00  0.00     0.171 HD
HETATM    6  H   UNL     1      40.078 -14.678   0.758  1.00  0.00     0.164 HD
ENDROOT
BRANCH   3   7
HETATM    7  C   UNL     1      41.074 -12.807   0.584  1.00  0.00     0.227 C 
BRANCH   7   8
HETATM    8  C   UNL     1      41.055 -11.786   1.738  1.00  0.00     0.239 C 
HETATM    9  N   UNL     1      41.453 -12.305   2.953  1.00  0.00    -0.326 N 
HETATM   10  H   UNL     1      41.877 -13.235   2.920  1.00  0.00     0.169 HD
HETATM   11  O   UNL     1      40.554 -10.677   1.563  1.00  0.00    -0.271 OA
BRANCH   9  12
HETATM   12  C   UNL     1      41.244 -11.767   4.238  1.00  0.00     0.037 A 
HETATM   13  C   UNL     1      42.136 -10.889   4.865  1.00  0.00     0.061 A 
HETATM   14  C   UNL     1      41.758 -10.380   6.087  1.00  0.00     0.065 A 
HETATM   15  C   UNL     1      40.555 -10.719   6.700  1.00  0.00     0.063 A 
HETATM   16  N   UNL     1      42.417  -9.473   6.912  1.00  0.00    -0.306 N 
HETATM   17  N   UNL     1      40.473 -10.021   7.900  1.00  0.00    -0.307 N 
HETATM   18  C   UNL     1      39.665 -11.589   6.125  1.00  0.00     0.034 A 
HETATM   19  C   UNL     1      41.626  -9.235   8.044  1.00  0.00     0.325 A 
HETATM   20  H   UNL     1      39.720 -10.039   8.568  1.00  0.00     0.170 HD
HETATM   21  O   UNL     1      41.883  -8.487   8.970  1.00  0.00    -0.247 OA
HETATM   22  C   UNL     1      40.023 -12.113   4.876  1.00  0.00     0.032 A 
HETATM   23  H   UNL     1      43.306  -9.031   6.739  1.00  0.00     0.170 HD
ENDBRANCH   9  12
ENDBRANCH   7   8
ENDBRANCH   3   7
BRANCH   1  24
HETATM   24  C   UNL     1      42.242 -16.856   2.963  1.00  0.00     0.070 A 
HETATM   25  C   UNL     1      42.699 -16.571   4.263  1.00  0.00     0.095 A 
HETATM   26  C   UNL     1      43.544 -17.487   4.896  1.00  0.00     0.040 A 
HETATM   27  C   UNL     1      43.896 -18.683   4.260  1.00  0.00     0.019 A 
HETATM   28  C   UNL     1      43.433 -18.974   2.969  1.00  0.00     0.050 A 
HETATM   29  C   UNL     1      42.631 -18.031   2.310  1.00  0.00     0.048 A 
BRANCH  25  30
HETATM   30  O   UNL     1      42.327 -15.362   4.792  1.00  0.00    -0.349 OA
BRANCH  30  31
HETATM   31  C   UNL     1      43.329 -14.601   5.461  1.00  0.00     0.171 C 
HETATM   32  C   UNL     1      42.771 -14.184   6.811  1.00  0.00     0.034 C 
ENDBRANCH  30  31
ENDBRANCH  25  30
BRANCH  28  33
HETATM   33  C   UNL     1      43.770 -20.296   2.324  1.00  0.00     0.417 C 
HETATM   34  F   UNL     1      42.808 -20.745   1.470  1.00  0.00    -0.166 F 
HETATM   35  F   UNL     1      44.920 -20.243   1.597  1.00  0.00    -0.166 F 
HETATM   36  F   UNL     1      43.950 -21.288   3.239  1.00  0.00    -0.166 F 
ENDBRANCH  28  33
ENDBRANCH   1  24
TORSDOF 7
ENDMDL
MODEL 9
REMARK VINA RESULT:      -8.0      3.329      4.986
REMARK  7 active torsions:
REMARK  status: ('A' for Active; 'I' for Inactive)
REMARK    1  A    between atoms: C_2  and  O_3 
REMARK    2  A    between atoms: O_3  and  C_4 
REMARK    3  A    between atoms: C_5  and  N_6 
REMARK       I    between atoms: N_6  and  C_7 
REMARK       I    between atoms: C_7  and  N_8 
REMARK    4  A    between atoms: N_8  and  C_9 
REMARK    5  A    between atoms: C_9  and  C_10 
REMARK       I    between atoms: C_10  and  N_11 
REMARK    6  A    between atoms: N_11  and  C_12 
REMARK    7  A    between atoms: C_25  and  C_26 
ROOT
HETATM    1  N   UNL     1      42.604 -14.408   5.681  1.00  0.00    -0.306 N 
HETATM    2  C   UNL     1      43.104 -13.129   5.540  1.00  0.00     0.321 C 
HETATM    3  N   UNL     1      43.069 -12.445   6.726  1.00  0.00    -0.334 N 
HETATM    4  O   UNL     1      43.611 -12.661   4.527  1.00  0.00    -0.247 OA
HETATM    5  H   UNL     1      43.011 -14.859   6.487  1.00  0.00     0.171 HD
HETATM    6  H   UNL     1      42.474 -12.823   7.450  1.00  0.00     0.164 HD
ENDROOT
BRANCH   3   7
HETATM    7  C   UNL     1      44.059 -11.448   7.103  1.00  0.00     0.227 C 
BRANCH   7   8
HETATM    8  C   UNL     1      44.113 -10.906   8.545  1.00  0.00     0.239 C 
HETATM    9  N   UNL     1      42.958 -10.271   8.950  1.00  0.00    -0.326 N 
HETATM   10  H   UNL     1      42.150 -10.385   8.333  1.00  0.00     0.169 HD
HETATM   11  O   UNL     1      45.179 -10.916   9.160  1.00  0.00    -0.271 OA
BRANCH   9  12
HETATM   12  C   UNL     1      42.783  -9.397  10.041  1.00  0.00     0.037 A 
HETATM   13  C   UNL     1      42.591  -9.830  11.358  1.00  0.00     0.061 A 
HETATM   14  C   UNL     1      42.518  -8.858  12.332  1.00  0.00     0.065 A 
HETATM   15  C   UNL     1      42.614  -7.499  12.042  1.00  0.00     0.063 A 
HETATM   16  N   UNL     1      42.369  -8.992  13.709  1.00  0.00    -0.306 N 
HETATM   17  N   UNL     1      42.524  -6.799  13.240  1.00  0.00    -0.307 N 
HETATM   18  C   UNL     1      42.784  -7.038  10.763  1.00  0.00     0.034 A 
HETATM   19  C   UNL     1      42.376  -7.717  14.290  1.00  0.00     0.325 A 
HETATM   20  H   UNL     1      42.572  -5.802  13.371  1.00  0.00     0.170 HD
HETATM   21  O   UNL     1      42.279  -7.454  15.475  1.00  0.00    -0.247 OA
HETATM   22  C   UNL     1      42.871  -8.008   9.755  1.00  0.00     0.032 A 
HETATM   23  H   UNL     1      42.286  -9.851  14.229  1.00  0.00     0.170 HD
ENDBRANCH   9  12
ENDBRANCH   7   8
ENDBRANCH   3   7
BRANCH   1  24
HETATM   24  C   UNL     1      42.470 -15.229   4.535  1.00  0.00     0.070 A 
HETATM   25  C   UNL     1      43.246 -16.392   4.376  1.00  0.00     0.095 A 
HETATM   26  C   UNL     1      43.076 -17.163   3.224  1.00  0.00     0.040 A 
HETATM   27  C   UNL     1      42.123 -16.804   2.265  1.00  0.00     0.019 A 
HETATM   28  C   UNL     1      41.340 -15.652   2.426  1.00  0.00     0.050 A 
HETATM   29  C   UNL     1      41.549 -14.845   3.553  1.00  0.00     0.048 A 
BRANCH  25  30
HETATM   30  O   UNL     1      44.174 -16.645   5.353  1.00  0.00    -0.349 OA
BRANCH  30  31
HETATM   31  C   UNL     1      43.820 -17.579   6.370  1.00  0.00     0.171 C 
HETATM   32  C   UNL     1      43.964 -16.881   7.711  1.00  0.00     0.034 C 
ENDBRANCH  30  31
ENDBRANCH  25  30
BRANCH  28  33
HETATM   33  C   UNL     1      40.274 -15.314   1.413  1.00  0.00     0.417 C 
HETATM   34  F   UNL     1      39.535 -16.391   1.023  1.00  0.00    -0.166 F 
HETATM   35  F   UNL     1      39.382 -14.399   1.880  1.00  0.00    -0.166 F 
HETATM   36  F   UNL     1      40.793 -14.784   0.271  1.00  0.00    -0.166 F 
ENDBRANCH  28  33
ENDBRANCH   1  24
TORSDOF 7
ENDMDL
MODEL 10
REMARK VINA RESULT:      -7.9      2.241      2.801
REMARK  7 active torsions:
REMARK  status: ('A' for Active; 'I' for Inactive)
REMARK    1  A    between atoms: C_2  and  O_3 
REMARK    2  A    between atoms: O_3  and  C_4 
REMARK    3  A    between atoms: C_5  and  N_6 
REMARK       I    between atoms: N_6  and  C_7 
REMARK       I    between atoms: C_7  and  N_8 
REMARK    4  A    between atoms: N_8  and  C_9 
REMARK    5  A    between atoms: C_9  and  C_10 
REMARK       I    between atoms: C_10  and  N_11 
REMARK    6  A    between atoms: N_11  and  C_12 
REMARK    7  A    between atoms: C_25  and  C_26 
ROOT
HETATM    1  N   UNL     1      41.827 -15.668   3.050  1.00  0.00    -0.306 N 
HETATM    2  C   UNL     1      42.295 -14.687   2.201  1.00  0.00     0.321 C 
HETATM    3  N   UNL     1      41.293 -13.833   1.824  1.00  0.00    -0.334 N 
HETATM    4  O   UNL     1      43.464 -14.508   1.879  1.00  0.00    -0.247 OA
HETATM    5  H   UNL     1      41.265 -15.262   3.784  1.00  0.00     0.171 HD
HETATM    6  H   UNL     1      40.345 -14.152   1.972  1.00  0.00     0.164 HD
ENDROOT
BRANCH   3   7
HETATM    7  C   UNL     1      41.505 -12.419   1.554  1.00  0.00     0.227 C 
BRANCH   7   8
HETATM    8  C   UNL     1      42.010 -11.478   2.664  1.00  0.00     0.239 C 
HETATM    9  N   UNL     1      41.007 -10.800   3.325  1.00  0.00    -0.326 N 
HETATM   10  H   UNL     1      40.055 -11.122   3.136  1.00  0.00     0.169 HD
HETATM   11  O   UNL     1      43.216 -11.263   2.779  1.00  0.00    -0.271 OA
BRANCH   9  12
HETATM   12  C   UNL     1      41.121  -9.653   4.134  1.00  0.00     0.037 A 
HETATM   13  C   UNL     1      41.504  -9.688   5.481  1.00  0.00     0.061 A 
HETATM   14  C   UNL     1      41.651  -8.478   6.122  1.00  0.00     0.065 A 
HETATM   15  C   UNL     1      41.423  -7.261   5.485  1.00  0.00     0.063 A 
HETATM   16  N   UNL     1      42.050  -8.209   7.428  1.00  0.00    -0.306 N 
HETATM   17  N   UNL     1      41.680  -6.245   6.399  1.00  0.00    -0.307 N 
HETATM   18  C   UNL     1      41.029  -7.188   4.175  1.00  0.00     0.034 A 
HETATM   19  C   UNL     1      42.078  -6.820   7.615  1.00  0.00     0.325 A 
HETATM   20  H   UNL     1      41.620  -5.252   6.243  1.00  0.00     0.170 HD
HETATM   21  O   UNL     1      42.392  -6.227   8.630  1.00  0.00    -0.247 OA
HETATM   22  C   UNL     1      40.881  -8.405   3.497  1.00  0.00     0.032 A 
HETATM   23  H   UNL     1      42.301  -8.881   8.135  1.00  0.00     0.170 HD
ENDBRANCH   9  12
ENDBRANCH   7   8
ENDBRANCH   3   7
BRANCH   1  24
HETATM   24  C   UNL     1      42.704 -16.700   3.464  1.00  0.00     0.070 A 
HETATM   25  C   UNL     1      43.525 -16.548   4.598  1.00  0.00     0.095 A 
HETATM   26  C   UNL     1      44.374 -17.596   4.960  1.00  0.00     0.040 A 
HETATM   27  C   UNL     1      44.379 -18.790   4.229  1.00  0.00     0.019 A 
HETATM   28  C   UNL     1      43.555 -18.948   3.106  1.00  0.00     0.050 A 
HETATM   29  C   UNL     1      42.743 -17.877   2.707  1.00  0.00     0.048 A 
BRANCH  25  30
HETATM   30  O   UNL     1      43.473 -15.334   5.231  1.00  0.00    -0.349 OA
BRANCH  30  31
HETATM   31  C   UNL     1      43.506 -15.333   6.656  1.00  0.00     0.171 C 
HETATM   32  C   UNL     1      42.126 -15.725   7.153  1.00  0.00     0.034 C 
ENDBRANCH  30  31
ENDBRANCH  25  30
BRANCH  28  33
HETATM   33  C   UNL     1      43.527 -20.263   2.367  1.00  0.00     0.417 C 
HETATM   34  F   UNL     1      43.729 -21.343   3.174  1.00  0.00    -0.166 F 
HETATM   35  F   UNL     1      42.340 -20.484   1.739  1.00  0.00    -0.166 F 
HETATM   36  F   UNL     1      44.483 -20.336   1.401  1.00  0.00    -0.166 F 
ENDBRANCH  28  33
ENDBRANCH   1  24
TORSDOF 7
ENDMDL
