MODEL 1
REMARK VINA RESULT:      -9.1      0.000      0.000
REMARK  4 active torsions:
REMARK  status: ('A' for Active; 'I' for Inactive)
REMARK    1  A    between atoms: C_4  and  N_5 
REMARK       I    between atoms: N_5  and  C_6 
REMARK       I    between atoms: C_6  and  N_7 
REMARK    2  A    between atoms: N_7  and  C_8 
REMARK    3  A    between atoms: C_8  and  C_9 
REMARK       I    between atoms: C_9  and  N_10 
REMARK    4  A    between atoms: N_10  and  C_11 
ROOT
HETATM    1  N   UNL     1      41.465 -10.426   7.728  1.00  0.00    -0.307 N 
HETATM    2  C   UNL     1      40.883 -10.535   6.493  1.00  0.00     0.321 C 
HETATM    3  N   UNL     1      40.105 -11.669   6.412  1.00  0.00    -0.334 N 
HETATM    4  O   UNL     1      40.991  -9.749   5.560  1.00  0.00    -0.247 OA
HETATM    5  H   UNL     1      40.950 -10.828   8.505  1.00  0.00     0.170 HD
HETATM    6  H   UNL     1      40.476 -12.469   6.908  1.00  0.00     0.164 HD
ENDROOT
BRANCH   3   7
HETATM    7  C   UNL     1      39.398 -11.947   5.179  1.00  0.00     0.227 C 
BRANCH   7   8
HETATM    8  C   UNL     1      40.246 -12.812   4.241  1.00  0.00     0.239 C 
HETATM    9  N   UNL     1      40.355 -14.116   4.674  1.00  0.00    -0.324 N 
HETATM   10  H   UNL     1      39.732 -14.417   5.429  1.00  0.00     0.169 HD
HETATM   11  O   UNL     1      40.702 -12.348   3.198  1.00  0.00    -0.271 OA
BRANCH   9  12
HETATM   12  C   UNL     1      41.126 -15.173   4.138  1.00  0.00     0.064 A 
HETATM   13  C   UNL     1      42.252 -15.556   4.886  1.00  0.00     0.093 A 
HETATM   14  C   UNL     1      43.066 -16.598   4.393  1.00  0.00    -0.005 A 
HETATM   15  N   UNL     1      42.541 -14.922   6.048  1.00  0.00    -0.258 NA
HETATM   16  C   UNL     1      44.190 -16.974   5.141  1.00  0.00     0.015 A 
HETATM   17  C   UNL     1      42.751 -17.228   3.179  1.00  0.00     0.014 A 
HETATM   18  C   UNL     1      44.478 -16.325   6.335  1.00  0.00     0.020 A 
HETATM   19  C   UNL     1      43.631 -15.315   6.743  1.00  0.00     0.117 A 
HETATM   20  C   UNL     1      41.635 -16.830   2.450  1.00  0.00     0.003 A 
HETATM   21  C   UNL     1      40.823 -15.802   2.926  1.00  0.00     0.032 A 
ENDBRANCH   9  12
ENDBRANCH   7   8
ENDBRANCH   3   7
BRANCH   1  22
HETATM   22  C   UNL     1      42.433  -9.472   8.125  1.00  0.00     0.066 A 
HETATM   23  C   UNL     1      42.077  -8.226   8.656  1.00  0.00     0.038 A 
HETATM   24  C   UNL     1      43.061  -7.295   9.000  1.00  0.00    -0.059 A 
HETATM   25  C   UNL     1      42.680  -5.964   9.577  1.00  0.00     0.048 C 
HETATM   26  C   UNL     1      44.405  -7.644   8.844  1.00  0.00     0.020 A 
HETATM   27  C   UNL     1      44.767  -8.894   8.312  1.00  0.00    -0.005 A 
HETATM   28  C   UNL     1      43.777  -9.823   7.928  1.00  0.00     0.093 A 
HETATM   29  C   UNL     1      46.112  -9.257   8.153  1.00  0.00     0.015 A 
HETATM   30  N   UNL     1      44.096 -11.033   7.403  1.00  0.00    -0.258 NA
HETATM   31  C   UNL     1      45.404 -11.344   7.270  1.00  0.00     0.117 A 
HETATM   32  C   UNL     1      46.438 -10.501   7.627  1.00  0.00     0.020 A 
ENDBRANCH   1  22
TORSDOF 4
ENDMDL
MODEL 2
REMARK VINA RESULT:      -9.0      2.316      9.004
REMARK  4 active torsions:
REMARK  status: ('A' for Active; 'I' for Inactive)
REMARK    1  A    between atoms: C_4  and  N_5 
REMARK       I    between atoms: N_5  and  C_6 
REMARK       I    between atoms: C_6  and  N_7 
REMARK    2  A    between atoms: N_7  and  C_8 
REMARK    3  A    between atoms: C_8  and  C_9 
REMARK       I    between atoms: C_9  and  N_10 
REMARK    4  A    between atoms: N_10  and  C_11 
ROOT
HETATM    1  N   UNL     1      42.417 -14.211   5.515  1.00  0.00    -0.307 N 
HETATM    2  C   UNL     1      43.014 -12.979   5.494  1.00  0.00     0.321 C 
HETATM    3  N   UNL     1      42.931 -12.369   6.726  1.00  0.00    -0.334 N 
HETATM    4  O   UNL     1      43.577 -12.454   4.541  1.00  0.00    -0.247 OA
HETATM    5  H   UNL     1      42.430 -14.703   6.404  1.00  0.00     0.170 HD
HETATM    6  H   UNL     1      42.067 -12.543   7.223  1.00  0.00     0.164 HD
ENDROOT
BRANCH   3   7
HETATM    7  C   UNL     1      43.520 -11.057   6.899  1.00  0.00     0.227 C 
BRANCH   7   8
HETATM    8  C   UNL     1      43.819 -10.777   8.375  1.00  0.00     0.239 C 
HETATM    9  N   UNL     1      42.805 -10.086   9.001  1.00  0.00    -0.324 N 
HETATM   10  H   UNL     1      41.913 -10.003   8.506  1.00  0.00     0.169 HD
HETATM   11  O   UNL     1      44.845 -11.205   8.900  1.00  0.00    -0.271 OA
BRANCH   9  12
HETATM   12  C   UNL     1      42.759  -9.565  10.315  1.00  0.00     0.064 A 
HETATM   13  C   UNL     1      42.622  -8.170  10.421  1.00  0.00     0.093 A 
HETATM   14  C   UNL     1      42.583  -7.593  11.708  1.00  0.00    -0.005 A 
HETATM   15  N   UNL     1      42.541  -7.410   9.302  1.00  0.00    -0.258 NA
HETATM   16  C   UNL     1      42.449  -6.201  11.809  1.00  0.00     0.015 A 
HETATM   17  C   UNL     1      42.683  -8.403  12.851  1.00  0.00     0.014 A 
HETATM   18  C   UNL     1      42.360  -5.428  10.658  1.00  0.00     0.020 A 
HETATM   19  C   UNL     1      42.409  -6.073   9.440  1.00  0.00     0.117 A 
HETATM   20  C   UNL     1      42.825  -9.781  12.724  1.00  0.00     0.003 A 
HETATM   21  C   UNL     1      42.865 -10.363  11.458  1.00  0.00     0.032 A 
ENDBRANCH   9  12
ENDBRANCH   7   8
ENDBRANCH   3   7
BRANCH   1  22
HETATM   22  C   UNL     1      42.188 -15.060   4.404  1.00  0.00     0.066 A 
HETATM   23  C   UNL     1      41.239 -14.757   3.420  1.00  0.00     0.038 A 
HETATM   24  C   UNL     1      41.012 -15.638   2.359  1.00  0.00    -0.059 A 
HETATM   25  C   UNL     1      40.003 -15.310   1.299  1.00  0.00     0.048 C 
HETATM   26  C   UNL     1      41.776 -16.805   2.276  1.00  0.00     0.020 A 
HETATM   27  C   UNL     1      42.730 -17.113   3.262  1.00  0.00    -0.005 A 
HETATM   28  C   UNL     1      42.936 -16.244   4.355  1.00  0.00     0.093 A 
HETATM   29  C   UNL     1      43.505 -18.279   3.188  1.00  0.00     0.015 A 
HETATM   30  N   UNL     1      43.842 -16.520   5.326  1.00  0.00    -0.258 NA
HETATM   31  C   UNL     1      44.570 -17.653   5.215  1.00  0.00     0.117 A 
HETATM   32  C   UNL     1      44.442 -18.554   4.177  1.00  0.00     0.020 A 
ENDBRANCH   1  22
TORSDOF 4
ENDMDL
MODEL 3
REMARK VINA RESULT:      -8.9      1.645      7.972
REMARK  4 active torsions:
REMARK  status: ('A' for Active; 'I' for Inactive)
REMARK    1  A    between atoms: C_4  and  N_5 
REMARK       I    between atoms: N_5  and  C_6 
REMARK       I    between atoms: C_6  and  N_7 
REMARK    2  A    between atoms: N_7  and  C_8 
REMARK    3  A    between atoms: C_8  and  C_9 
REMARK       I    between atoms: C_9  and  N_10 
REMARK    4  A    between atoms: N_10  and  C_11 
ROOT
HETATM    1  N   UNL     1      40.895 -13.817   5.414  1.00  0.00    -0.307 N 
HETATM    2  C   UNL     1      40.827 -12.462   5.229  1.00  0.00     0.321 C 
HETATM    3  N   UNL     1      40.380 -11.830   6.369  1.00  0.00    -0.334 N 
HETATM    4  O   UNL     1      41.131 -11.844   4.217  1.00  0.00    -0.247 OA
HETATM    5  H   UNL     1      41.083 -14.133   6.361  1.00  0.00     0.170 HD
HETATM    6  H   UNL     1      39.675 -12.342   6.883  1.00  0.00     0.164 HD
ENDROOT
BRANCH   3   7
HETATM    7  C   UNL     1      40.254 -10.387   6.366  1.00  0.00     0.227 C 
BRANCH   7   8
HETATM    8  C   UNL     1      41.523  -9.722   6.908  1.00  0.00     0.239 C 
HETATM    9  N   UNL     1      42.134 -10.467   7.893  1.00  0.00    -0.324 N 
HETATM   10  H   UNL     1      41.816 -11.431   8.022  1.00  0.00     0.169 HD
HETATM   11  O   UNL     1      41.931  -8.665   6.431  1.00  0.00    -0.271 OA
BRANCH   9  12
HETATM   12  C   UNL     1      43.255 -10.141   8.692  1.00  0.00     0.064 A 
HETATM   13  C   UNL     1      42.973  -9.572   9.946  1.00  0.00     0.093 A 
HETATM   14  C   UNL     1      44.053  -9.216  10.781  1.00  0.00    -0.005 A 
HETATM   15  N   UNL     1      41.688  -9.368  10.324  1.00  0.00    -0.258 NA
HETATM   16  C   UNL     1      43.768  -8.645  12.029  1.00  0.00     0.015 A 
HETATM   17  C   UNL     1      45.375  -9.425  10.359  1.00  0.00     0.014 A 
HETATM   18  C   UNL     1      42.448  -8.443  12.415  1.00  0.00     0.020 A 
HETATM   19  C   UNL     1      41.453  -8.819  11.536  1.00  0.00     0.117 A 
HETATM   20  C   UNL     1      45.632  -9.985   9.110  1.00  0.00     0.003 A 
HETATM   21  C   UNL     1      44.574 -10.341   8.276  1.00  0.00     0.032 A 
ENDBRANCH   9  12
ENDBRANCH   7   8
ENDBRANCH   3   7
BRANCH   1  22
HETATM   22  C   UNL     1      41.175 -14.792   4.427  1.00  0.00     0.066 A 
HETATM   23  C   UNL     1      40.414 -14.907   3.257  1.00  0.00     0.038 A 
HETATM   24  C   UNL     1      40.696 -15.908   2.323  1.00  0.00    -0.059 A 
HETATM   25  C   UNL     1      39.886 -16.026   1.066  1.00  0.00     0.048 C 
HETATM   26  C   UNL     1      41.774 -16.765   2.557  1.00  0.00     0.020 A 
HETATM   27  C   UNL     1      42.541 -16.653   3.730  1.00  0.00    -0.005 A 
HETATM   28  C   UNL     1      42.237 -15.668   4.693  1.00  0.00     0.093 A 
HETATM   29  C   UNL     1      43.627 -17.505   3.975  1.00  0.00     0.015 A 
HETATM   30  N   UNL     1      42.954 -15.543   5.838  1.00  0.00    -0.258 NA
HETATM   31  C   UNL     1      43.994 -16.382   6.034  1.00  0.00     0.117 A 
HETATM   32  C   UNL     1      44.368 -17.368   5.142  1.00  0.00     0.020 A 
ENDBRANCH   1  22
TORSDOF 4
ENDMDL
MODEL 4
REMARK VINA RESULT:      -8.9      4.015      8.069
REMARK  4 active torsions:
REMARK  status: ('A' for Active; 'I' for Inactive)
REMARK    1  A    between atoms: C_4  and  N_5 
REMARK       I    between atoms: N_5  and  C_6 
REMARK       I    between atoms: C_6  and  N_7 
REMARK    2  A    between atoms: N_7  and  C_8 
REMARK    3  A    between atoms: C_8  and  C_9 
REMARK       I    between atoms: C_9  and  N_10 
REMARK    4  A    between atoms: N_10  and  C_11 
ROOT
HETATM    1  N   UNL     1      42.624 -16.246   1.973  1.00  0.00    -0.307 N 
HETATM    2  C   UNL     1      41.418 -15.623   1.789  1.00  0.00     0.321 C 
HETATM    3  N   UNL     1      41.326 -15.091   0.522  1.00  0.00    -0.334 N 
HETATM    4  O   UNL     1      40.505 -15.540   2.601  1.00  0.00    -0.247 OA
HETATM    5  H   UNL     1      43.053 -16.649   1.146  1.00  0.00     0.170 HD
HETATM    6  H   UNL     1      42.192 -14.711   0.163  1.00  0.00     0.164 HD
ENDROOT
BRANCH   3   7
HETATM    7  C   UNL     1      40.112 -14.400   0.139  1.00  0.00     0.227 C 
BRANCH   7   8
HETATM    8  C   UNL     1      40.120 -12.953   0.642  1.00  0.00     0.239 C 
HETATM    9  N   UNL     1      39.227 -12.744   1.670  1.00  0.00    -0.324 N 
HETATM   10  H   UNL     1      38.812 -13.569   2.112  1.00  0.00     0.169 HD
HETATM   11  O   UNL     1      40.905 -12.130   0.176  1.00  0.00    -0.271 OA
BRANCH   9  12
HETATM   12  C   UNL     1      38.880 -11.535   2.318  1.00  0.00     0.064 A 
HETATM   13  C   UNL     1      39.080 -11.503   3.709  1.00  0.00     0.093 A 
HETATM   14  C   UNL     1      38.740 -10.327   4.411  1.00  0.00    -0.005 A 
HETATM   15  N   UNL     1      39.580 -12.588   4.348  1.00  0.00    -0.258 NA
HETATM   16  C   UNL     1      38.938 -10.300   5.798  1.00  0.00     0.015 A 
HETATM   17  C   UNL     1      38.210  -9.221   3.726  1.00  0.00     0.014 A 
HETATM   18  C   UNL     1      39.456 -11.414   6.447  1.00  0.00     0.020 A 
HETATM   19  C   UNL     1      39.760 -12.523   5.684  1.00  0.00     0.117 A 
HETATM   20  C   UNL     1      38.014  -9.276   2.350  1.00  0.00     0.003 A 
HETATM   21  C   UNL     1      38.346 -10.432   1.645  1.00  0.00     0.032 A 
ENDBRANCH   9  12
ENDBRANCH   7   8
ENDBRANCH   3   7
BRANCH   1  22
HETATM   22  C   UNL     1      43.124 -16.780   3.186  1.00  0.00     0.066 A 
HETATM   23  C   UNL     1      43.384 -15.976   4.302  1.00  0.00     0.038 A 
HETATM   24  C   UNL     1      43.915 -16.532   5.469  1.00  0.00    -0.059 A 
HETATM   25  C   UNL     1      44.186 -15.673   6.668  1.00  0.00     0.048 C 
HETATM   26  C   UNL     1      44.142 -17.910   5.516  1.00  0.00     0.020 A 
HETATM   27  C   UNL     1      43.881 -18.722   4.399  1.00  0.00    -0.005 A 
HETATM   28  C   UNL     1      43.381 -18.158   3.206  1.00  0.00     0.093 A 
HETATM   29  C   UNL     1      44.102 -20.106   4.435  1.00  0.00     0.015 A 
HETATM   30  N   UNL     1      43.129 -18.915   2.109  1.00  0.00    -0.258 NA
HETATM   31  C   UNL     1      43.353 -20.245   2.186  1.00  0.00     0.117 A 
HETATM   32  C   UNL     1      43.832 -20.882   3.315  1.00  0.00     0.020 A 
ENDBRANCH   1  22
TORSDOF 4
ENDMDL
MODEL 5
REMARK VINA RESULT:      -8.8      1.871      7.816
REMARK  4 active torsions:
REMARK  status: ('A' for Active; 'I' for Inactive)
REMARK    1  A    between atoms: C_4  and  N_5 
REMARK       I    between atoms: N_5  and  C_6 
REMARK       I    between atoms: C_6  and  N_7 
REMARK    2  A    between atoms: N_7  and  C_8 
REMARK    3  A    between atoms: C_8  and  C_9 
REMARK       I    between atoms: C_9  and  N_10 
REMARK    4  A    between atoms: N_10  and  C_11 
ROOT
HETATM    1  N   UNL     1      41.350 -12.640   5.217  1.00  0.00    -0.307 N 
HETATM    2  C   UNL     1      40.271 -12.358   6.012  1.00  0.00     0.321 C 
HETATM    3  N   UNL     1      40.120 -10.999   6.175  1.00  0.00    -0.334 N 
HETATM    4  O   UNL     1      39.501 -13.166   6.515  1.00  0.00    -0.247 OA
HETATM    5  H   UNL     1      41.587 -11.946   4.515  1.00  0.00     0.170 HD
HETATM    6  H   UNL     1      40.989 -10.485   6.241  1.00  0.00     0.164 HD
ENDROOT
BRANCH   3   7
HETATM    7  C   UNL     1      39.020 -10.507   6.979  1.00  0.00     0.227 C 
BRANCH   7   8
HETATM    8  C   UNL     1      39.518  -9.965   8.322  1.00  0.00     0.239 C 
HETATM    9  N   UNL     1      40.861  -9.655   8.305  1.00  0.00    -0.324 N 
HETATM   10  H   UNL     1      41.328  -9.627   7.394  1.00  0.00     0.169 HD
HETATM   11  O   UNL     1      38.740  -9.791   9.257  1.00  0.00    -0.271 OA
BRANCH   9  12
HETATM   12  C   UNL     1      41.692  -9.229   9.367  1.00  0.00     0.064 A 
HETATM   13  C   UNL     1      43.046  -9.597   9.276  1.00  0.00     0.093 A 
HETATM   14  C   UNL     1      43.920  -9.211  10.313  1.00  0.00    -0.005 A 
HETATM   15  N   UNL     1      43.482 -10.316   8.213  1.00  0.00    -0.258 NA
HETATM   16  C   UNL     1      45.268  -9.583  10.220  1.00  0.00     0.015 A 
HETATM   17  C   UNL     1      43.438  -8.478  11.410  1.00  0.00     0.014 A 
HETATM   18  C   UNL     1      45.712 -10.315   9.125  1.00  0.00     0.020 A 
HETATM   19  C   UNL     1      44.789 -10.653   8.157  1.00  0.00     0.117 A 
HETATM   20  C   UNL     1      42.093  -8.129  11.484  1.00  0.00     0.003 A 
HETATM   21  C   UNL     1      41.219  -8.506  10.466  1.00  0.00     0.032 A 
ENDBRANCH   9  12
ENDBRANCH   7   8
ENDBRANCH   3   7
BRANCH   1  22
HETATM   22  C   UNL     1      41.890 -13.922   4.948  1.00  0.00     0.066 A 
HETATM   23  C   UNL     1      42.888 -14.492   5.748  1.00  0.00     0.038 A 
HETATM   24  C   UNL     1      43.425 -15.742   5.428  1.00  0.00    -0.059 A 
HETATM   25  C   UNL     1      44.488 -16.358   6.289  1.00  0.00     0.048 C 
HETATM   26  C   UNL     1      42.921 -16.429   4.320  1.00  0.00     0.020 A 
HETATM   27  C   UNL     1      41.919 -15.861   3.515  1.00  0.00    -0.005 A 
HETATM   28  C   UNL     1      41.401 -14.583   3.813  1.00  0.00     0.093 A 
HETATM   29  C   UNL     1      41.403 -16.542   2.404  1.00  0.00     0.015 A 
HETATM   30  N   UNL     1      40.440 -14.005   3.048  1.00  0.00    -0.258 NA
HETATM   31  C   UNL     1      39.968 -14.696   1.987  1.00  0.00     0.117 A 
HETATM   32  C   UNL     1      40.411 -15.954   1.628  1.00  0.00     0.020 A 
ENDBRANCH   1  22
TORSDOF 4
ENDMDL
MODEL 6
REMARK VINA RESULT:      -8.7      5.825      9.321
REMARK  4 active torsions:
REMARK  status: ('A' for Active; 'I' for Inactive)
REMARK    1  A    between atoms: C_4  and  N_5 
REMARK       I    between atoms: N_5  and  C_6 
REMARK       I    between atoms: C_6  and  N_7 
REMARK    2  A    between atoms: N_7  and  C_8 
REMARK    3  A    between atoms: C_8  and  C_9 
REMARK       I    between atoms: C_9  and  N_10 
REMARK    4  A    between atoms: N_10  and  C_11 
ROOT
HETATM    1  N   UNL     1      42.426 -15.037   1.183  1.00  0.00    -0.307 N 
HETATM    2  C   UNL     1      41.152 -14.878   0.706  1.00  0.00     0.321 C 
HETATM    3  N   UNL     1      41.083 -13.822  -0.175  1.00  0.00    -0.334 N 
HETATM    4  O   UNL     1      40.177 -15.567   0.978  1.00  0.00    -0.247 OA
HETATM    5  H   UNL     1      43.178 -14.754   0.562  1.00  0.00     0.170 HD
HETATM    6  H   UNL     1      41.673 -13.036   0.065  1.00  0.00     0.164 HD
ENDROOT
BRANCH   3   7
HETATM    7  C   UNL     1      39.812 -13.508  -0.794  1.00  0.00     0.227 C 
BRANCH   7   8
HETATM    8  C   UNL     1      40.007 -12.659  -2.054  1.00  0.00     0.239 C 
HETATM    9  N   UNL     1      39.929 -11.307  -1.800  1.00  0.00    -0.324 N 
HETATM   10  H   UNL     1      39.948 -11.007  -0.822  1.00  0.00     0.169 HD
HETATM   11  O   UNL     1      40.262 -13.187  -3.134  1.00  0.00    -0.271 OA
BRANCH   9  12
HETATM   12  C   UNL     1      39.958 -10.225  -2.711  1.00  0.00     0.064 A 
HETATM   13  C   UNL     1      40.993  -9.292  -2.527  1.00  0.00     0.093 A 
HETATM   14  C   UNL     1      41.063  -8.184  -3.399  1.00  0.00    -0.005 A 
HETATM   15  N   UNL     1      41.887  -9.460  -1.524  1.00  0.00    -0.258 NA
HETATM   16  C   UNL     1      42.095  -7.254  -3.209  1.00  0.00     0.015 A 
HETATM   17  C   UNL     1      40.115  -8.026  -4.421  1.00  0.00     0.014 A 
HETATM   18  C   UNL     1      43.013  -7.436  -2.182  1.00  0.00     0.020 A 
HETATM   19  C   UNL     1      42.869  -8.545  -1.375  1.00  0.00     0.117 A 
HETATM   20  C   UNL     1      39.095  -8.958  -4.583  1.00  0.00     0.003 A 
HETATM   21  C   UNL     1      39.013 -10.056  -3.728  1.00  0.00     0.032 A 
ENDBRANCH   9  12
ENDBRANCH   7   8
ENDBRANCH   3   7
BRANCH   1  22
HETATM   22  C   UNL     1      42.842 -15.923   2.206  1.00  0.00     0.066 A 
HETATM   23  C   UNL     1      43.074 -17.283   1.964  1.00  0.00     0.038 A 
HETATM   24  C   UNL     1      43.445 -18.135   3.008  1.00  0.00    -0.059 A 
HETATM   25  C   UNL     1      43.702 -19.590   2.748  1.00  0.00     0.048 C 
HETATM   26  C   UNL     1      43.620 -17.600   4.287  1.00  0.00     0.020 A 
HETATM   27  C   UNL     1      43.390 -16.236   4.534  1.00  0.00    -0.005 A 
HETATM   28  C   UNL     1      42.978 -15.379   3.491  1.00  0.00     0.093 A 
HETATM   29  C   UNL     1      43.565 -15.687   5.812  1.00  0.00     0.015 A 
HETATM   30  N   UNL     1      42.739 -14.060   3.703  1.00  0.00    -0.258 NA
HETATM   31  C   UNL     1      42.922 -13.570   4.948  1.00  0.00     0.117 A 
HETATM   32  C   UNL     1      43.331 -14.333   6.024  1.00  0.00     0.020 A 
ENDBRANCH   1  22
TORSDOF 4
ENDMDL
MODEL 7
REMARK VINA RESULT:      -8.7      4.070      7.798
REMARK  4 active torsions:
REMARK  status: ('A' for Active; 'I' for Inactive)
REMARK    1  A    between atoms: C_4  and  N_5 
REMARK       I    between atoms: N_5  and  C_6 
REMARK       I    between atoms: C_6  and  N_7 
REMARK    2  A    between atoms: N_7  and  C_8 
REMARK    3  A    between atoms: C_8  and  C_9 
REMARK       I    between atoms: C_9  and  N_10 
REMARK    4  A    between atoms: N_10  and  C_11 
ROOT
HETATM    1  N   UNL     1      42.410 -14.953   1.344  1.00  0.00    -0.307 N 
HETATM    2  C   UNL     1      41.153 -14.864   0.808  1.00  0.00     0.321 C 
HETATM    3  N   UNL     1      41.031 -13.744   0.016  1.00  0.00    -0.334 N 
HETATM    4  O   UNL     1      40.233 -15.658   0.963  1.00  0.00    -0.247 OA
HETATM    5  H   UNL     1      43.163 -14.551   0.793  1.00  0.00     0.170 HD
HETATM    6  H   UNL     1      41.533 -12.934   0.356  1.00  0.00     0.164 HD
ENDROOT
BRANCH   3   7
HETATM    7  C   UNL     1      39.769 -13.488  -0.647  1.00  0.00     0.227 C 
BRANCH   7   8
HETATM    8  C   UNL     1      39.020 -12.331   0.021  1.00  0.00     0.239 C 
HETATM    9  N   UNL     1      39.748 -11.739   1.030  1.00  0.00    -0.324 N 
HETATM   10  H   UNL     1      40.741 -11.981   1.102  1.00  0.00     0.169 HD
HETATM   11  O   UNL     1      37.916 -11.979  -0.387  1.00  0.00    -0.271 OA
BRANCH   9  12
HETATM   12  C   UNL     1      39.360 -10.720   1.931  1.00  0.00     0.064 A 
HETATM   13  C   UNL     1      39.301 -11.086   3.287  1.00  0.00     0.093 A 
HETATM   14  C   UNL     1      38.907 -10.114   4.230  1.00  0.00    -0.005 A 
HETATM   15  N   UNL     1      39.608 -12.352   3.661  1.00  0.00    -0.258 NA
HETATM   16  C   UNL     1      38.846 -10.484   5.581  1.00  0.00     0.015 A 
HETATM   17  C   UNL     1      38.581  -8.814   3.814  1.00  0.00     0.014 A 
HETATM   18  C   UNL     1      39.168 -11.782   5.960  1.00  0.00     0.020 A 
HETATM   19  C   UNL     1      39.541 -12.670   4.972  1.00  0.00     0.117 A 
HETATM   20  C   UNL     1      38.640  -8.473   2.465  1.00  0.00     0.003 A 
HETATM   21  C   UNL     1      39.027  -9.425   1.523  1.00  0.00     0.032 A 
ENDBRANCH   9  12
ENDBRANCH   7   8
ENDBRANCH   3   7
BRANCH   1  22
HETATM   22  C   UNL     1      42.854 -15.887   2.311  1.00  0.00     0.066 A 
HETATM   23  C   UNL     1      43.082 -17.233   1.996  1.00  0.00     0.038 A 
HETATM   24  C   UNL     1      43.481 -18.134   2.987  1.00  0.00    -0.059 A 
HETATM   25  C   UNL     1      43.734 -19.574   2.648  1.00  0.00     0.048 C 
HETATM   26  C   UNL     1      43.689 -17.662   4.285  1.00  0.00     0.020 A 
HETATM   27  C   UNL     1      43.463 -16.312   4.605  1.00  0.00    -0.005 A 
HETATM   28  C   UNL     1      43.022 -15.406   3.617  1.00  0.00     0.093 A 
HETATM   29  C   UNL     1      43.670 -15.826   5.904  1.00  0.00     0.015 A 
HETATM   30  N   UNL     1      42.787 -14.100   3.899  1.00  0.00    -0.258 NA
HETATM   31  C   UNL     1      43.001 -13.672   5.162  1.00  0.00     0.117 A 
HETATM   32  C   UNL     1      43.440 -14.486   6.188  1.00  0.00     0.020 A 
ENDBRANCH   1  22
TORSDOF 4
ENDMDL
MODEL 8
REMARK VINA RESULT:      -8.6      1.602      7.419
REMARK  4 active torsions:
REMARK  status: ('A' for Active; 'I' for Inactive)
REMARK    1  A    between atoms: C_4  and  N_5 
REMARK       I    between atoms: N_5  and  C_6 
REMARK       I    between atoms: C_6  and  N_7 
REMARK    2  A    between atoms: N_7  and  C_8 
REMARK    3  A    between atoms: C_8  and  C_9 
REMARK       I    between atoms: C_9  and  N_10 
REMARK    4  A    between atoms: N_10  and  C_11 
ROOT
HETATM    1  N   UNL     1      40.413 -13.752   5.570  1.00  0.00    -0.307 N 
HETATM    2  C   UNL     1      40.442 -12.390   5.714  1.00  0.00     0.321 C 
HETATM    3  N   UNL     1      39.254 -11.924   6.232  1.00  0.00    -0.334 N 
HETATM    4  O   UNL     1      41.378 -11.646   5.454  1.00  0.00    -0.247 OA
HETATM    5  H   UNL     1      39.830 -14.262   6.227  1.00  0.00     0.170 HD
HETATM    6  H   UNL     1      38.432 -12.415   5.906  1.00  0.00     0.164 HD
ENDROOT
BRANCH   3   7
HETATM    7  C   UNL     1      39.102 -10.502   6.466  1.00  0.00     0.227 C 
BRANCH   7   8
HETATM    8  C   UNL     1      39.587 -10.119   7.867  1.00  0.00     0.239 C 
HETATM    9  N   UNL     1      40.870  -9.618   7.867  1.00  0.00    -0.324 N 
HETATM   10  H   UNL     1      41.283  -9.375   6.962  1.00  0.00     0.169 HD
HETATM   11  O   UNL     1      38.840 -10.216   8.839  1.00  0.00    -0.271 OA
BRANCH   9  12
HETATM   12  C   UNL     1      41.687  -9.255   8.963  1.00  0.00     0.064 A 
HETATM   13  C   UNL     1      43.036  -9.642   8.881  1.00  0.00     0.093 A 
HETATM   14  C   UNL     1      43.895  -9.317   9.952  1.00  0.00    -0.005 A 
HETATM   15  N   UNL     1      43.482 -10.320   7.796  1.00  0.00    -0.258 NA
HETATM   16  C   UNL     1      45.239  -9.708   9.868  1.00  0.00     0.015 A 
HETATM   17  C   UNL     1      43.404  -8.626  11.071  1.00  0.00     0.014 A 
HETATM   18  C   UNL     1      45.692 -10.398   8.750  1.00  0.00     0.020 A 
HETATM   19  C   UNL     1      44.784 -10.676   7.750  1.00  0.00     0.117 A 
HETATM   20  C   UNL     1      42.063  -8.258  11.135  1.00  0.00     0.003 A 
HETATM   21  C   UNL     1      41.204  -8.573  10.084  1.00  0.00     0.032 A 
ENDBRANCH   9  12
ENDBRANCH   7   8
ENDBRANCH   3   7
BRANCH   1  22
HETATM   22  C   UNL     1      41.394 -14.557   4.942  1.00  0.00     0.066 A 
HETATM   23  C   UNL     1      41.485 -14.671   3.550  1.00  0.00     0.038 A 
HETATM   24  C   UNL     1      42.442 -15.507   2.968  1.00  0.00    -0.059 A 
HETATM   25  C   UNL     1      42.546 -15.622   1.476  1.00  0.00     0.048 C 
HETATM   26  C   UNL     1      43.332 -16.194   3.797  1.00  0.00     0.020 A 
HETATM   27  C   UNL     1      43.245 -16.083   5.196  1.00  0.00    -0.005 A 
HETATM   28  C   UNL     1      42.256 -15.270   5.789  1.00  0.00     0.093 A 
HETATM   29  C   UNL     1      44.133 -16.765   6.038  1.00  0.00     0.015 A 
HETATM   30  N   UNL     1      42.142 -15.150   7.135  1.00  0.00    -0.258 NA
HETATM   31  C   UNL     1      43.020 -15.822   7.912  1.00  0.00     0.117 A 
HETATM   32  C   UNL     1      44.023 -16.632   7.417  1.00  0.00     0.020 A 
ENDBRANCH   1  22
TORSDOF 4
ENDMDL
MODEL 9
REMARK VINA RESULT:      -8.5      2.751      9.288
REMARK  4 active torsions:
REMARK  status: ('A' for Active; 'I' for Inactive)
REMARK    1  A    between atoms: C_4  and  N_5 
REMARK       I    between atoms: N_5  and  C_6 
REMARK       I    between atoms: C_6  and  N_7 
REMARK    2  A    between atoms: N_7  and  C_8 
REMARK    3  A    between atoms: C_8  and  C_9 
REMARK       I    between atoms: C_9  and  N_10 
REMARK    4  A    between atoms: N_10  and  C_11 
ROOT
HETATM    1  N   UNL     1      42.498 -13.421   6.697  1.00  0.00    -0.307 N 
HETATM    2  C   UNL     1      43.580 -12.608   6.912  1.00  0.00     0.321 C 
HETATM    3  N   UNL     1      43.237 -11.527   7.695  1.00  0.00    -0.334 N 
HETATM    4  O   UNL     1      44.721 -12.784   6.504  1.00  0.00    -0.247 OA
HETATM    5  H   UNL     1      41.796 -13.439   7.431  1.00  0.00     0.170 HD
HETATM    6  H   UNL     1      42.310 -11.160   7.521  1.00  0.00     0.164 HD
ENDROOT
BRANCH   3   7
HETATM    7  C   UNL     1      44.258 -10.560   8.039  1.00  0.00     0.227 C 
BRANCH   7   8
HETATM    8  C   UNL     1      44.257 -10.267   9.542  1.00  0.00     0.239 C 
HETATM    9  N   UNL     1      43.123  -9.601   9.953  1.00  0.00    -0.324 N 
HETATM   10  H   UNL     1      42.342  -9.544   9.293  1.00  0.00     0.169 HD
HETATM   11  O   UNL     1      45.172 -10.665  10.260  1.00  0.00    -0.271 OA
BRANCH   9  12
HETATM   12  C   UNL     1      42.808  -9.078  11.228  1.00  0.00     0.064 A 
HETATM   13  C   UNL     1      42.651  -7.683  11.301  1.00  0.00     0.093 A 
HETATM   14  C   UNL     1      42.348  -7.103  12.551  1.00  0.00    -0.005 A 
HETATM   15  N   UNL     1      42.800  -6.925  10.187  1.00  0.00    -0.258 NA
HETATM   16  C   UNL     1      42.196  -5.711  12.619  1.00  0.00     0.015 A 
HETATM   17  C   UNL     1      42.213  -7.910  13.692  1.00  0.00     0.014 A 
HETATM   18  C   UNL     1      42.344  -4.940  11.473  1.00  0.00     0.020 A 
HETATM   19  C   UNL     1      42.642  -5.588  10.292  1.00  0.00     0.117 A 
HETATM   20  C   UNL     1      42.379  -9.289  13.600  1.00  0.00     0.003 A 
HETATM   21  C   UNL     1      42.679  -9.873  12.371  1.00  0.00     0.032 A 
ENDBRANCH   9  12
ENDBRANCH   7   8
ENDBRANCH   3   7
BRANCH   1  22
HETATM   22  C   UNL     1      42.440 -14.539   5.831  1.00  0.00     0.066 A 
HETATM   23  C   UNL     1      43.230 -15.679   6.032  1.00  0.00     0.038 A 
HETATM   24  C   UNL     1      43.174 -16.747   5.133  1.00  0.00    -0.059 A 
HETATM   25  C   UNL     1      44.013 -17.971   5.353  1.00  0.00     0.048 C 
HETATM   26  C   UNL     1      42.288 -16.677   4.055  1.00  0.00     0.020 A 
HETATM   27  C   UNL     1      41.493 -15.536   3.850  1.00  0.00    -0.005 A 
HETATM   28  C   UNL     1      41.574 -14.439   4.733  1.00  0.00     0.093 A 
HETATM   29  C   UNL     1      40.599 -15.454   2.773  1.00  0.00     0.015 A 
HETATM   30  N   UNL     1      40.826 -13.321   4.555  1.00  0.00    -0.258 NA
HETATM   31  C   UNL     1      39.974 -13.284   3.506  1.00  0.00     0.117 A 
HETATM   32  C   UNL     1      39.824 -14.314   2.599  1.00  0.00     0.020 A 
ENDBRANCH   1  22
TORSDOF 4
ENDMDL
MODEL 10
REMARK VINA RESULT:      -8.5     18.008     19.845
REMARK  4 active torsions:
REMARK  status: ('A' for Active; 'I' for Inactive)
REMARK    1  A    between atoms: C_4  and  N_5 
REMARK       I    between atoms: N_5  and  C_6 
REMARK       I    between atoms: C_6  and  N_7 
REMARK    2  A    between atoms: N_7  and  C_8 
REMARK    3  A    between atoms: C_8  and  C_9 
REMARK       I    between atoms: C_9  and  N_10 
REMARK    4  A    between atoms: N_10  and  C_11 
ROOT
HETATM    1  N   UNL     1      47.269 -29.077   2.763  1.00  0.00    -0.307 N 
HETATM    2  C   UNL     1      46.076 -29.705   2.519  1.00  0.00     0.321 C 
HETATM    3  N   UNL     1      45.018 -28.845   2.710  1.00  0.00    -0.334 N 
HETATM    4  O   UNL     1      45.919 -30.865   2.159  1.00  0.00    -0.247 OA
HETATM    5  H   UNL     1      47.297 -28.078   2.580  1.00  0.00     0.170 HD
HETATM    6  H   UNL     1      45.139 -28.192   3.473  1.00  0.00     0.164 HD
ENDROOT
BRANCH   3   7
HETATM    7  C   UNL     1      43.671 -29.330   2.488  1.00  0.00     0.227 C 
BRANCH   7   8
HETATM    8  C   UNL     1      43.297 -29.258   1.004  1.00  0.00     0.239 C 
HETATM    9  N   UNL     1      44.368 -29.504   0.174  1.00  0.00    -0.324 N 
HETATM   10  H   UNL     1      45.218 -29.887   0.598  1.00  0.00     0.169 HD
HETATM   11  O   UNL     1      42.135 -29.058   0.659  1.00  0.00    -0.271 OA
BRANCH   9  12
HETATM   12  C   UNL     1      44.439 -29.429  -1.237  1.00  0.00     0.064 A 
HETATM   13  C   UNL     1      44.257 -30.640  -1.928  1.00  0.00     0.093 A 
HETATM   14  C   UNL     1      44.330 -30.628  -3.337  1.00  0.00    -0.005 A 
HETATM   15  N   UNL     1      44.028 -31.785  -1.241  1.00  0.00    -0.258 NA
HETATM   16  C   UNL     1      44.151 -31.838  -4.023  1.00  0.00     0.015 A 
HETATM   17  C   UNL     1      44.583 -29.430  -4.024  1.00  0.00     0.014 A 
HETATM   18  C   UNL     1      43.911 -33.008  -3.313  1.00  0.00     0.020 A 
HETATM   19  C   UNL     1      43.857 -32.930  -1.936  1.00  0.00     0.117 A 
HETATM   20  C   UNL     1      44.766 -28.243  -3.320  1.00  0.00     0.003 A 
HETATM   21  C   UNL     1      44.697 -28.241  -1.928  1.00  0.00     0.032 A 
ENDBRANCH   9  12
ENDBRANCH   7   8
ENDBRANCH   3   7
BRANCH   1  22
HETATM   22  C   UNL     1      48.549 -29.680   2.804  1.00  0.00     0.066 A 
HETATM   23  C   UNL     1      49.183 -30.000   4.011  1.00  0.00     0.038 A 
HETATM   24  C   UNL     1      50.465 -30.558   4.012  1.00  0.00    -0.059 A 
HETATM   25  C   UNL     1      51.140 -30.910   5.305  1.00  0.00     0.048 C 
HETATM   26  C   UNL     1      51.084 -30.829   2.789  1.00  0.00     0.020 A 
HETATM   27  C   UNL     1      50.452 -30.510   1.575  1.00  0.00    -0.005 A 
HETATM   28  C   UNL     1      49.174 -29.911   1.570  1.00  0.00     0.093 A 
HETATM   29  C   UNL     1      51.062 -30.779   0.342  1.00  0.00     0.015 A 
HETATM   30  N   UNL     1      48.543 -29.584   0.414  1.00  0.00    -0.258 NA
HETATM   31  C   UNL     1      49.165 -29.863  -0.753  1.00  0.00     0.117 A 
HETATM   32  C   UNL     1      50.410 -30.454  -0.841  1.00  0.00     0.020 A 
ENDBRANCH   1  22
TORSDOF 4
ENDMDL
