MODEL 1
REMARK VINA RESULT:      -9.3      0.000      0.000
REMARK  3 active torsions:
REMARK  status: ('A' for Active; 'I' for Inactive)
REMARK    1  A    between atoms: C_4  and  C_5 
REMARK    2  A    between atoms: C_9  and  C_10 
REMARK    3  A    between atoms: C_23  and  N_24 
ROOT
HETATM    1  C   UNL     1      42.008 -16.439   2.993  1.00  0.00     0.070 A 
HETATM    2  N   UNL     1      41.632 -15.796   4.120  1.00  0.00    -0.228 NA
HETATM    3  C   UNL     1      40.859 -14.716   4.072  1.00  0.00     0.165 A 
HETATM    4  C   UNL     1      40.377 -14.198   2.867  1.00  0.00     0.063 A 
HETATM    5  C   UNL     1      40.784 -14.853   1.657  1.00  0.00    -0.006 A 
HETATM    6  C   UNL     1      41.605 -15.985   1.750  1.00  0.00     0.046 A 
HETATM    7  N   UNL     1      40.574 -14.188   5.252  1.00  0.00    -0.222 NA
HETATM    8  C   UNL     1      39.789 -13.116   5.276  1.00  0.00     0.237 A 
HETATM    9  N   UNL     1      39.237 -12.532   4.217  1.00  0.00    -0.229 NA
HETATM   10  C   UNL     1      39.523 -13.083   3.032  1.00  0.00     0.117 A 
ENDROOT
BRANCH   5  11
HETATM   11  C   UNL     1      40.384 -14.417   0.307  1.00  0.00    -0.022 A 
HETATM   12  C   UNL     1      39.480 -15.176  -0.458  1.00  0.00     0.052 A 
HETATM   13  C   UNL     1      39.153 -14.731  -1.723  1.00  0.00     0.105 A 
HETATM   14  C   UNL     1      39.665 -13.563  -2.235  1.00  0.00     0.105 A 
HETATM   15  O   UNL     1      38.325 -15.361  -2.598  1.00  0.00    -0.323 OA
HETATM   16  O   UNL     1      39.224 -13.311  -3.497  1.00  0.00    -0.323 OA
HETATM   17  C   UNL     1      40.530 -12.773  -1.513  1.00  0.00     0.040 A 
HETATM   18  C   UNL     1      38.404 -14.475  -3.735  1.00  0.00     0.352 A 
HETATM   19  C   UNL     1      40.891 -13.208  -0.233  1.00  0.00     0.015 A 
ENDBRANCH   5  11
BRANCH  10  20
HETATM   20  N   UNL     1      38.910 -12.422   1.969  1.00  0.00    -0.286 NA
HETATM   21  H   UNL     1      38.811 -13.087   1.205  1.00  0.00     0.125 HD
HETATM   22  H   UNL     1      39.412 -11.590   1.684  1.00  0.00     0.125 HD
ENDBRANCH  10  20
BRANCH   1  23
HETATM   23  C   UNL     1      42.830 -17.653   3.193  1.00  0.00    -0.007 A 
HETATM   24  C   UNL     1      43.576 -17.823   4.376  1.00  0.00     0.014 A 
HETATM   25  C   UNL     1      44.345 -18.969   4.603  1.00  0.00     0.001 A 
HETATM   26  C   UNL     1      44.390 -19.975   3.645  1.00  0.00     0.000 A 
HETATM   27  C   UNL     1      43.674 -19.832   2.460  1.00  0.00     0.001 A 
HETATM   28  C   UNL     1      42.906 -18.684   2.236  1.00  0.00     0.014 A 
ENDBRANCH   1  23
TORSDOF 3
ENDMDL
MODEL 2
REMARK VINA RESULT:      -9.0      5.135      7.121
REMARK  3 active torsions:
REMARK  status: ('A' for Active; 'I' for Inactive)
REMARK    1  A    between atoms: C_4  and  C_5 
REMARK    2  A    between atoms: C_9  and  C_10 
REMARK    3  A    between atoms: C_23  and  N_24 
ROOT
HETATM    1  C   UNL     1      42.661 -15.392   4.180  1.00  0.00     0.070 A 
HETATM    2  N   UNL     1      41.494 -14.987   3.635  1.00  0.00    -0.228 NA
HETATM    3  C   UNL     1      41.022 -13.762   3.848  1.00  0.00     0.165 A 
HETATM    4  C   UNL     1      41.708 -12.824   4.623  1.00  0.00     0.063 A 
HETATM    5  C   UNL     1      42.939 -13.242   5.229  1.00  0.00    -0.006 A 
HETATM    6  C   UNL     1      43.400 -14.544   4.986  1.00  0.00     0.046 A 
HETATM    7  N   UNL     1      39.866 -13.506   3.256  1.00  0.00    -0.222 NA
HETATM    8  C   UNL     1      39.347 -12.292   3.413  1.00  0.00     0.237 A 
HETATM    9  N   UNL     1      39.898 -11.293   4.095  1.00  0.00    -0.229 NA
HETATM   10  C   UNL     1      41.072 -11.562   4.678  1.00  0.00     0.117 A 
ENDROOT
BRANCH   5  11
HETATM   11  C   UNL     1      43.768 -12.382   6.093  1.00  0.00    -0.022 A 
HETATM   12  C   UNL     1      43.464 -12.221   7.457  1.00  0.00     0.052 A 
HETATM   13  C   UNL     1      44.263 -11.390   8.215  1.00  0.00     0.105 A 
HETATM   14  C   UNL     1      45.352 -10.745   7.681  1.00  0.00     0.105 A 
HETATM   15  O   UNL     1      44.086 -11.103   9.533  1.00  0.00    -0.323 OA
HETATM   16  O   UNL     1      45.997  -9.970   8.593  1.00  0.00    -0.323 OA
HETATM   17  C   UNL     1      45.705 -10.894   6.359  1.00  0.00     0.040 A 
HETATM   18  C   UNL     1      45.167 -10.172   9.757  1.00  0.00     0.352 A 
HETATM   19  C   UNL     1      44.903 -11.719   5.562  1.00  0.00     0.015 A 
ENDBRANCH   5  11
BRANCH  10  20
HETATM   20  N   UNL     1      41.590 -10.471   5.373  1.00  0.00    -0.286 NA
HETATM   21  H   UNL     1      42.469 -10.211   4.932  1.00  0.00     0.125 HD
HETATM   22  H   UNL     1      41.703 -10.655   6.363  1.00  0.00     0.125 HD
ENDBRANCH  10  20
BRANCH   1  23
HETATM   23  C   UNL     1      43.092 -16.762   3.825  1.00  0.00    -0.007 A 
HETATM   24  C   UNL     1      42.637 -17.368   2.637  1.00  0.00     0.014 A 
HETATM   25  C   UNL     1      43.043 -18.653   2.263  1.00  0.00     0.001 A 
HETATM   26  C   UNL     1      43.915 -19.368   3.075  1.00  0.00     0.000 A 
HETATM   27  C   UNL     1      44.374 -18.803   4.261  1.00  0.00     0.001 A 
HETATM   28  C   UNL     1      43.965 -17.516   4.632  1.00  0.00     0.014 A 
ENDBRANCH   1  23
TORSDOF 3
ENDMDL
MODEL 3
REMARK VINA RESULT:      -8.8      2.385      3.068
REMARK  3 active torsions:
REMARK  status: ('A' for Active; 'I' for Inactive)
REMARK    1  A    between atoms: C_4  and  C_5 
REMARK    2  A    between atoms: C_9  and  C_10 
REMARK    3  A    between atoms: C_23  and  N_24 
ROOT
HETATM    1  C   UNL     1      43.032 -16.677   3.869  1.00  0.00     0.070 A 
HETATM    2  N   UNL     1      43.563 -16.194   5.013  1.00  0.00    -0.228 NA
HETATM    3  C   UNL     1      43.334 -14.944   5.404  1.00  0.00     0.165 A 
HETATM    4  C   UNL     1      42.524 -14.071   4.674  1.00  0.00     0.063 A 
HETATM    5  C   UNL     1      41.969 -14.559   3.445  1.00  0.00    -0.006 A 
HETATM    6  C   UNL     1      42.238 -15.880   3.063  1.00  0.00     0.046 A 
HETATM    7  N   UNL     1      43.922 -14.606   6.541  1.00  0.00    -0.222 NA
HETATM    8  C   UNL     1      43.720 -13.375   6.999  1.00  0.00     0.237 A 
HETATM    9  N   UNL     1      42.955 -12.449   6.430  1.00  0.00    -0.229 NA
HETATM   10  C   UNL     1      42.357 -12.808   5.288  1.00  0.00     0.117 A 
ENDROOT
BRANCH   5  11
HETATM   11  C   UNL     1      41.116 -13.757   2.549  1.00  0.00    -0.022 A 
HETATM   12  C   UNL     1      41.641 -13.175   1.381  1.00  0.00     0.052 A 
HETATM   13  C   UNL     1      40.802 -12.420   0.587  1.00  0.00     0.105 A 
HETATM   14  C   UNL     1      39.474 -12.247   0.894  1.00  0.00     0.105 A 
HETATM   15  O   UNL     1      41.159 -11.767  -0.551  1.00  0.00    -0.323 OA
HETATM   16  O   UNL     1      38.829 -11.464  -0.010  1.00  0.00    -0.323 OA
HETATM   17  C   UNL     1      38.909 -12.820   2.011  1.00  0.00     0.040 A 
HETATM   18  C   UNL     1      39.912 -11.131  -0.904  1.00  0.00     0.352 A 
HETATM   19  C   UNL     1      39.741 -13.579   2.843  1.00  0.00     0.015 A 
ENDBRANCH   5  11
BRANCH  10  20
HETATM   20  N   UNL     1      41.571 -11.791   4.749  1.00  0.00    -0.286 NA
HETATM   21  H   UNL     1      41.075 -12.174   3.948  1.00  0.00     0.125 HD
HETATM   22  H   UNL     1      42.110 -10.969   4.503  1.00  0.00     0.125 HD
ENDBRANCH  10  20
BRANCH   1  23
HETATM   23  C   UNL     1      43.327 -18.097   3.577  1.00  0.00    -0.007 A 
HETATM   24  C   UNL     1      43.879 -18.931   4.569  1.00  0.00     0.014 A 
HETATM   25  C   UNL     1      44.149 -20.282   4.330  1.00  0.00     0.001 A 
HETATM   26  C   UNL     1      43.877 -20.833   3.084  1.00  0.00     0.000 A 
HETATM   27  C   UNL     1      43.343 -20.034   2.077  1.00  0.00     0.001 A 
HETATM   28  C   UNL     1      43.074 -18.682   2.321  1.00  0.00     0.014 A 
ENDBRANCH   1  23
TORSDOF 3
ENDMDL
MODEL 4
REMARK VINA RESULT:      -8.8      4.609      7.659
REMARK  3 active torsions:
REMARK  status: ('A' for Active; 'I' for Inactive)
REMARK    1  A    between atoms: C_4  and  C_5 
REMARK    2  A    between atoms: C_9  and  C_10 
REMARK    3  A    between atoms: C_23  and  N_24 
ROOT
HETATM    1  C   UNL     1      43.443 -12.088   6.186  1.00  0.00     0.070 A 
HETATM    2  N   UNL     1      42.413 -11.565   5.486  1.00  0.00    -0.228 NA
HETATM    3  C   UNL     1      41.571 -12.343   4.814  1.00  0.00     0.165 A 
HETATM    4  C   UNL     1      41.688 -13.736   4.806  1.00  0.00     0.063 A 
HETATM    5  C   UNL     1      42.789 -14.309   5.525  1.00  0.00    -0.006 A 
HETATM    6  C   UNL     1      43.659 -13.455   6.217  1.00  0.00     0.046 A 
HETATM    7  N   UNL     1      40.614 -11.694   4.171  1.00  0.00    -0.222 NA
HETATM    8  C   UNL     1      39.727 -12.414   3.492  1.00  0.00     0.237 A 
HETATM    9  N   UNL     1      39.695 -13.741   3.419  1.00  0.00    -0.229 NA
HETATM   10  C   UNL     1      40.661 -14.386   4.083  1.00  0.00     0.117 A 
ENDROOT
BRANCH   5  11
HETATM   11  C   UNL     1      43.066 -15.756   5.595  1.00  0.00    -0.022 A 
HETATM   12  C   UNL     1      43.616 -16.439   4.495  1.00  0.00     0.052 A 
HETATM   13  C   UNL     1      43.838 -17.797   4.609  1.00  0.00     0.105 A 
HETATM   14  C   UNL     1      43.562 -18.483   5.767  1.00  0.00     0.105 A 
HETATM   15  O   UNL     1      44.331 -18.606   3.633  1.00  0.00    -0.323 OA
HETATM   16  O   UNL     1      43.845 -19.809   5.666  1.00  0.00    -0.323 OA
HETATM   17  C   UNL     1      43.049 -17.851   6.877  1.00  0.00     0.040 A 
HETATM   18  C   UNL     1      44.297 -19.887   4.298  1.00  0.00     0.352 A 
HETATM   19  C   UNL     1      42.799 -16.477   6.785  1.00  0.00     0.015 A 
ENDBRANCH   5  11
BRANCH  10  20
HETATM   20  N   UNL     1      40.566 -15.770   3.963  1.00  0.00    -0.286 NA
HETATM   21  H   UNL     1      40.765 -16.013   2.996  1.00  0.00     0.125 HD
HETATM   22  H   UNL     1      39.667 -16.128   4.265  1.00  0.00     0.125 HD
ENDBRANCH  10  20
BRANCH   1  23
HETATM   23  C   UNL     1      44.275 -11.114   6.927  1.00  0.00    -0.007 A 
HETATM   24  C   UNL     1      43.674 -10.039   7.612  1.00  0.00     0.014 A 
HETATM   25  C   UNL     1      44.431  -9.114   8.338  1.00  0.00     0.001 A 
HETATM   26  C   UNL     1      45.814  -9.240   8.393  1.00  0.00     0.000 A 
HETATM   27  C   UNL     1      46.439 -10.283   7.716  1.00  0.00     0.001 A 
HETATM   28  C   UNL     1      45.678 -11.207   6.990  1.00  0.00     0.014 A 
ENDBRANCH   1  23
TORSDOF 3
ENDMDL
MODEL 5
REMARK VINA RESULT:      -8.8      4.862      6.886
REMARK  3 active torsions:
REMARK  status: ('A' for Active; 'I' for Inactive)
REMARK    1  A    between atoms: C_4  and  C_5 
REMARK    2  A    between atoms: C_9  and  C_10 
REMARK    3  A    between atoms: C_23  and  N_24 
ROOT
HETATM    1  C   UNL     1      42.898 -15.222   3.336  1.00  0.00     0.070 A 
HETATM    2  N   UNL     1      42.322 -14.777   2.198  1.00  0.00    -0.228 NA
HETATM    3  C   UNL     1      42.042 -13.489   2.026  1.00  0.00     0.165 A 
HETATM    4  C   UNL     1      42.340 -12.525   2.993  1.00  0.00     0.063 A 
HETATM    5  C   UNL     1      42.930 -12.982   4.218  1.00  0.00    -0.006 A 
HETATM    6  C   UNL     1      43.206 -14.348   4.364  1.00  0.00     0.046 A 
HETATM    7  N   UNL     1      41.475 -13.198   0.865  1.00  0.00    -0.222 NA
HETATM    8  C   UNL     1      41.184 -11.925   0.621  1.00  0.00     0.237 A 
HETATM    9  N   UNL     1      41.435 -10.901   1.431  1.00  0.00    -0.229 NA
HETATM   10  C   UNL     1      42.019 -11.207   2.596  1.00  0.00     0.117 A 
ENDROOT
BRANCH   5  11
HETATM   11  C   UNL     1      43.282 -12.097   5.345  1.00  0.00    -0.022 A 
HETATM   12  C   UNL     1      44.624 -11.783   5.624  1.00  0.00     0.052 A 
HETATM   13  C   UNL     1      44.898 -10.965   6.702  1.00  0.00     0.105 A 
HETATM   14  C   UNL     1      43.899 -10.436   7.482  1.00  0.00     0.105 A 
HETATM   15  O   UNL     1      46.136 -10.594   7.124  1.00  0.00    -0.323 OA
HETATM   16  O   UNL     1      44.381  -9.666   8.493  1.00  0.00    -0.323 OA
HETATM   17  C   UNL     1      42.570 -10.692   7.229  1.00  0.00     0.040 A 
HETATM   18  C   UNL     1      45.803  -9.801   8.283  1.00  0.00     0.352 A 
HETATM   19  C   UNL     1      42.264 -11.532   6.153  1.00  0.00     0.015 A 
ENDBRANCH   5  11
BRANCH  10  20
HETATM   20  N   UNL     1      42.252 -10.088   3.392  1.00  0.00    -0.286 NA
HETATM   21  H   UNL     1      42.076  -9.262   2.825  1.00  0.00     0.125 HD
HETATM   22  H   UNL     1      43.182 -10.080   3.794  1.00  0.00     0.125 HD
ENDBRANCH  10  20
BRANCH   1  23
HETATM   23  C   UNL     1      43.199 -16.670   3.378  1.00  0.00    -0.007 A 
HETATM   24  C   UNL     1      42.908 -17.491   2.271  1.00  0.00     0.014 A 
HETATM   25  C   UNL     1      43.200 -18.859   2.271  1.00  0.00     0.001 A 
HETATM   26  C   UNL     1      43.789 -19.441   3.387  1.00  0.00     0.000 A 
HETATM   27  C   UNL     1      44.078 -18.660   4.501  1.00  0.00     0.001 A 
HETATM   28  C   UNL     1      43.784 -17.291   4.497  1.00  0.00     0.014 A 
ENDBRANCH   1  23
TORSDOF 3
ENDMDL
MODEL 6
REMARK VINA RESULT:      -8.7      3.512      5.560
REMARK  3 active torsions:
REMARK  status: ('A' for Active; 'I' for Inactive)
REMARK    1  A    between atoms: C_4  and  C_5 
REMARK    2  A    between atoms: C_9  and  C_10 
REMARK    3  A    between atoms: C_23  and  N_24 
ROOT
HETATM    1  C   UNL     1      41.977 -15.905   2.859  1.00  0.00     0.070 A 
HETATM    2  N   UNL     1      41.449 -15.793   1.621  1.00  0.00    -0.228 NA
HETATM    3  C   UNL     1      40.775 -14.707   1.255  1.00  0.00     0.165 A 
HETATM    4  C   UNL     1      40.591 -13.620   2.112  1.00  0.00     0.063 A 
HETATM    5  C   UNL     1      41.125 -13.729   3.439  1.00  0.00    -0.006 A 
HETATM    6  C   UNL     1      41.824 -14.892   3.789  1.00  0.00     0.046 A 
HETATM    7  N   UNL     1      40.310 -14.738   0.015  1.00  0.00    -0.222 NA
HETATM    8  C   UNL     1      39.641 -13.675  -0.420  1.00  0.00     0.237 A 
HETATM    9  N   UNL     1      39.415 -12.562   0.270  1.00  0.00    -0.229 NA
HETATM   10  C   UNL     1      39.900 -12.539   1.517  1.00  0.00     0.117 A 
ENDROOT
BRANCH   5  11
HETATM   11  C   UNL     1      40.996 -12.682   4.470  1.00  0.00    -0.022 A 
HETATM   12  C   UNL     1      39.872 -12.636   5.315  1.00  0.00     0.052 A 
HETATM   13  C   UNL     1      39.794 -11.625   6.251  1.00  0.00     0.105 A 
HETATM   14  C   UNL     1      40.789 -10.688   6.391  1.00  0.00     0.105 A 
HETATM   15  O   UNL     1      38.765 -11.421   7.116  1.00  0.00    -0.323 OA
HETATM   16  O   UNL     1      40.513  -9.777   7.362  1.00  0.00    -0.323 OA
HETATM   17  C   UNL     1      41.919 -10.710   5.606  1.00  0.00     0.040 A 
HETATM   18  C   UNL     1      39.210 -10.226   7.792  1.00  0.00     0.352 A 
HETATM   19  C   UNL     1      42.019 -11.715   4.638  1.00  0.00     0.015 A 
ENDBRANCH   5  11
BRANCH  10  20
HETATM   20  N   UNL     1      39.627 -11.344   2.178  1.00  0.00    -0.286 NA
HETATM   21  H   UNL     1      39.727 -11.512   3.177  1.00  0.00     0.125 HD
HETATM   22  H   UNL     1      38.715 -10.968   1.947  1.00  0.00     0.125 HD
ENDBRANCH  10  20
BRANCH   1  23
HETATM   23  C   UNL     1      42.743 -17.144   3.118  1.00  0.00    -0.007 A 
HETATM   24  C   UNL     1      43.458 -17.302   4.322  1.00  0.00     0.014 A 
HETATM   25  C   UNL     1      44.174 -18.469   4.605  1.00  0.00     0.001 A 
HETATM   26  C   UNL     1      44.194 -19.511   3.685  1.00  0.00     0.000 A 
HETATM   27  C   UNL     1      43.508 -19.381   2.482  1.00  0.00     0.001 A 
HETATM   28  C   UNL     1      42.793 -18.211   2.201  1.00  0.00     0.014 A 
ENDBRANCH   1  23
TORSDOF 3
ENDMDL
MODEL 7
REMARK VINA RESULT:      -8.2      3.360      6.923
REMARK  3 active torsions:
REMARK  status: ('A' for Active; 'I' for Inactive)
REMARK    1  A    between atoms: C_4  and  C_5 
REMARK    2  A    between atoms: C_9  and  C_10 
REMARK    3  A    between atoms: C_23  and  N_24 
ROOT
HETATM    1  C   UNL     1      40.107 -13.520   0.196  1.00  0.00     0.070 A 
HETATM    2  N   UNL     1      40.271 -12.238   0.590  1.00  0.00    -0.228 NA
HETATM    3  C   UNL     1      41.034 -11.930   1.634  1.00  0.00     0.165 A 
HETATM    4  C   UNL     1      41.721 -12.901   2.367  1.00  0.00     0.063 A 
HETATM    5  C   UNL     1      41.542 -14.270   1.978  1.00  0.00    -0.006 A 
HETATM    6  C   UNL     1      40.724 -14.555   0.876  1.00  0.00     0.046 A 
HETATM    7  N   UNL     1      41.098 -10.637   1.908  1.00  0.00    -0.222 NA
HETATM    8  C   UNL     1      41.859 -10.258   2.929  1.00  0.00     0.237 A 
HETATM    9  N   UNL     1      42.590 -11.063   3.695  1.00  0.00    -0.229 NA
HETATM   10  C   UNL     1      42.525 -12.367   3.400  1.00  0.00     0.117 A 
ENDROOT
BRANCH   5  11
HETATM   11  C   UNL     1      42.176 -15.412   2.662  1.00  0.00    -0.022 A 
HETATM   12  C   UNL     1      41.883 -15.702   4.007  1.00  0.00     0.052 A 
HETATM   13  C   UNL     1      42.518 -16.772   4.604  1.00  0.00     0.105 A 
HETATM   14  C   UNL     1      43.400 -17.568   3.914  1.00  0.00     0.105 A 
HETATM   15  O   UNL     1      42.371 -17.163   5.897  1.00  0.00    -0.323 OA
HETATM   16  O   UNL     1      43.920 -18.559   4.685  1.00  0.00    -0.323 OA
HETATM   17  C   UNL     1      43.696 -17.340   2.588  1.00  0.00     0.040 A 
HETATM   18  C   UNL     1      43.291 -18.274   5.953  1.00  0.00     0.352 A 
HETATM   19  C   UNL     1      43.079 -16.252   1.962  1.00  0.00     0.015 A 
ENDBRANCH   5  11
BRANCH  10  20
HETATM   20  N   UNL     1      43.315 -13.148   4.240  1.00  0.00    -0.286 NA
HETATM   21  H   UNL     1      43.831 -12.522   4.853  1.00  0.00     0.125 HD
HETATM   22  H   UNL     1      43.931 -13.771   3.731  1.00  0.00     0.125 HD
ENDBRANCH  10  20
BRANCH   1  23
HETATM   23  C   UNL     1      39.270 -13.717  -1.008  1.00  0.00    -0.007 A 
HETATM   24  C   UNL     1      39.396 -14.890  -1.779  1.00  0.00     0.014 A 
HETATM   25  C   UNL     1      38.605 -15.115  -2.910  1.00  0.00     0.001 A 
HETATM   26  C   UNL     1      37.668 -14.166  -3.301  1.00  0.00     0.000 A 
HETATM   27  C   UNL     1      37.528 -12.992  -2.568  1.00  0.00     0.001 A 
HETATM   28  C   UNL     1      38.322 -12.769  -1.437  1.00  0.00     0.014 A 
ENDBRANCH   1  23
TORSDOF 3
ENDMDL
MODEL 8
REMARK VINA RESULT:      -8.2      3.907      6.089
REMARK  3 active torsions:
REMARK  status: ('A' for Active; 'I' for Inactive)
REMARK    1  A    between atoms: C_4  and  C_5 
REMARK    2  A    between atoms: C_9  and  C_10 
REMARK    3  A    between atoms: C_23  and  N_24 
ROOT
HETATM    1  C   UNL     1      43.853 -12.769   6.427  1.00  0.00     0.070 A 
HETATM    2  N   UNL     1      44.207 -14.027   6.769  1.00  0.00    -0.228 NA
HETATM    3  C   UNL     1      43.717 -15.080   6.123  1.00  0.00     0.165 A 
HETATM    4  C   UNL     1      42.830 -14.951   5.052  1.00  0.00     0.063 A 
HETATM    5  C   UNL     1      42.423 -13.624   4.689  1.00  0.00    -0.006 A 
HETATM    6  C   UNL     1      42.958 -12.539   5.397  1.00  0.00     0.046 A 
HETATM    7  N   UNL     1      44.148 -16.250   6.568  1.00  0.00    -0.222 NA
HETATM    8  C   UNL     1      43.710 -17.344   5.955  1.00  0.00     0.237 A 
HETATM    9  N   UNL     1      42.891 -17.374   4.909  1.00  0.00    -0.229 NA
HETATM   10  C   UNL     1      42.472 -16.184   4.461  1.00  0.00     0.117 A 
ENDROOT
BRANCH   5  11
HETATM   11  C   UNL     1      41.477 -13.319   3.600  1.00  0.00    -0.022 A 
HETATM   12  C   UNL     1      41.933 -13.108   2.286  1.00  0.00     0.052 A 
HETATM   13  C   UNL     1      41.005 -12.808   1.308  1.00  0.00     0.105 A 
HETATM   14  C   UNL     1      39.661 -12.738   1.581  1.00  0.00     0.105 A 
HETATM   15  O   UNL     1      41.283 -12.546   0.003  1.00  0.00    -0.323 OA
HETATM   16  O   UNL     1      38.923 -12.422   0.484  1.00  0.00    -0.323 OA
HETATM   17  C   UNL     1      39.166 -12.964   2.846  1.00  0.00     0.040 A 
HETATM   18  C   UNL     1      39.962 -12.265  -0.506  1.00  0.00     0.352 A 
HETATM   19  C   UNL     1      40.085 -13.255   3.860  1.00  0.00     0.015 A 
ENDBRANCH   5  11
BRANCH  10  20
HETATM   20  N   UNL     1      41.619 -16.292   3.365  1.00  0.00    -0.286 NA
HETATM   21  H   UNL     1      41.891 -15.583   2.689  1.00  0.00     0.125 HD
HETATM   22  H   UNL     1      40.641 -16.215   3.621  1.00  0.00     0.125 HD
ENDBRANCH  10  20
BRANCH   1  23
HETATM   23  C   UNL     1      44.509 -11.688   7.196  1.00  0.00    -0.007 A 
HETATM   24  C   UNL     1      43.874 -11.126   8.321  1.00  0.00     0.014 A 
HETATM   25  C   UNL     1      44.477 -10.118   9.080  1.00  0.00     0.001 A 
HETATM   26  C   UNL     1      45.735  -9.643   8.727  1.00  0.00     0.000 A 
HETATM   27  C   UNL     1      46.383 -10.168   7.613  1.00  0.00     0.001 A 
HETATM   28  C   UNL     1      45.776 -11.177   6.856  1.00  0.00     0.014 A 
ENDBRANCH   1  23
TORSDOF 3
ENDMDL
MODEL 9
REMARK VINA RESULT:      -8.0      3.041      3.870
REMARK  3 active torsions:
REMARK  status: ('A' for Active; 'I' for Inactive)
REMARK    1  A    between atoms: C_4  and  C_5 
REMARK    2  A    between atoms: C_9  and  C_10 
REMARK    3  A    between atoms: C_23  and  N_24 
ROOT
HETATM    1  C   UNL     1      43.198 -15.510   5.192  1.00  0.00     0.070 A 
HETATM    2  N   UNL     1      43.726 -14.812   6.221  1.00  0.00    -0.228 NA
HETATM    3  C   UNL     1      43.546 -13.499   6.327  1.00  0.00     0.165 A 
HETATM    4  C   UNL     1      42.792 -12.773   5.402  1.00  0.00     0.063 A 
HETATM    5  C   UNL     1      42.242 -13.493   4.289  1.00  0.00    -0.006 A 
HETATM    6  C   UNL     1      42.459 -14.875   4.209  1.00  0.00     0.046 A 
HETATM    7  N   UNL     1      44.124 -12.947   7.382  1.00  0.00    -0.222 NA
HETATM    8  C   UNL     1      43.968 -11.639   7.558  1.00  0.00     0.237 A 
HETATM    9  N   UNL     1      43.258 -10.829   6.780  1.00  0.00    -0.229 NA
HETATM   10  C   UNL     1      42.669 -11.402   5.724  1.00  0.00     0.117 A 
ENDROOT
BRANCH   5  11
HETATM   11  C   UNL     1      41.445 -12.870   3.216  1.00  0.00    -0.022 A 
HETATM   12  C   UNL     1      40.055 -12.708   3.351  1.00  0.00     0.052 A 
HETATM   13  C   UNL     1      39.355 -12.136   2.308  1.00  0.00     0.105 A 
HETATM   14  C   UNL     1      39.982 -11.702   1.165  1.00  0.00     0.105 A 
HETATM   15  O   UNL     1      38.010 -11.939   2.267  1.00  0.00    -0.323 OA
HETATM   16  O   UNL     1      39.113 -11.178   0.261  1.00  0.00    -0.323 OA
HETATM   17  C   UNL     1      41.345 -11.814   1.001  1.00  0.00     0.040 A 
HETATM   18  C   UNL     1      37.858 -11.365   0.950  1.00  0.00     0.352 A 
HETATM   19  C   UNL     1      42.077 -12.405   2.036  1.00  0.00     0.015 A 
ENDBRANCH   5  11
BRANCH  10  20
HETATM   20  N   UNL     1      41.942 -10.495   4.955  1.00  0.00    -0.286 NA
HETATM   21  H   UNL     1      42.392 -10.429   4.045  1.00  0.00     0.125 HD
HETATM   22  H   UNL     1      41.852  -9.589   5.400  1.00  0.00     0.125 HD
ENDBRANCH  10  20
BRANCH   1  23
HETATM   23  C   UNL     1      43.435 -16.970   5.221  1.00  0.00    -0.007 A 
HETATM   24  C   UNL     1      43.892 -17.642   4.069  1.00  0.00     0.014 A 
HETATM   25  C   UNL     1      44.144 -19.017   4.071  1.00  0.00     0.001 A 
HETATM   26  C   UNL     1      43.941 -19.758   5.229  1.00  0.00     0.000 A 
HETATM   27  C   UNL     1      43.477 -19.127   6.379  1.00  0.00     0.001 A 
HETATM   28  C   UNL     1      43.225 -17.750   6.374  1.00  0.00     0.014 A 
ENDBRANCH   1  23
TORSDOF 3
ENDMDL
MODEL 10
REMARK VINA RESULT:      -7.9     14.856     18.477
REMARK  3 active torsions:
REMARK  status: ('A' for Active; 'I' for Inactive)
REMARK    1  A    between atoms: C_4  and  C_5 
REMARK    2  A    between atoms: C_9  and  C_10 
REMARK    3  A    between atoms: C_23  and  N_24 
ROOT
HETATM    1  C   UNL     1      41.739  -7.445  15.055  1.00  0.00     0.070 A 
HETATM    2  N   UNL     1      41.693  -6.105  14.891  1.00  0.00    -0.228 NA
HETATM    3  C   UNL     1      41.361  -5.299  15.895  1.00  0.00     0.165 A 
HETATM    4  C   UNL     1      41.062  -5.782  17.171  1.00  0.00     0.063 A 
HETATM    5  C   UNL     1      41.083  -7.204  17.359  1.00  0.00    -0.006 A 
HETATM    6  C   UNL     1      41.431  -8.021  16.275  1.00  0.00     0.046 A 
HETATM    7  N   UNL     1      41.353  -4.011  15.589  1.00  0.00    -0.222 NA
HETATM    8  C   UNL     1      41.048  -3.149  16.553  1.00  0.00     0.237 A 
HETATM    9  N   UNL     1      40.771  -3.459  17.815  1.00  0.00    -0.229 NA
HETATM   10  C   UNL     1      40.794  -4.763  18.114  1.00  0.00     0.117 A 
ENDROOT
BRANCH   5  11
HETATM   11  C   UNL     1      40.768  -7.873  18.635  1.00  0.00    -0.022 A 
HETATM   12  C   UNL     1      41.789  -8.217  19.541  1.00  0.00     0.052 A 
HETATM   13  C   UNL     1      41.440  -8.857  20.713  1.00  0.00     0.105 A 
HETATM   14  C   UNL     1      40.132  -9.141  21.022  1.00  0.00     0.105 A 
HETATM   15  O   UNL     1      42.303  -9.283  21.673  1.00  0.00    -0.323 OA
HETATM   16  O   UNL     1      40.007  -9.781  22.215  1.00  0.00    -0.323 OA
HETATM   17  C   UNL     1      39.098  -8.799  20.180  1.00  0.00     0.040 A 
HETATM   18  C   UNL     1      41.391  -9.902  22.605  1.00  0.00     0.352 A 
HETATM   19  C   UNL     1      39.424  -8.162  18.977  1.00  0.00     0.015 A 
ENDBRANCH   5  11
BRANCH  10  20
HETATM   20  N   UNL     1      40.496  -5.014  19.451  1.00  0.00    -0.286 NA
HETATM   21  H   UNL     1      41.234  -5.603  19.829  1.00  0.00     0.125 HD
HETATM   22  H   UNL     1      39.580  -5.428  19.578  1.00  0.00     0.125 HD
ENDBRANCH  10  20
BRANCH   1  23
HETATM   23  C   UNL     1      42.168  -8.220  13.870  1.00  0.00    -0.007 A 
HETATM   24  C   UNL     1      43.251  -7.780  13.083  1.00  0.00     0.014 A 
HETATM   25  C   UNL     1      43.693  -8.502  11.970  1.00  0.00     0.001 A 
HETATM   26  C   UNL     1      43.057  -9.685  11.613  1.00  0.00     0.000 A 
HETATM   27  C   UNL     1      41.976 -10.139  12.362  1.00  0.00     0.001 A 
HETATM   28  C   UNL     1      41.536  -9.415  13.475  1.00  0.00     0.014 A 
ENDBRANCH   1  23
TORSDOF 3
ENDMDL
