MODEL 1
REMARK VINA RESULT:      -7.2      0.000      0.000
REMARK  5 active torsions:
REMARK  status: ('A' for Active; 'I' for Inactive)
REMARK    1  A    between atoms: C_3  and  N_4 
REMARK       I    between atoms: N_4  and  C_5 
REMARK       I    between atoms: C_5  and  N_6 
REMARK    2  A    between atoms: N_6  and  C_7 
REMARK    3  A    between atoms: C_7  and  C_8 
REMARK    4  A    between atoms: C_8  and  O_9 
REMARK    5  A    between atoms: O_9  and  C_10 
ROOT
HETATM    1  N   UNL     1      43.469 -17.269   2.201  1.00  0.00    -0.307 N 
HETATM    2  C   UNL     1      42.332 -16.492   2.245  1.00  0.00     0.320 C 
HETATM    3  N   UNL     1      42.473 -15.383   1.437  1.00  0.00    -0.340 N 
HETATM    4  O   UNL     1      41.300 -16.740   2.849  1.00  0.00    -0.247 OA
HETATM    5  H   UNL     1      43.949 -17.190   1.315  1.00  0.00     0.170 HD
HETATM    6  H   UNL     1      43.412 -15.040   1.282  1.00  0.00     0.164 HD
ENDROOT
BRANCH   3   7
HETATM    7  C   UNL     1      41.398 -14.415   1.287  1.00  0.00     0.156 C 
BRANCH   7   8
HETATM    8  C   UNL     1      41.718 -13.036   1.896  1.00  0.00     0.142 C 
HETATM    9  C   UNL     1      41.266 -11.883   1.002  1.00  0.00     0.042 C 
BRANCH   8  10
HETATM   10  O   UNL     1      41.038 -12.883   3.153  1.00  0.00    -0.345 OA
BRANCH  10  11
HETATM   11  C   UNL     1      41.578 -13.445   4.275  1.00  0.00     0.069 A 
HETATM   12  C   UNL     1      42.908 -13.360   4.690  1.00  0.00     0.038 A 
HETATM   13  C   UNL     1      43.325 -14.003   5.862  1.00  0.00     0.026 A 
HETATM   14  C   UNL     1      42.411 -14.730   6.621  1.00  0.00     0.034 A 
HETATM   15 CL   UNL     1      42.929 -15.518   8.059  1.00  0.00    -0.084 Cl
HETATM   16  C   UNL     1      41.084 -14.824   6.216  1.00  0.00     0.026 A 
HETATM   17  C   UNL     1      40.672 -14.184   5.045  1.00  0.00     0.038 A 
ENDBRANCH  10  11
ENDBRANCH   8  10
ENDBRANCH   7   8
ENDBRANCH   3   7
BRANCH   1  18
HETATM   18  C   UNL     1      43.678 -18.477   2.909  1.00  0.00     0.059 A 
HETATM   19  C   UNL     1      44.055 -18.592   4.255  1.00  0.00    -0.032 A 
HETATM   20  C   UNL     1      44.392 -17.436   5.152  1.00  0.00     0.050 C 
HETATM   21  C   UNL     1      44.157 -19.882   4.808  1.00  0.00     0.028 A 
HETATM   22  C   UNL     1      43.949 -20.991   4.004  1.00  0.00     0.117 A 
HETATM   23  N   UNL     1      43.656 -20.916   2.694  1.00  0.00    -0.271 NA
HETATM   24  C   UNL     1      43.531 -19.667   2.186  1.00  0.00     0.146 A 
ENDBRANCH   1  18
TORSDOF 5
ENDMDL
MODEL 2
REMARK VINA RESULT:      -7.0      5.158      8.604
REMARK  5 active torsions:
REMARK  status: ('A' for Active; 'I' for Inactive)
REMARK    1  A    between atoms: C_3  and  N_4 
REMARK       I    between atoms: N_4  and  C_5 
REMARK       I    between atoms: C_5  and  N_6 
REMARK    2  A    between atoms: N_6  and  C_7 
REMARK    3  A    between atoms: C_7  and  C_8 
REMARK    4  A    between atoms: C_8  and  O_9 
REMARK    5  A    between atoms: O_9  and  C_10 
ROOT
HETATM    1  N   UNL     1      42.866 -10.875   7.867  1.00  0.00    -0.307 N 
HETATM    2  C   UNL     1      43.862 -11.785   7.586  1.00  0.00     0.320 C 
HETATM    3  N   UNL     1      43.327 -12.939   7.054  1.00  0.00    -0.340 N 
HETATM    4  O   UNL     1      45.065 -11.615   7.715  1.00  0.00    -0.247 OA
HETATM    5  H   UNL     1      42.074 -10.977   7.249  1.00  0.00     0.170 HD
HETATM    6  H   UNL     1      42.378 -13.171   7.315  1.00  0.00     0.164 HD
ENDROOT
BRANCH   3   7
HETATM    7  C   UNL     1      44.174 -14.048   6.645  1.00  0.00     0.156 C 
BRANCH   7   8
HETATM    8  C   UNL     1      43.391 -15.323   6.280  1.00  0.00     0.142 C 
HETATM    9  C   UNL     1      42.106 -15.473   7.091  1.00  0.00     0.042 C 
BRANCH   8  10
HETATM   10  O   UNL     1      43.010 -15.287   4.894  1.00  0.00    -0.345 OA
BRANCH  10  11
HETATM   11  C   UNL     1      43.160 -16.412   4.132  1.00  0.00     0.069 A 
HETATM   12  C   UNL     1      42.613 -16.640   2.869  1.00  0.00     0.038 A 
HETATM   13  C   UNL     1      42.841 -17.854   2.209  1.00  0.00     0.026 A 
HETATM   14  C   UNL     1      43.619 -18.840   2.812  1.00  0.00     0.034 A 
HETATM   15 CL   UNL     1      43.895 -20.329   1.998  1.00  0.00    -0.084 Cl
HETATM   16  C   UNL     1      44.166 -18.625   4.073  1.00  0.00     0.026 A 
HETATM   17  C   UNL     1      43.934 -17.414   4.729  1.00  0.00     0.038 A 
ENDBRANCH  10  11
ENDBRANCH   8  10
ENDBRANCH   7   8
ENDBRANCH   3   7
BRANCH   1  18
HETATM   18  C   UNL     1      43.050  -9.588   8.426  1.00  0.00     0.059 A 
HETATM   19  C   UNL     1      43.391  -9.305   9.757  1.00  0.00    -0.032 A 
HETATM   20  C   UNL     1      43.529 -10.332  10.843  1.00  0.00     0.050 C 
HETATM   21  C   UNL     1      43.593  -7.960  10.120  1.00  0.00     0.028 A 
HETATM   22  C   UNL     1      43.388  -6.959   9.183  1.00  0.00     0.117 A 
HETATM   23  N   UNL     1      42.991  -7.193   7.920  1.00  0.00    -0.271 NA
HETATM   24  C   UNL     1      42.833  -8.494   7.579  1.00  0.00     0.146 A 
ENDBRANCH   1  18
TORSDOF 5
ENDMDL
MODEL 3
REMARK VINA RESULT:      -6.9      4.335      7.418
REMARK  5 active torsions:
REMARK  status: ('A' for Active; 'I' for Inactive)
REMARK    1  A    between atoms: C_3  and  N_4 
REMARK       I    between atoms: N_4  and  C_5 
REMARK       I    between atoms: C_5  and  N_6 
REMARK    2  A    between atoms: N_6  and  C_7 
REMARK    3  A    between atoms: C_7  and  C_8 
REMARK    4  A    between atoms: C_8  and  O_9 
REMARK    5  A    between atoms: O_9  and  C_10 
ROOT
HETATM    1  N   UNL     1      43.490 -12.070   7.455  1.00  0.00    -0.307 N 
HETATM    2  C   UNL     1      42.704 -12.195   6.331  1.00  0.00     0.320 C 
HETATM    3  N   UNL     1      42.069 -13.418   6.320  1.00  0.00    -0.340 N 
HETATM    4  O   UNL     1      42.516 -11.347   5.472  1.00  0.00    -0.247 OA
HETATM    5  H   UNL     1      43.125 -12.599   8.235  1.00  0.00     0.170 HD
HETATM    6  H   UNL     1      42.524 -14.181   6.803  1.00  0.00     0.164 HD
ENDROOT
BRANCH   3   7
HETATM    7  C   UNL     1      41.155 -13.787   5.249  1.00  0.00     0.156 C 
BRANCH   7   8
HETATM    8  C   UNL     1      41.837 -14.524   4.080  1.00  0.00     0.142 C 
HETATM    9  C   UNL     1      42.268 -13.576   2.963  1.00  0.00     0.042 C 
BRANCH   8  10
HETATM   10  O   UNL     1      43.023 -15.192   4.543  1.00  0.00    -0.345 OA
BRANCH  10  11
HETATM   11  C   UNL     1      43.285 -16.461   4.108  1.00  0.00     0.069 A 
HETATM   12  C   UNL     1      44.146 -17.383   4.705  1.00  0.00     0.038 A 
HETATM   13  C   UNL     1      44.329 -18.649   4.136  1.00  0.00     0.026 A 
HETATM   14  C   UNL     1      43.648 -18.995   2.970  1.00  0.00     0.034 A 
HETATM   15 CL   UNL     1      43.876 -20.551   2.276  1.00  0.00    -0.084 Cl
HETATM   16  C   UNL     1      42.790 -18.082   2.366  1.00  0.00     0.026 A 
HETATM   17  C   UNL     1      42.612 -16.819   2.934  1.00  0.00     0.038 A 
ENDBRANCH  10  11
ENDBRANCH   8  10
ENDBRANCH   7   8
ENDBRANCH   3   7
BRANCH   1  18
HETATM   18  C   UNL     1      44.288 -10.950   7.791  1.00  0.00     0.059 A 
HETATM   19  C   UNL     1      43.846  -9.778   8.422  1.00  0.00    -0.032 A 
HETATM   20  C   UNL     1      42.416  -9.478   8.767  1.00  0.00     0.050 C 
HETATM   21  C   UNL     1      44.799  -8.791   8.734  1.00  0.00     0.028 A 
HETATM   22  C   UNL     1      46.121  -8.970   8.357  1.00  0.00     0.117 A 
HETATM   23  N   UNL     1      46.563 -10.049   7.688  1.00  0.00    -0.271 NA
HETATM   24  C   UNL     1      45.638 -11.003   7.424  1.00  0.00     0.146 A 
ENDBRANCH   1  18
TORSDOF 5
ENDMDL
MODEL 4
REMARK VINA RESULT:      -6.7      3.168      4.671
REMARK  5 active torsions:
REMARK  status: ('A' for Active; 'I' for Inactive)
REMARK    1  A    between atoms: C_3  and  N_4 
REMARK       I    between atoms: N_4  and  C_5 
REMARK       I    between atoms: C_5  and  N_6 
REMARK    2  A    between atoms: N_6  and  C_7 
REMARK    3  A    between atoms: C_7  and  C_8 
REMARK    4  A    between atoms: C_8  and  O_9 
REMARK    5  A    between atoms: O_9  and  C_10 
ROOT
HETATM    1  N   UNL     1      42.725 -15.582   4.686  1.00  0.00    -0.307 N 
HETATM    2  C   UNL     1      41.401 -15.212   4.774  1.00  0.00     0.320 C 
HETATM    3  N   UNL     1      41.293 -13.861   5.029  1.00  0.00    -0.340 N 
HETATM    4  O   UNL     1      40.427 -15.929   4.597  1.00  0.00    -0.247 OA
HETATM    5  H   UNL     1      43.309 -14.828   4.353  1.00  0.00     0.170 HD
HETATM    6  H   UNL     1      42.058 -13.421   5.522  1.00  0.00     0.164 HD
ENDROOT
BRANCH   3   7
HETATM    7  C   UNL     1      39.995 -13.213   5.139  1.00  0.00     0.156 C 
BRANCH   7   8
HETATM    8  C   UNL     1      39.527 -12.538   3.835  1.00  0.00     0.142 C 
HETATM    9  C   UNL     1      39.258 -11.045   4.014  1.00  0.00     0.042 C 
BRANCH   8  10
HETATM   10  O   UNL     1      40.542 -12.662   2.825  1.00  0.00    -0.345 OA
BRANCH  10  11
HETATM   11  C   UNL     1      40.223 -13.242   1.629  1.00  0.00     0.069 A 
HETATM   12  C   UNL     1      40.264 -14.604   1.328  1.00  0.00     0.038 A 
HETATM   13  C   UNL     1      39.920 -15.055   0.048  1.00  0.00     0.026 A 
HETATM   14  C   UNL     1      39.533 -14.144  -0.932  1.00  0.00     0.034 A 
HETATM   15 CL   UNL     1      39.112 -14.703  -2.503  1.00  0.00    -0.084 Cl
HETATM   16  C   UNL     1      39.491 -12.784  -0.644  1.00  0.00     0.026 A 
HETATM   17  C   UNL     1      39.837 -12.337   0.633  1.00  0.00     0.038 A 
ENDBRANCH  10  11
ENDBRANCH   8  10
ENDBRANCH   7   8
ENDBRANCH   3   7
BRANCH   1  18
HETATM   18  C   UNL     1      43.207 -16.890   4.441  1.00  0.00     0.059 A 
HETATM   19  C   UNL     1      43.470 -17.452   3.183  1.00  0.00    -0.032 A 
HETATM   20  C   UNL     1      43.190 -16.781   1.869  1.00  0.00     0.050 C 
HETATM   21  C   UNL     1      44.007 -18.752   3.135  1.00  0.00     0.028 A 
HETATM   22  C   UNL     1      44.199 -19.458   4.312  1.00  0.00     0.117 A 
HETATM   23  N   UNL     1      43.891 -18.975   5.528  1.00  0.00    -0.271 NA
HETATM   24  C   UNL     1      43.405 -17.711   5.558  1.00  0.00     0.146 A 
ENDBRANCH   1  18
TORSDOF 5
ENDMDL
MODEL 5
REMARK VINA RESULT:      -6.6      4.202      7.288
REMARK  5 active torsions:
REMARK  status: ('A' for Active; 'I' for Inactive)
REMARK    1  A    between atoms: C_3  and  N_4 
REMARK       I    between atoms: N_4  and  C_5 
REMARK       I    between atoms: C_5  and  N_6 
REMARK    2  A    between atoms: N_6  and  C_7 
REMARK    3  A    between atoms: C_7  and  C_8 
REMARK    4  A    between atoms: C_8  and  O_9 
REMARK    5  A    between atoms: O_9  and  C_10 
ROOT
HETATM    1  N   UNL     1      42.843 -11.006   6.113  1.00  0.00    -0.307 N 
HETATM    2  C   UNL     1      42.491 -12.326   5.937  1.00  0.00     0.320 C 
HETATM    3  N   UNL     1      41.768 -12.482   4.773  1.00  0.00    -0.340 N 
HETATM    4  O   UNL     1      42.803 -13.268   6.649  1.00  0.00    -0.247 OA
HETATM    5  H   UNL     1      42.951 -10.521   5.233  1.00  0.00     0.170 HD
HETATM    6  H   UNL     1      41.237 -11.686   4.448  1.00  0.00     0.164 HD
ENDROOT
BRANCH   3   7
HETATM    7  C   UNL     1      41.300 -13.790   4.342  1.00  0.00     0.156 C 
BRANCH   7   8
HETATM    8  C   UNL     1      42.236 -14.481   3.332  1.00  0.00     0.142 C 
HETATM    9  C   UNL     1      43.019 -13.482   2.482  1.00  0.00     0.042 C 
BRANCH   8  10
HETATM   10  O   UNL     1      43.203 -15.287   4.027  1.00  0.00    -0.345 OA
BRANCH  10  11
HETATM   11  C   UNL     1      43.348 -16.601   3.678  1.00  0.00     0.069 A 
HETATM   12  C   UNL     1      42.927 -17.197   2.489  1.00  0.00     0.038 A 
HETATM   13  C   UNL     1      43.132 -18.565   2.273  1.00  0.00     0.026 A 
HETATM   14  C   UNL     1      43.761 -19.337   3.247  1.00  0.00     0.034 A 
HETATM   15 CL   UNL     1      44.010 -21.017   2.977  1.00  0.00    -0.084 Cl
HETATM   16  C   UNL     1      44.183 -18.754   4.438  1.00  0.00     0.026 A 
HETATM   17  C   UNL     1      43.974 -17.390   4.650  1.00  0.00     0.038 A 
ENDBRANCH  10  11
ENDBRANCH   8  10
ENDBRANCH   7   8
ENDBRANCH   3   7
BRANCH   1  18
HETATM   18  C   UNL     1      43.582 -10.481   7.200  1.00  0.00     0.059 A 
HETATM   19  C   UNL     1      44.970 -10.574   7.379  1.00  0.00    -0.032 A 
HETATM   20  C   UNL     1      45.901 -11.335   6.480  1.00  0.00     0.050 C 
HETATM   21  C   UNL     1      45.541  -9.935   8.496  1.00  0.00     0.028 A 
HETATM   22  C   UNL     1      44.721  -9.295   9.413  1.00  0.00     0.117 A 
HETATM   23  N   UNL     1      43.382  -9.250   9.308  1.00  0.00    -0.271 NA
HETATM   24  C   UNL     1      42.853  -9.843   8.211  1.00  0.00     0.146 A 
ENDBRANCH   1  18
TORSDOF 5
ENDMDL
MODEL 6
REMARK VINA RESULT:      -6.6      3.016      3.942
REMARK  5 active torsions:
REMARK  status: ('A' for Active; 'I' for Inactive)
REMARK    1  A    between atoms: C_3  and  N_4 
REMARK       I    between atoms: N_4  and  C_5 
REMARK       I    between atoms: C_5  and  N_6 
REMARK    2  A    between atoms: N_6  and  C_7 
REMARK    3  A    between atoms: C_7  and  C_8 
REMARK    4  A    between atoms: C_8  and  O_9 
REMARK    5  A    between atoms: O_9  and  C_10 
ROOT
HETATM    1  N   UNL     1      43.937 -17.114   4.952  1.00  0.00    -0.307 N 
HETATM    2  C   UNL     1      42.874 -16.416   5.482  1.00  0.00     0.320 C 
HETATM    3  N   UNL     1      43.304 -15.230   6.039  1.00  0.00    -0.340 N 
HETATM    4  O   UNL     1      41.695 -16.733   5.435  1.00  0.00    -0.247 OA
HETATM    5  H   UNL     1      44.676 -16.500   4.639  1.00  0.00     0.170 HD
HETATM    6  H   UNL     1      44.254 -15.198   6.381  1.00  0.00     0.164 HD
ENDROOT
BRANCH   3   7
HETATM    7  C   UNL     1      42.367 -14.294   6.642  1.00  0.00     0.156 C 
BRANCH   7   8
HETATM    8  C   UNL     1      41.885 -13.194   5.678  1.00  0.00     0.142 C 
HETATM    9  C   UNL     1      40.427 -13.379   5.262  1.00  0.00     0.042 C 
BRANCH   8  10
HETATM   10  O   UNL     1      41.979 -11.907   6.312  1.00  0.00    -0.345 OA
BRANCH  10  11
HETATM   11  C   UNL     1      43.213 -11.401   6.611  1.00  0.00     0.069 A 
HETATM   12  C   UNL     1      44.408 -11.675   5.944  1.00  0.00     0.038 A 
HETATM   13  C   UNL     1      45.606 -11.091   6.372  1.00  0.00     0.026 A 
HETATM   14  C   UNL     1      45.610 -10.231   7.468  1.00  0.00     0.034 A 
HETATM   15 CL   UNL     1      47.085  -9.517   7.991  1.00  0.00    -0.084 Cl
HETATM   16  C   UNL     1      44.425  -9.953   8.143  1.00  0.00     0.026 A 
HETATM   17  C   UNL     1      43.232 -10.539   7.714  1.00  0.00     0.038 A 
ENDBRANCH  10  11
ENDBRANCH   8  10
ENDBRANCH   7   8
ENDBRANCH   3   7
BRANCH   1  18
HETATM   18  C   UNL     1      43.867 -18.373   4.309  1.00  0.00     0.059 A 
HETATM   19  C   UNL     1      43.545 -18.597   2.963  1.00  0.00    -0.032 A 
HETATM   20  C   UNL     1      43.127 -17.530   1.993  1.00  0.00     0.050 C 
HETATM   21  C   UNL     1      43.586 -19.919   2.481  1.00  0.00     0.028 A 
HETATM   22  C   UNL     1      43.875 -20.958   3.352  1.00  0.00     0.117 A 
HETATM   23  N   UNL     1      44.117 -20.783   4.663  1.00  0.00    -0.271 NA
HETATM   24  C   UNL     1      44.106 -19.502   5.102  1.00  0.00     0.146 A 
ENDBRANCH   1  18
TORSDOF 5
ENDMDL
MODEL 7
REMARK VINA RESULT:      -6.3      3.372      4.934
REMARK  5 active torsions:
REMARK  status: ('A' for Active; 'I' for Inactive)
REMARK    1  A    between atoms: C_3  and  N_4 
REMARK       I    between atoms: N_4  and  C_5 
REMARK       I    between atoms: C_5  and  N_6 
REMARK    2  A    between atoms: N_6  and  C_7 
REMARK    3  A    between atoms: C_7  and  C_8 
REMARK    4  A    between atoms: C_8  and  O_9 
REMARK    5  A    between atoms: O_9  and  C_10 
ROOT
HETATM    1  N   UNL     1      41.620 -15.785   4.325  1.00  0.00    -0.307 N 
HETATM    2  C   UNL     1      41.655 -14.481   3.881  1.00  0.00     0.320 C 
HETATM    3  N   UNL     1      40.599 -13.764   4.403  1.00  0.00    -0.340 N 
HETATM    4  O   UNL     1      42.513 -13.971   3.176  1.00  0.00    -0.247 OA
HETATM    5  H   UNL     1      41.192 -15.864   5.237  1.00  0.00     0.170 HD
HETATM    6  H   UNL     1      39.762 -14.280   4.640  1.00  0.00     0.164 HD
ENDROOT
BRANCH   3   7
HETATM    7  C   UNL     1      40.425 -12.350   4.109  1.00  0.00     0.156 C 
BRANCH   7   8
HETATM    8  C   UNL     1      39.472 -12.076   2.929  1.00  0.00     0.142 C 
HETATM    9  C   UNL     1      38.689 -10.776   3.100  1.00  0.00     0.042 C 
BRANCH   8  10
HETATM   10  O   UNL     1      40.221 -11.956   1.708  1.00  0.00    -0.345 OA
BRANCH  10  11
HETATM   11  C   UNL     1      39.780 -12.606   0.590  1.00  0.00     0.069 A 
HETATM   12  C   UNL     1      38.954 -12.082  -0.406  1.00  0.00     0.038 A 
HETATM   13  C   UNL     1      38.570 -12.874  -1.494  1.00  0.00     0.026 A 
HETATM   14  C   UNL     1      39.013 -14.191  -1.588  1.00  0.00     0.034 A 
HETATM   15 CL   UNL     1      38.537 -15.160  -2.927  1.00  0.00    -0.084 Cl
HETATM   16  C   UNL     1      39.834 -14.726  -0.601  1.00  0.00     0.026 A 
HETATM   17  C   UNL     1      40.213 -13.933   0.485  1.00  0.00     0.038 A 
ENDBRANCH  10  11
ENDBRANCH   8  10
ENDBRANCH   7   8
ENDBRANCH   3   7
BRANCH   1  18
HETATM   18  C   UNL     1      42.543 -16.803   3.987  1.00  0.00     0.059 A 
HETATM   19  C   UNL     1      43.632 -17.224   4.764  1.00  0.00    -0.032 A 
HETATM   20  C   UNL     1      44.055 -16.593   6.059  1.00  0.00     0.050 C 
HETATM   21  C   UNL     1      44.409 -18.299   4.292  1.00  0.00     0.028 A 
HETATM   22  C   UNL     1      44.124 -18.861   3.058  1.00  0.00     0.117 A 
HETATM   23  N   UNL     1      43.132 -18.433   2.257  1.00  0.00    -0.271 NA
HETATM   24  C   UNL     1      42.375 -17.420   2.741  1.00  0.00     0.146 A 
ENDBRANCH   1  18
TORSDOF 5
ENDMDL
MODEL 8
REMARK VINA RESULT:      -6.3      5.468      7.094
REMARK  5 active torsions:
REMARK  status: ('A' for Active; 'I' for Inactive)
REMARK    1  A    between atoms: C_3  and  N_4 
REMARK       I    between atoms: N_4  and  C_5 
REMARK       I    between atoms: C_5  and  N_6 
REMARK    2  A    between atoms: N_6  and  C_7 
REMARK    3  A    between atoms: C_7  and  C_8 
REMARK    4  A    between atoms: C_8  and  O_9 
REMARK    5  A    between atoms: O_9  and  C_10 
ROOT
HETATM    1  N   UNL     1      41.602 -12.961   6.489  1.00  0.00    -0.307 N 
HETATM    2  C   UNL     1      42.697 -12.130   6.400  1.00  0.00     0.320 C 
HETATM    3  N   UNL     1      42.638 -11.149   7.367  1.00  0.00    -0.340 N 
HETATM    4  O   UNL     1      43.641 -12.243   5.633  1.00  0.00    -0.247 OA
HETATM    5  H   UNL     1      41.250 -13.026   7.434  1.00  0.00     0.170 HD
HETATM    6  H   UNL     1      41.721 -10.876   7.695  1.00  0.00     0.164 HD
ENDROOT
BRANCH   3   7
HETATM    7  C   UNL     1      43.694 -10.157   7.504  1.00  0.00     0.156 C 
BRANCH   7   8
HETATM    8  C   UNL     1      44.854 -10.610   8.412  1.00  0.00     0.142 C 
HETATM    9  C   UNL     1      46.168 -10.764   7.648  1.00  0.00     0.042 C 
BRANCH   8  10
HETATM   10  O   UNL     1      45.082  -9.636   9.444  1.00  0.00    -0.345 OA
BRANCH  10  11
HETATM   11  C   UNL     1      44.272  -9.633  10.546  1.00  0.00     0.069 A 
HETATM   12  C   UNL     1      43.889 -10.744  11.299  1.00  0.00     0.038 A 
HETATM   13  C   UNL     1      43.039 -10.591  12.401  1.00  0.00     0.026 A 
HETATM   14  C   UNL     1      42.573  -9.325  12.751  1.00  0.00     0.034 A 
HETATM   15 CL   UNL     1      41.529  -9.143  14.106  1.00  0.00    -0.084 Cl
HETATM   16  C   UNL     1      42.946  -8.212  12.006  1.00  0.00     0.026 A 
HETATM   17  C   UNL     1      43.792  -8.369  10.906  1.00  0.00     0.038 A 
ENDBRANCH  10  11
ENDBRANCH   8  10
ENDBRANCH   7   8
ENDBRANCH   3   7
BRANCH   1  18
HETATM   18  C   UNL     1      41.331 -14.071   5.654  1.00  0.00     0.059 A 
HETATM   19  C   UNL     1      41.553 -15.419   5.971  1.00  0.00    -0.032 A 
HETATM   20  C   UNL     1      42.208 -15.906   7.231  1.00  0.00     0.050 C 
HETATM   21  C   UNL     1      41.163 -16.395   5.035  1.00  0.00     0.028 A 
HETATM   22  C   UNL     1      40.639 -16.003   3.813  1.00  0.00     0.117 A 
HETATM   23  N   UNL     1      40.480 -14.718   3.451  1.00  0.00    -0.271 NA
HETATM   24  C   UNL     1      40.830 -13.793   4.376  1.00  0.00     0.146 A 
ENDBRANCH   1  18
TORSDOF 5
ENDMDL
MODEL 9
REMARK VINA RESULT:      -6.2      6.676      8.111
REMARK  5 active torsions:
REMARK  status: ('A' for Active; 'I' for Inactive)
REMARK    1  A    between atoms: C_3  and  N_4 
REMARK       I    between atoms: N_4  and  C_5 
REMARK       I    between atoms: C_5  and  N_6 
REMARK    2  A    between atoms: N_6  and  C_7 
REMARK    3  A    between atoms: C_7  and  C_8 
REMARK    4  A    between atoms: C_8  and  O_9 
REMARK    5  A    between atoms: O_9  and  C_10 
ROOT
HETATM    1  N   UNL     1      42.957 -12.629   7.129  1.00  0.00    -0.307 N 
HETATM    2  C   UNL     1      44.038 -11.860   7.502  1.00  0.00     0.320 C 
HETATM    3  N   UNL     1      43.682 -10.978   8.500  1.00  0.00    -0.340 N 
HETATM    4  O   UNL     1      45.181 -11.953   7.082  1.00  0.00    -0.247 OA
HETATM    5  H   UNL     1      42.307 -12.765   7.891  1.00  0.00     0.170 HD
HETATM    6  H   UNL     1      42.715 -10.685   8.535  1.00  0.00     0.164 HD
ENDROOT
BRANCH   3   7
HETATM    7  C   UNL     1      44.654 -10.070   9.090  1.00  0.00     0.156 C 
BRANCH   7   8
HETATM    8  C   UNL     1      44.027  -9.002  10.007  1.00  0.00     0.142 C 
HETATM    9  C   UNL     1      43.511  -7.794   9.229  1.00  0.00     0.042 C 
BRANCH   8  10
HETATM   10  O   UNL     1      42.903  -9.557  10.712  1.00  0.00    -0.345 OA
BRANCH  10  11
HETATM   11  C   UNL     1      42.611  -9.096  11.966  1.00  0.00     0.069 A 
HETATM   12  C   UNL     1      43.335  -8.150  12.694  1.00  0.00     0.038 A 
HETATM   13  C   UNL     1      42.923  -7.782  13.980  1.00  0.00     0.026 A 
HETATM   14  C   UNL     1      41.785  -8.360  14.539  1.00  0.00     0.034 A 
HETATM   15 CL   UNL     1      41.284  -7.905  16.120  1.00  0.00    -0.084 Cl
HETATM   16  C   UNL     1      41.058  -9.306  13.824  1.00  0.00     0.026 A 
HETATM   17  C   UNL     1      41.474  -9.672  12.542  1.00  0.00     0.038 A 
ENDBRANCH  10  11
ENDBRANCH   8  10
ENDBRANCH   7   8
ENDBRANCH   3   7
BRANCH   1  18
HETATM   18  C   UNL     1      42.956 -13.632   6.131  1.00  0.00     0.059 A 
HETATM   19  C   UNL     1      42.964 -15.017   6.349  1.00  0.00    -0.032 A 
HETATM   20  C   UNL     1      43.069 -15.671   7.697  1.00  0.00     0.050 C 
HETATM   21  C   UNL     1      42.898 -15.867   5.230  1.00  0.00     0.028 A 
HETATM   22  C   UNL     1      42.893 -15.323   3.955  1.00  0.00     0.117 A 
HETATM   23  N   UNL     1      42.956 -14.002   3.710  1.00  0.00    -0.271 NA
HETATM   24  C   UNL     1      42.987 -13.198   4.800  1.00  0.00     0.146 A 
ENDBRANCH   1  18
TORSDOF 5
ENDMDL
MODEL 10
REMARK VINA RESULT:      -6.2     14.074     15.393
REMARK  5 active torsions:
REMARK  status: ('A' for Active; 'I' for Inactive)
REMARK    1  A    between atoms: C_3  and  N_4 
REMARK       I    between atoms: N_4  and  C_5 
REMARK       I    between atoms: C_5  and  N_6 
REMARK    2  A    between atoms: N_6  and  C_7 
REMARK    3  A    between atoms: C_7  and  C_8 
REMARK    4  A    between atoms: C_8  and  O_9 
REMARK    5  A    between atoms: O_9  and  C_10 
ROOT
HETATM    1  N   UNL     1      43.769 -30.836   3.792  1.00  0.00    -0.307 N 
HETATM    2  C   UNL     1      44.979 -30.956   3.144  1.00  0.00     0.320 C 
HETATM    3  N   UNL     1      45.991 -30.409   3.905  1.00  0.00    -0.340 N 
HETATM    4  O   UNL     1      45.184 -31.514   2.077  1.00  0.00    -0.247 OA
HETATM    5  H   UNL     1      43.875 -30.837   4.797  1.00  0.00     0.170 HD
HETATM    6  H   UNL     1      45.740 -29.666   4.543  1.00  0.00     0.164 HD
ENDROOT
BRANCH   3   7
HETATM    7  C   UNL     1      47.374 -30.433   3.454  1.00  0.00     0.156 C 
BRANCH   7   8
HETATM    8  C   UNL     1      47.855 -29.095   2.861  1.00  0.00     0.142 C 
HETATM    9  C   UNL     1      48.995 -28.475   3.667  1.00  0.00     0.042 C 
BRANCH   8  10
HETATM   10  O   UNL     1      48.348 -29.297   1.526  1.00  0.00    -0.345 OA
BRANCH  10  11
HETATM   11  C   UNL     1      47.569 -28.924   0.466  1.00  0.00     0.069 A 
HETATM   12  C   UNL     1      46.247 -28.479   0.521  1.00  0.00     0.038 A 
HETATM   13  C   UNL     1      45.565 -28.143  -0.654  1.00  0.00     0.026 A 
HETATM   14  C   UNL     1      46.206 -28.250  -1.887  1.00  0.00     0.034 A 
HETATM   15 CL   UNL     1      45.364 -27.837  -3.328  1.00  0.00    -0.084 Cl
HETATM   16  C   UNL     1      47.522 -28.696  -1.955  1.00  0.00     0.026 A 
HETATM   17  C   UNL     1      48.198 -29.032  -0.780  1.00  0.00     0.038 A 
ENDBRANCH  10  11
ENDBRANCH   8  10
ENDBRANCH   7   8
ENDBRANCH   3   7
BRANCH   1  18
HETATM   18  C   UNL     1      42.517 -31.281   3.305  1.00  0.00     0.059 A 
HETATM   19  C   UNL     1      41.807 -30.734   2.226  1.00  0.00    -0.032 A 
HETATM   20  C   UNL     1      42.222 -29.511   1.460  1.00  0.00     0.050 C 
HETATM   21  C   UNL     1      40.601 -31.350   1.843  1.00  0.00     0.028 A 
HETATM   22  C   UNL     1      40.119 -32.426   2.572  1.00  0.00     0.117 A 
HETATM   23  N   UNL     1      40.739 -32.929   3.654  1.00  0.00    -0.271 NA
HETATM   24  C   UNL     1      41.914 -32.344   3.989  1.00  0.00     0.146 A 
ENDBRANCH   1  18
TORSDOF 5
ENDMDL
