MODEL 1
REMARK VINA RESULT:      -8.1      0.000      0.000
REMARK  3 active torsions:
REMARK  status: ('A' for Active; 'I' for Inactive)
REMARK    1  A    between atoms: N_2  and  C_5 
REMARK    2  A    between atoms: C_5  and  C_6 
REMARK       I    between atoms: C_6  and  N_7 
REMARK    3  A    between atoms: N_7  and  C_8 
ROOT
HETATM    1  C   UNL     1      43.182 -13.425   6.539  1.00  0.00     0.036 A 
HETATM    2  C   UNL     1      43.175 -14.803   6.767  1.00  0.00     0.059 A 
HETATM    3  C   UNL     1      42.836 -15.727   5.758  1.00  0.00     0.041 A 
HETATM    4  C   UNL     1      42.491 -15.239   4.494  1.00  0.00    -0.031 A 
HETATM    5  C   UNL     1      42.132 -16.178   3.376  1.00  0.00     0.045 C 
HETATM    6  C   UNL     1      43.314 -17.066   3.006  1.00  0.00     0.045 C 
HETATM    7  C   UNL     1      43.525 -18.251   3.918  1.00  0.00    -0.031 A 
HETATM    8  C   UNL     1      43.322 -18.226   5.308  1.00  0.00     0.039 A 
HETATM    9  N   UNL     1      42.962 -17.093   6.063  1.00  0.00    -0.355 N 
HETATM   10  C   UNL     1      43.995 -19.437   3.313  1.00  0.00     0.009 A 
HETATM   11  C   UNL     1      44.221 -20.595   4.053  1.00  0.00     0.001 A 
HETATM   12  C   UNL     1      43.977 -20.590   5.416  1.00  0.00     0.002 A 
HETATM   13  C   UNL     1      43.534 -19.421   6.031  1.00  0.00     0.030 A 
HETATM   14  C   UNL     1      42.460 -13.853   4.270  1.00  0.00     0.012 A 
HETATM   15  C   UNL     1      42.808 -12.955   5.280  1.00  0.00     0.030 A 
HETATM   16  H   UNL     1      42.908 -17.284   7.057  1.00  0.00     0.166 HD
ENDROOT
BRANCH   1  17
HETATM   17  N   UNL     1      43.605 -12.470   7.493  1.00  0.00    -0.326 N 
HETATM   18  C   UNL     1      44.711 -11.654   7.399  1.00  0.00     0.247 C 
HETATM   19  O   UNL     1      45.617 -11.703   6.567  1.00  0.00    -0.271 OA
HETATM   20  H   UNL     1      43.012 -12.404   8.313  1.00  0.00     0.169 HD
BRANCH  18  21
HETATM   21  C   UNL     1      44.774 -10.545   8.451  1.00  0.00     0.334 C 
BRANCH  21  22
HETATM   22  N   UNL     1      43.554 -10.603   9.345  1.00  0.00    -0.071 N 
HETATM   23  C   UNL     1      43.833 -10.428  10.796  1.00  0.00     0.267 C 
HETATM   24  H   UNL     1      43.165 -11.555   9.223  1.00  0.00     0.277 HD
HETATM   25  H   UNL     1      42.835  -9.941   9.033  1.00  0.00     0.277 HD
ENDBRANCH  21  22
ENDBRANCH  18  21
ENDBRANCH   1  17
TORSDOF 3
ENDMDL
MODEL 2
REMARK VINA RESULT:      -7.8      4.161      6.201
REMARK  3 active torsions:
REMARK  status: ('A' for Active; 'I' for Inactive)
REMARK    1  A    between atoms: N_2  and  C_5 
REMARK    2  A    between atoms: C_5  and  C_6 
REMARK       I    between atoms: C_6  and  N_7 
REMARK    3  A    between atoms: N_7  and  C_8 
ROOT
HETATM    1  C   UNL     1      41.016 -14.440   2.069  1.00  0.00     0.036 A 
HETATM    2  C   UNL     1      41.649 -15.668   1.862  1.00  0.00     0.059 A 
HETATM    3  C   UNL     1      42.578 -16.195   2.782  1.00  0.00     0.041 A 
HETATM    4  C   UNL     1      42.873 -15.456   3.931  1.00  0.00    -0.031 A 
HETATM    5  C   UNL     1      43.846 -15.974   4.954  1.00  0.00     0.045 C 
HETATM    6  C   UNL     1      43.339 -17.264   5.588  1.00  0.00     0.045 C 
HETATM    7  C   UNL     1      43.565 -18.507   4.760  1.00  0.00    -0.031 A 
HETATM    8  C   UNL     1      43.465 -18.554   3.360  1.00  0.00     0.039 A 
HETATM    9  N   UNL     1      43.077 -17.484   2.529  1.00  0.00    -0.355 N 
HETATM   10  C   UNL     1      43.854 -19.693   5.469  1.00  0.00     0.009 A 
HETATM   11  C   UNL     1      44.087 -20.899   4.812  1.00  0.00     0.001 A 
HETATM   12  C   UNL     1      44.036 -20.941   3.429  1.00  0.00     0.002 A 
HETATM   13  C   UNL     1      43.730 -19.784   2.716  1.00  0.00     0.030 A 
HETATM   14  C   UNL     1      42.266 -14.204   4.126  1.00  0.00     0.012 A 
HETATM   15  C   UNL     1      41.343 -13.704   3.207  1.00  0.00     0.030 A 
HETATM   16  H   UNL     1      43.030 -17.743   1.550  1.00  0.00     0.166 HD
ENDROOT
BRANCH   1  17
HETATM   17  N   UNL     1      40.011 -13.919   1.221  1.00  0.00    -0.326 N 
HETATM   18  C   UNL     1      40.203 -13.091   0.136  1.00  0.00     0.247 C 
HETATM   19  O   UNL     1      41.241 -12.524  -0.205  1.00  0.00    -0.271 OA
HETATM   20  H   UNL     1      39.068 -14.205   1.462  1.00  0.00     0.169 HD
BRANCH  18  21
HETATM   21  C   UNL     1      38.967 -12.899  -0.745  1.00  0.00     0.334 C 
BRANCH  21  22
HETATM   22  N   UNL     1      38.614 -14.198  -1.439  1.00  0.00    -0.071 N 
HETATM   23  C   UNL     1      39.486 -14.548  -2.592  1.00  0.00     0.267 C 
HETATM   24  H   UNL     1      37.657 -14.063  -1.812  1.00  0.00     0.277 HD
HETATM   25  H   UNL     1      38.570 -14.975  -0.770  1.00  0.00     0.277 HD
ENDBRANCH  21  22
ENDBRANCH  18  21
ENDBRANCH   1  17
TORSDOF 3
ENDMDL
MODEL 3
REMARK VINA RESULT:      -7.6      3.327      4.886
REMARK  3 active torsions:
REMARK  status: ('A' for Active; 'I' for Inactive)
REMARK    1  A    between atoms: N_2  and  C_5 
REMARK    2  A    between atoms: C_5  and  C_6 
REMARK       I    between atoms: C_6  and  N_7 
REMARK    3  A    between atoms: N_7  and  C_8 
ROOT
HETATM    1  C   UNL     1      41.906 -13.586   4.401  1.00  0.00     0.036 A 
HETATM    2  C   UNL     1      42.372 -14.735   3.757  1.00  0.00     0.059 A 
HETATM    3  C   UNL     1      43.171 -15.691   4.417  1.00  0.00     0.041 A 
HETATM    4  C   UNL     1      43.508 -15.470   5.755  1.00  0.00    -0.031 A 
HETATM    5  C   UNL     1      44.348 -16.461   6.513  1.00  0.00     0.045 C 
HETATM    6  C   UNL     1      43.634 -17.803   6.635  1.00  0.00     0.045 C 
HETATM    7  C   UNL     1      43.725 -18.680   5.410  1.00  0.00    -0.031 A 
HETATM    8  C   UNL     1      43.689 -18.203   4.090  1.00  0.00     0.039 A 
HETATM    9  N   UNL     1      43.497 -16.860   3.709  1.00  0.00    -0.355 N 
HETATM   10  C   UNL     1      43.810 -20.071   5.636  1.00  0.00     0.009 A 
HETATM   11  C   UNL     1      43.904 -20.978   4.583  1.00  0.00     0.001 A 
HETATM   12  C   UNL     1      43.916 -20.510   3.280  1.00  0.00     0.002 A 
HETATM   13  C   UNL     1      43.810 -19.141   3.040  1.00  0.00     0.030 A 
HETATM   14  C   UNL     1      43.074 -14.298   6.396  1.00  0.00     0.012 A 
HETATM   15  C   UNL     1      42.276 -13.369   5.728  1.00  0.00     0.030 A 
HETATM   16  H   UNL     1      43.462 -16.738   2.703  1.00  0.00     0.166 HD
ENDROOT
BRANCH   1  17
HETATM   17  N   UNL     1      41.028 -12.651   3.806  1.00  0.00    -0.326 N 
HETATM   18  C   UNL     1      39.874 -12.939   3.109  1.00  0.00     0.247 C 
HETATM   19  O   UNL     1      39.475 -14.042   2.735  1.00  0.00    -0.271 OA
HETATM   20  H   UNL     1      41.301 -11.682   3.926  1.00  0.00     0.169 HD
BRANCH  18  21
HETATM   21  C   UNL     1      38.993 -11.726   2.807  1.00  0.00     0.334 C 
BRANCH  21  22
HETATM   22  N   UNL     1      37.944 -12.087   1.776  1.00  0.00    -0.071 N 
HETATM   23  C   UNL     1      37.370 -10.930   1.037  1.00  0.00     0.267 C 
HETATM   24  H   UNL     1      37.168 -12.521   2.309  1.00  0.00     0.277 HD
HETATM   25  H   UNL     1      38.295 -12.796   1.124  1.00  0.00     0.277 HD
ENDBRANCH  21  22
ENDBRANCH  18  21
ENDBRANCH   1  17
TORSDOF 3
ENDMDL
MODEL 4
REMARK VINA RESULT:      -7.6      2.257      4.216
REMARK  3 active torsions:
REMARK  status: ('A' for Active; 'I' for Inactive)
REMARK    1  A    between atoms: N_2  and  C_5 
REMARK    2  A    between atoms: C_5  and  C_6 
REMARK       I    between atoms: C_6  and  N_7 
REMARK    3  A    between atoms: N_7  and  C_8 
ROOT
HETATM    1  C   UNL     1      43.413 -13.273   6.468  1.00  0.00     0.036 A 
HETATM    2  C   UNL     1      43.102 -12.947   5.145  1.00  0.00     0.059 A 
HETATM    3  C   UNL     1      42.881 -13.934   4.164  1.00  0.00     0.041 A 
HETATM    4  C   UNL     1      42.983 -15.278   4.533  1.00  0.00    -0.031 A 
HETATM    5  C   UNL     1      42.745 -16.374   3.531  1.00  0.00     0.045 C 
HETATM    6  C   UNL     1      41.309 -16.346   3.020  1.00  0.00     0.045 C 
HETATM    7  C   UNL     1      41.041 -15.320   1.945  1.00  0.00    -0.031 A 
HETATM    8  C   UNL     1      41.619 -14.041   1.910  1.00  0.00     0.039 A 
HETATM    9  N   UNL     1      42.472 -13.499   2.892  1.00  0.00    -0.355 N 
HETATM   10  C   UNL     1      40.113 -15.683   0.944  1.00  0.00     0.009 A 
HETATM   11  C   UNL     1      39.791 -14.822  -0.101  1.00  0.00     0.001 A 
HETATM   12  C   UNL     1      40.394 -13.577  -0.168  1.00  0.00     0.002 A 
HETATM   13  C   UNL     1      41.295 -13.195   0.825  1.00  0.00     0.030 A 
HETATM   14  C   UNL     1      43.331 -15.611   5.853  1.00  0.00     0.012 A 
HETATM   15  C   UNL     1      43.538 -14.618   6.812  1.00  0.00     0.030 A 
HETATM   16  H   UNL     1      42.744 -12.543   2.692  1.00  0.00     0.166 HD
ENDROOT
BRANCH   1  17
HETATM   17  N   UNL     1      43.551 -12.319   7.503  1.00  0.00    -0.326 N 
HETATM   18  C   UNL     1      44.600 -11.443   7.675  1.00  0.00     0.247 C 
HETATM   19  O   UNL     1      45.674 -11.425   7.073  1.00  0.00    -0.271 OA
HETATM   20  H   UNL     1      42.782 -12.303   8.165  1.00  0.00     0.169 HD
BRANCH  18  21
HETATM   21  C   UNL     1      44.357 -10.356   8.724  1.00  0.00     0.334 C 
BRANCH  21  22
HETATM   22  N   UNL     1      43.433 -10.873   9.807  1.00  0.00    -0.071 N 
HETATM   23  C   UNL     1      43.839 -10.523  11.194  1.00  0.00     0.267 C 
HETATM   24  H   UNL     1      43.468 -11.906   9.732  1.00  0.00     0.277 HD
HETATM   25  H   UNL     1      42.463 -10.590   9.631  1.00  0.00     0.277 HD
ENDBRANCH  21  22
ENDBRANCH  18  21
ENDBRANCH   1  17
TORSDOF 3
ENDMDL
MODEL 5
REMARK VINA RESULT:      -7.5      3.203      3.604
REMARK  3 active torsions:
REMARK  status: ('A' for Active; 'I' for Inactive)
REMARK    1  A    between atoms: N_2  and  C_5 
REMARK    2  A    between atoms: C_5  and  C_6 
REMARK       I    between atoms: C_6  and  N_7 
REMARK    3  A    between atoms: N_7  and  C_8 
ROOT
HETATM    1  C   UNL     1      40.153 -12.242   4.919  1.00  0.00     0.036 A 
HETATM    2  C   UNL     1      40.803 -13.416   5.306  1.00  0.00     0.059 A 
HETATM    3  C   UNL     1      40.823 -14.565   4.489  1.00  0.00     0.041 A 
HETATM    4  C   UNL     1      40.164 -14.520   3.258  1.00  0.00    -0.031 A 
HETATM    5  C   UNL     1      40.162 -15.711   2.339  1.00  0.00     0.045 C 
HETATM    6  C   UNL     1      41.574 -16.046   1.874  1.00  0.00     0.045 C 
HETATM    7  C   UNL     1      42.398 -16.828   2.869  1.00  0.00    -0.031 A 
HETATM    8  C   UNL     1      42.351 -16.638   4.259  1.00  0.00     0.039 A 
HETATM    9  N   UNL     1      41.593 -15.656   4.927  1.00  0.00    -0.355 N 
HETATM   10  C   UNL     1      43.294 -17.780   2.335  1.00  0.00     0.009 A 
HETATM   11  C   UNL     1      44.101 -18.564   3.155  1.00  0.00     0.001 A 
HETATM   12  C   UNL     1      44.025 -18.414   4.530  1.00  0.00     0.002 A 
HETATM   13  C   UNL     1      43.162 -17.464   5.071  1.00  0.00     0.030 A 
HETATM   14  C   UNL     1      39.478 -13.354   2.880  1.00  0.00     0.012 A 
HETATM   15  C   UNL     1      39.477 -12.225   3.699  1.00  0.00     0.030 A 
HETATM   16  H   UNL     1      41.735 -15.664   5.931  1.00  0.00     0.166 HD
ENDROOT
BRANCH   1  17
HETATM   17  N   UNL     1      40.188 -11.040   5.663  1.00  0.00    -0.326 N 
HETATM   18  C   UNL     1      39.276 -10.640   6.616  1.00  0.00     0.247 C 
HETATM   19  O   UNL     1      38.193 -11.158   6.887  1.00  0.00    -0.271 OA
HETATM   20  H   UNL     1      40.976 -10.437   5.452  1.00  0.00     0.169 HD
BRANCH  18  21
HETATM   21  C   UNL     1      39.706  -9.424   7.438  1.00  0.00     0.334 C 
BRANCH  21  22
HETATM   22  N   UNL     1      40.223  -9.865   8.792  1.00  0.00    -0.071 N 
HETATM   23  C   UNL     1      39.260  -9.696   9.913  1.00  0.00     0.267 C 
HETATM   24  H   UNL     1      41.034  -9.253   8.993  1.00  0.00     0.277 HD
HETATM   25  H   UNL     1      40.574 -10.829   8.758  1.00  0.00     0.277 HD
ENDBRANCH  21  22
ENDBRANCH  18  21
ENDBRANCH   1  17
TORSDOF 3
ENDMDL
MODEL 6
REMARK VINA RESULT:      -7.1      4.586      7.710
REMARK  3 active torsions:
REMARK  status: ('A' for Active; 'I' for Inactive)
REMARK    1  A    between atoms: N_2  and  C_5 
REMARK    2  A    between atoms: C_5  and  C_6 
REMARK       I    between atoms: C_6  and  N_7 
REMARK    3  A    between atoms: N_7  and  C_8 
ROOT
HETATM    1  C   UNL     1      41.475 -15.748   3.682  1.00  0.00     0.036 A 
HETATM    2  C   UNL     1      40.858 -15.905   2.439  1.00  0.00     0.059 A 
HETATM    3  C   UNL     1      40.163 -14.851   1.811  1.00  0.00     0.041 A 
HETATM    4  C   UNL     1      40.089 -13.617   2.463  1.00  0.00    -0.031 A 
HETATM    5  C   UNL     1      39.372 -12.454   1.835  1.00  0.00     0.045 C 
HETATM    6  C   UNL     1      40.048 -12.030   0.537  1.00  0.00     0.045 C 
HETATM    7  C   UNL     1      39.700 -12.878  -0.663  1.00  0.00    -0.031 A 
HETATM    8  C   UNL     1      39.506 -14.268  -0.621  1.00  0.00     0.039 A 
HETATM    9  N   UNL     1      39.670 -15.084   0.516  1.00  0.00    -0.355 N 
HETATM   10  C   UNL     1      39.610 -12.208  -1.903  1.00  0.00     0.009 A 
HETATM   11  C   UNL     1      39.290 -12.885  -3.077  1.00  0.00     0.001 A 
HETATM   12  C   UNL     1      39.050 -14.248  -3.034  1.00  0.00     0.002 A 
HETATM   13  C   UNL     1      39.157 -14.927  -1.821  1.00  0.00     0.030 A 
HETATM   14  C   UNL     1      40.676 -13.466   3.730  1.00  0.00     0.012 A 
HETATM   15  C   UNL     1      41.367 -14.518   4.331  1.00  0.00     0.030 A 
HETATM   16  H   UNL     1      39.520 -16.067   0.319  1.00  0.00     0.166 HD
ENDROOT
BRANCH   1  17
HETATM   17  N   UNL     1      42.260 -16.748   4.304  1.00  0.00    -0.326 N 
HETATM   18  C   UNL     1      43.328 -17.415   3.745  1.00  0.00     0.247 C 
HETATM   19  O   UNL     1      43.702 -17.393   2.573  1.00  0.00    -0.271 OA
HETATM   20  H   UNL     1      41.983 -16.969   5.254  1.00  0.00     0.169 HD
BRANCH  18  21
HETATM   21  C   UNL     1      44.144 -18.250   4.734  1.00  0.00     0.334 C 
BRANCH  21  22
HETATM   22  N   UNL     1      44.275 -19.673   4.233  1.00  0.00    -0.071 N 
HETATM   23  C   UNL     1      44.155 -20.719   5.283  1.00  0.00     0.267 C 
HETATM   24  H   UNL     1      45.231 -19.743   3.841  1.00  0.00     0.277 HD
HETATM   25  H   UNL     1      43.620 -19.855   3.464  1.00  0.00     0.277 HD
ENDBRANCH  21  22
ENDBRANCH  18  21
ENDBRANCH   1  17
TORSDOF 3
ENDMDL
MODEL 7
REMARK VINA RESULT:      -6.8      8.146     11.304
REMARK  3 active torsions:
REMARK  status: ('A' for Active; 'I' for Inactive)
REMARK    1  A    between atoms: N_2  and  C_5 
REMARK    2  A    between atoms: C_5  and  C_6 
REMARK       I    between atoms: C_6  and  N_7 
REMARK    3  A    between atoms: N_7  and  C_8 
ROOT
HETATM    1  C   UNL     1      42.290  -6.660  14.862  1.00  0.00     0.036 A 
HETATM    2  C   UNL     1      42.843  -7.699  14.109  1.00  0.00     0.059 A 
HETATM    3  C   UNL     1      42.689  -7.773  12.710  1.00  0.00     0.041 A 
HETATM    4  C   UNL     1      41.954  -6.775  12.065  1.00  0.00    -0.031 A 
HETATM    5  C   UNL     1      41.767  -6.795  10.573  1.00  0.00     0.045 C 
HETATM    6  C   UNL     1      43.102  -6.651   9.853  1.00  0.00     0.045 C 
HETATM    7  C   UNL     1      43.910  -7.923   9.758  1.00  0.00    -0.031 A 
HETATM    8  C   UNL     1      43.980  -8.893  10.771  1.00  0.00     0.039 A 
HETATM    9  N   UNL     1      43.373  -8.800  12.038  1.00  0.00    -0.355 N 
HETATM   10  C   UNL     1      44.666  -8.103   8.579  1.00  0.00     0.009 A 
HETATM   11  C   UNL     1      45.444  -9.240   8.377  1.00  0.00     0.001 A 
HETATM   12  C   UNL     1      45.480 -10.223   9.352  1.00  0.00     0.002 A 
HETATM   13  C   UNL     1      44.757 -10.049  10.531  1.00  0.00     0.030 A 
HETATM   14  C   UNL     1      41.364  -5.748  12.822  1.00  0.00     0.012 A 
HETATM   15  C   UNL     1      41.536  -5.688  14.206  1.00  0.00     0.030 A 
HETATM   16  H   UNL     1      43.584  -9.593  12.635  1.00  0.00     0.166 HD
ENDROOT
BRANCH   1  17
HETATM   17  N   UNL     1      42.497  -6.497  16.252  1.00  0.00    -0.326 N 
HETATM   18  C   UNL     1      41.801  -7.123  17.263  1.00  0.00     0.247 C 
HETATM   19  O   UNL     1      40.781  -7.805  17.166  1.00  0.00    -0.271 OA
HETATM   20  H   UNL     1      43.241  -5.851  16.493  1.00  0.00     0.169 HD
BRANCH  18  21
HETATM   21  C   UNL     1      42.412  -6.955  18.655  1.00  0.00     0.334 C 
BRANCH  21  22
HETATM   22  N   UNL     1      42.609  -5.486  18.965  1.00  0.00    -0.071 N 
HETATM   23  C   UNL     1      41.492  -4.850  19.714  1.00  0.00     0.267 C 
HETATM   24  H   UNL     1      42.666  -5.012  18.045  1.00  0.00     0.277 HD
HETATM   25  H   UNL     1      43.503  -5.325  19.443  1.00  0.00     0.277 HD
ENDBRANCH  21  22
ENDBRANCH  18  21
ENDBRANCH   1  17
TORSDOF 3
ENDMDL
MODEL 8
REMARK VINA RESULT:      -6.7     15.423     18.036
REMARK  3 active torsions:
REMARK  status: ('A' for Active; 'I' for Inactive)
REMARK    1  A    between atoms: N_2  and  C_5 
REMARK    2  A    between atoms: C_5  and  C_6 
REMARK       I    between atoms: C_6  and  N_7 
REMARK    3  A    between atoms: N_7  and  C_8 
ROOT
HETATM    1  C   UNL     1      45.765 -29.064  -3.073  1.00  0.00     0.036 A 
HETATM    2  C   UNL     1      47.035 -29.433  -2.624  1.00  0.00     0.059 A 
HETATM    3  C   UNL     1      47.507 -29.086  -1.342  1.00  0.00     0.041 A 
HETATM    4  C   UNL     1      46.672 -28.344  -0.502  1.00  0.00    -0.031 A 
HETATM    5  C   UNL     1      47.116 -27.956   0.881  1.00  0.00     0.045 C 
HETATM    6  C   UNL     1      47.342 -29.188   1.750  1.00  0.00     0.045 C 
HETATM    7  C   UNL     1      48.665 -29.881   1.531  1.00  0.00    -0.031 A 
HETATM    8  C   UNL     1      49.290 -30.018   0.281  1.00  0.00     0.039 A 
HETATM    9  N   UNL     1      48.756 -29.597  -0.953  1.00  0.00    -0.355 N 
HETATM   10  C   UNL     1      49.272 -30.455   2.669  1.00  0.00     0.009 A 
HETATM   11  C   UNL     1      50.496 -31.115   2.591  1.00  0.00     0.001 A 
HETATM   12  C   UNL     1      51.140 -31.212   1.369  1.00  0.00     0.002 A 
HETATM   13  C   UNL     1      50.543 -30.670   0.232  1.00  0.00     0.030 A 
HETATM   14  C   UNL     1      45.408 -27.938  -0.961  1.00  0.00     0.012 A 
HETATM   15  C   UNL     1      44.956 -28.299  -2.231  1.00  0.00     0.030 A 
HETATM   16  H   UNL     1      49.352 -29.829  -1.740  1.00  0.00     0.166 HD
ENDROOT
BRANCH   1  17
HETATM   17  N   UNL     1      45.218 -29.469  -4.312  1.00  0.00    -0.326 N 
HETATM   18  C   UNL     1      44.458 -30.596  -4.543  1.00  0.00     0.247 C 
HETATM   19  O   UNL     1      44.246 -31.533  -3.773  1.00  0.00    -0.271 OA
HETATM   20  H   UNL     1      45.421 -28.845  -5.086  1.00  0.00     0.169 HD
BRANCH  18  21
HETATM   21  C   UNL     1      43.788 -30.641  -5.917  1.00  0.00     0.334 C 
BRANCH  21  22
HETATM   22  N   UNL     1      44.765 -31.146  -6.958  1.00  0.00    -0.071 N 
HETATM   23  C   UNL     1      44.157 -31.488  -8.272  1.00  0.00     0.267 C 
HETATM   24  H   UNL     1      45.159 -32.022  -6.568  1.00  0.00     0.277 HD
HETATM   25  H   UNL     1      45.546 -30.492  -7.079  1.00  0.00     0.277 HD
ENDBRANCH  21  22
ENDBRANCH  18  21
ENDBRANCH   1  17
TORSDOF 3
ENDMDL
MODEL 9
REMARK VINA RESULT:      -6.6      3.277      4.371
REMARK  3 active torsions:
REMARK  status: ('A' for Active; 'I' for Inactive)
REMARK    1  A    between atoms: N_2  and  C_5 
REMARK    2  A    between atoms: C_5  and  C_6 
REMARK       I    between atoms: C_6  and  N_7 
REMARK    3  A    between atoms: N_7  and  C_8 
ROOT
HETATM    1  C   UNL     1      41.117 -12.384   4.676  1.00  0.00     0.036 A 
HETATM    2  C   UNL     1      41.631 -13.410   3.880  1.00  0.00     0.059 A 
HETATM    3  C   UNL     1      42.599 -14.315   4.360  1.00  0.00     0.041 A 
HETATM    4  C   UNL     1      43.058 -14.170   5.672  1.00  0.00    -0.031 A 
HETATM    5  C   UNL     1      44.080 -15.114   6.242  1.00  0.00     0.045 C 
HETATM    6  C   UNL     1      43.538 -16.537   6.304  1.00  0.00     0.045 C 
HETATM    7  C   UNL     1      43.587 -17.290   4.996  1.00  0.00    -0.031 A 
HETATM    8  C   UNL     1      43.352 -16.710   3.739  1.00  0.00     0.039 A 
HETATM    9  N   UNL     1      42.971 -15.373   3.512  1.00  0.00    -0.355 N 
HETATM   10  C   UNL     1      43.850 -18.675   5.076  1.00  0.00     0.009 A 
HETATM   11  C   UNL     1      43.925 -19.471   3.936  1.00  0.00     0.001 A 
HETATM   12  C   UNL     1      43.741 -18.896   2.690  1.00  0.00     0.002 A 
HETATM   13  C   UNL     1      43.458 -17.534   2.597  1.00  0.00     0.030 A 
HETATM   14  C   UNL     1      42.571 -13.118   6.465  1.00  0.00     0.012 A 
HETATM   15  C   UNL     1      41.606 -12.237   5.974  1.00  0.00     0.030 A 
HETATM   16  H   UNL     1      42.812 -15.170   2.532  1.00  0.00     0.166 HD
ENDROOT
BRANCH   1  17
HETATM   17  N   UNL     1      40.079 -11.514   4.268  1.00  0.00    -0.326 N 
HETATM   18  C   UNL     1      40.210 -10.408   3.456  1.00  0.00     0.247 C 
HETATM   19  O   UNL     1      41.250  -9.877   3.066  1.00  0.00    -0.271 OA
HETATM   20  H   UNL     1      39.161 -11.758   4.623  1.00  0.00     0.169 HD
BRANCH  18  21
HETATM   21  C   UNL     1      38.886  -9.813   2.973  1.00  0.00     0.334 C 
BRANCH  21  22
HETATM   22  N   UNL     1      37.907  -9.714   4.124  1.00  0.00    -0.071 N 
HETATM   23  C   UNL     1      37.991  -8.453   4.909  1.00  0.00     0.267 C 
HETATM   24  H   UNL     1      38.155 -10.489   4.767  1.00  0.00     0.277 HD
HETATM   25  H   UNL     1      36.946  -9.881   3.807  1.00  0.00     0.277 HD
ENDBRANCH  21  22
ENDBRANCH  18  21
ENDBRANCH   1  17
TORSDOF 3
ENDMDL
MODEL 10
REMARK VINA RESULT:      -6.5     15.371     17.343
REMARK  3 active torsions:
REMARK  status: ('A' for Active; 'I' for Inactive)
REMARK    1  A    between atoms: N_2  and  C_5 
REMARK    2  A    between atoms: C_5  and  C_6 
REMARK       I    between atoms: C_6  and  N_7 
REMARK    3  A    between atoms: N_7  and  C_8 
ROOT
HETATM    1  C   UNL     1      47.726 -29.552   0.479  1.00  0.00     0.036 A 
HETATM    2  C   UNL     1      46.963 -30.461  -0.258  1.00  0.00     0.059 A 
HETATM    3  C   UNL     1      46.006 -30.041  -1.203  1.00  0.00     0.041 A 
HETATM    4  C   UNL     1      45.817 -28.670  -1.400  1.00  0.00    -0.031 A 
HETATM    5  C   UNL     1      44.820 -28.164  -2.404  1.00  0.00     0.045 C 
HETATM    6  C   UNL     1      45.204 -28.586  -3.818  1.00  0.00     0.045 C 
HETATM    7  C   UNL     1      44.830 -30.004  -4.178  1.00  0.00    -0.031 A 
HETATM    8  C   UNL     1      44.892 -31.089  -3.288  1.00  0.00     0.039 A 
HETATM    9  N   UNL     1      45.369 -31.036  -1.964  1.00  0.00    -0.355 N 
HETATM   10  C   UNL     1      44.435 -30.231  -5.514  1.00  0.00     0.009 A 
HETATM   11  C   UNL     1      44.062 -31.497  -5.960  1.00  0.00     0.001 A 
HETATM   12  C   UNL     1      44.075 -32.562  -5.075  1.00  0.00     0.002 A 
HETATM   13  C   UNL     1      44.484 -32.357  -3.759  1.00  0.00     0.030 A 
HETATM   14  C   UNL     1      46.556 -27.752  -0.635  1.00  0.00     0.012 A 
HETATM   15  C   UNL     1      47.505 -28.188   0.290  1.00  0.00     0.030 A 
HETATM   16  H   UNL     1      45.366 -31.942  -1.508  1.00  0.00     0.166 HD
ENDROOT
BRANCH   1  17
HETATM   17  N   UNL     1      48.760 -29.929   1.368  1.00  0.00    -0.326 N 
HETATM   18  C   UNL     1      50.093 -30.084   1.055  1.00  0.00     0.247 C 
HETATM   19  O   UNL     1      50.610 -30.083  -0.062  1.00  0.00    -0.271 OA
HETATM   20  H   UNL     1      48.456 -30.091   2.322  1.00  0.00     0.169 HD
BRANCH  18  21
HETATM   21  C   UNL     1      51.016 -30.241   2.264  1.00  0.00     0.334 C 
BRANCH  21  22
HETATM   22  N   UNL     1      50.560 -31.403   3.122  1.00  0.00    -0.071 N 
HETATM   23  C   UNL     1      50.320 -31.067   4.551  1.00  0.00     0.267 C 
HETATM   24  H   UNL     1      51.336 -32.089   3.097  1.00  0.00     0.277 HD
HETATM   25  H   UNL     1      49.738 -31.862   2.715  1.00  0.00     0.277 HD
ENDBRANCH  21  22
ENDBRANCH  18  21
ENDBRANCH   1  17
TORSDOF 3
ENDMDL
