MODEL 1
REMARK VINA RESULT:      -8.8      0.000      0.000
REMARK  4 active torsions:
REMARK  status: ('A' for Active; 'I' for Inactive)
REMARK    1  A    between atoms: C_7  and  C_8 
REMARK    2  A    between atoms: C_10  and  O_11 
REMARK    3  A    between atoms: C_17  and  C_18 
REMARK    4  A    between atoms: C_25  and  C_26 
REMARK       I    between atoms: C_26  and  N_27 
ROOT
HETATM    1  C   UNL     1      41.322 -12.644   0.633  1.00  0.00     0.070 C 
HETATM    2  C   UNL     1      41.717 -12.907   2.066  1.00  0.00     0.037 C 
HETATM    3  N   UNL     1      42.767 -12.130   2.554  1.00  0.00    -0.192 N 
HETATM    4  C   UNL     1      43.095 -12.088   3.859  1.00  0.00     0.726 A 
HETATM    5  N   UNL     1      42.521 -12.978   4.716  1.00  0.00    -0.083 N 
HETATM    6  N   UNL     1      42.875 -12.742   5.994  1.00  0.00    -0.135 NA
HETATM    7  C   UNL     1      43.737 -11.718   5.842  1.00  0.00     0.199 A 
HETATM    8  N   UNL     1      43.884 -11.290   4.531  1.00  0.00    -0.041 NA
HETATM    9  C   UNL     1      41.617 -14.051   4.296  1.00  0.00     0.202 C 
HETATM   10  C   UNL     1      41.121 -13.829   2.869  1.00  0.00     0.062 C 
HETATM   11  H   UNL     1      43.110 -11.386   1.951  1.00  0.00     0.184 HD
ENDROOT
BRANCH   7  12
HETATM   12  C   UNL     1      44.458 -11.095   6.950  1.00  0.00     0.017 A 
HETATM   13  C   UNL     1      43.778 -10.753   8.131  1.00  0.00     0.052 A 
HETATM   14  C   UNL     1      44.457 -10.151   9.195  1.00  0.00     0.069 A 
HETATM   15  C   UNL     1      45.824  -9.895   9.077  1.00  0.00     0.037 A 
HETATM   16  C   UNL     1      46.513 -10.228   7.912  1.00  0.00     0.004 A 
HETATM   17  C   UNL     1      45.831 -10.826   6.852  1.00  0.00     0.015 A 
BRANCH  14  18
HETATM   18  O   UNL     1      43.906  -9.772  10.388  1.00  0.00    -0.356 OA
HETATM   19  C   UNL     1      43.627 -10.805  11.324  1.00  0.00     0.210 C 
ENDBRANCH  14  18
ENDBRANCH   7  12
BRANCH   9  20
HETATM   20  C   UNL     1      42.326 -15.392   4.506  1.00  0.00    -0.028 A 
HETATM   21  C   UNL     1      43.140 -15.914   3.483  1.00  0.00     0.012 A 
HETATM   22  C   UNL     1      43.787 -17.140   3.645  1.00  0.00     0.043 A 
HETATM   23  C   UNL     1      43.621 -17.854   4.825  1.00  0.00     0.116 A 
HETATM   24  F   UNL     1      44.244 -19.028   4.980  1.00  0.00    -0.206 F 
HETATM   25  C   UNL     1      42.812 -17.368   5.844  1.00  0.00     0.043 A 
HETATM   26  C   UNL     1      42.159 -16.145   5.685  1.00  0.00     0.012 A 
ENDBRANCH   9  20
BRANCH  10  27
HETATM   27  C   UNL     1      39.871 -14.515   2.443  1.00  0.00     0.249 C 
HETATM   28  N   UNL     1      38.699 -13.861   2.646  1.00  0.00    -0.366 N 
HETATM   29  H   UNL     1      38.582 -13.035   3.215  1.00  0.00     0.159 HD
HETATM   30  H   UNL     1      37.857 -14.363   2.389  1.00  0.00     0.159 HD
HETATM   31  O   UNL     1      39.869 -15.612   1.898  1.00  0.00    -0.268 OA
ENDBRANCH  10  27
TORSDOF 4
ENDMDL
MODEL 2
REMARK VINA RESULT:      -8.6      3.093      6.847
REMARK  4 active torsions:
REMARK  status: ('A' for Active; 'I' for Inactive)
REMARK    1  A    between atoms: C_7  and  C_8 
REMARK    2  A    between atoms: C_10  and  O_11 
REMARK    3  A    between atoms: C_17  and  C_18 
REMARK    4  A    between atoms: C_25  and  C_26 
REMARK       I    between atoms: C_26  and  N_27 
ROOT
HETATM    1  C   UNL     1      38.750 -10.683   4.648  1.00  0.00     0.070 C 
HETATM    2  C   UNL     1      40.039 -11.456   4.514  1.00  0.00     0.037 C 
HETATM    3  N   UNL     1      39.934 -12.838   4.669  1.00  0.00    -0.192 N 
HETATM    4  C   UNL     1      40.939 -13.683   4.370  1.00  0.00     0.726 A 
HETATM    5  N   UNL     1      42.172 -13.174   4.095  1.00  0.00    -0.083 N 
HETATM    6  N   UNL     1      43.037 -14.135   3.720  1.00  0.00    -0.135 NA
HETATM    7  C   UNL     1      42.276 -15.239   3.854  1.00  0.00     0.199 A 
HETATM    8  N   UNL     1      40.972 -14.984   4.248  1.00  0.00    -0.041 NA
HETATM    9  C   UNL     1      42.508 -11.751   4.183  1.00  0.00     0.202 C 
HETATM   10  C   UNL     1      41.251 -10.890   4.262  1.00  0.00     0.062 C 
HETATM   11  H   UNL     1      38.995 -13.222   4.754  1.00  0.00     0.184 HD
ENDROOT
BRANCH   7  12
HETATM   12  C   UNL     1      42.764 -16.594   3.605  1.00  0.00     0.017 A 
HETATM   13  C   UNL     1      43.323 -17.346   4.651  1.00  0.00     0.052 A 
HETATM   14  C   UNL     1      43.799 -18.641   4.422  1.00  0.00     0.069 A 
HETATM   15  C   UNL     1      43.709 -19.186   3.140  1.00  0.00     0.037 A 
HETATM   16  C   UNL     1      43.156 -18.453   2.092  1.00  0.00     0.004 A 
HETATM   17  C   UNL     1      42.686 -17.161   2.324  1.00  0.00     0.015 A 
BRANCH  14  18
HETATM   18  O   UNL     1      44.365 -19.467   5.354  1.00  0.00    -0.356 OA
HETATM   19  C   UNL     1      43.970 -20.832   5.326  1.00  0.00     0.210 C 
ENDBRANCH  14  18
ENDBRANCH   7  12
BRANCH   9  20
HETATM   20  C   UNL     1      43.472 -11.553   5.357  1.00  0.00    -0.028 A 
HETATM   21  C   UNL     1      42.961 -11.453   6.665  1.00  0.00     0.012 A 
HETATM   22  C   UNL     1      43.818 -11.261   7.750  1.00  0.00     0.043 A 
HETATM   23  C   UNL     1      45.186 -11.160   7.536  1.00  0.00     0.116 A 
HETATM   24  F   UNL     1      46.006 -10.977   8.578  1.00  0.00    -0.206 F 
HETATM   25  C   UNL     1      45.715 -11.240   6.254  1.00  0.00     0.043 A 
HETATM   26  C   UNL     1      44.863 -11.429   5.165  1.00  0.00     0.012 A 
ENDBRANCH   9  20
BRANCH  10  27
HETATM   27  C   UNL     1      41.355  -9.454   3.886  1.00  0.00     0.249 C 
HETATM   28  N   UNL     1      41.268  -9.145   2.567  1.00  0.00    -0.366 N 
HETATM   29  H   UNL     1      41.316  -9.809   1.808  1.00  0.00     0.159 HD
HETATM   30  H   UNL     1      41.386  -8.168   2.328  1.00  0.00     0.159 HD
HETATM   31  O   UNL     1      41.482  -8.559   4.712  1.00  0.00    -0.268 OA
ENDBRANCH  10  27
TORSDOF 4
ENDMDL
MODEL 3
REMARK VINA RESULT:      -8.6      3.956      7.516
REMARK  4 active torsions:
REMARK  status: ('A' for Active; 'I' for Inactive)
REMARK    1  A    between atoms: C_7  and  C_8 
REMARK    2  A    between atoms: C_10  and  O_11 
REMARK    3  A    between atoms: C_17  and  C_18 
REMARK    4  A    between atoms: C_25  and  C_26 
REMARK       I    between atoms: C_26  and  N_27 
ROOT
HETATM    1  C   UNL     1      40.217 -15.361   7.059  1.00  0.00     0.070 C 
HETATM    2  C   UNL     1      40.875 -15.340   5.702  1.00  0.00     0.037 C 
HETATM    3  N   UNL     1      40.049 -14.985   4.635  1.00  0.00    -0.192 N 
HETATM    4  C   UNL     1      40.524 -14.712   3.406  1.00  0.00     0.726 A 
HETATM    5  N   UNL     1      41.831 -14.979   3.126  1.00  0.00    -0.083 N 
HETATM    6  N   UNL     1      42.175 -14.559   1.894  1.00  0.00    -0.135 NA
HETATM    7  C   UNL     1      40.994 -14.097   1.436  1.00  0.00     0.199 A 
HETATM    8  N   UNL     1      39.960 -14.174   2.356  1.00  0.00    -0.041 NA
HETATM    9  C   UNL     1      42.751 -15.630   4.061  1.00  0.00     0.202 C 
HETATM   10  C   UNL     1      42.183 -15.641   5.478  1.00  0.00     0.062 C 
HETATM   11  H   UNL     1      39.109 -14.671   4.866  1.00  0.00     0.184 HD
ENDROOT
BRANCH   7  12
HETATM   12  C   UNL     1      40.803 -13.553   0.093  1.00  0.00     0.017 A 
HETATM   13  C   UNL     1      40.228 -14.345  -0.914  1.00  0.00     0.052 A 
HETATM   14  C   UNL     1      40.046 -13.837  -2.203  1.00  0.00     0.069 A 
HETATM   15  C   UNL     1      40.439 -12.527  -2.484  1.00  0.00     0.037 A 
HETATM   16  C   UNL     1      41.011 -11.728  -1.496  1.00  0.00     0.004 A 
HETATM   17  C   UNL     1      41.193 -12.240  -0.211  1.00  0.00     0.015 A 
BRANCH  14  18
HETATM   18  O   UNL     1      39.503 -14.509  -3.264  1.00  0.00    -0.356 OA
HETATM   19  C   UNL     1      38.087 -14.467  -3.393  1.00  0.00     0.210 C 
ENDBRANCH  14  18
ENDBRANCH   7  12
BRANCH   9  20
HETATM   20  C   UNL     1      43.091 -17.021   3.517  1.00  0.00    -0.028 A 
HETATM   21  C   UNL     1      44.154 -17.746   4.086  1.00  0.00     0.012 A 
HETATM   22  C   UNL     1      44.492 -19.011   3.600  1.00  0.00     0.043 A 
HETATM   23  C   UNL     1      43.775 -19.554   2.542  1.00  0.00     0.116 A 
HETATM   24  F   UNL     1      44.098 -20.768   2.078  1.00  0.00    -0.206 F 
HETATM   25  C   UNL     1      42.730 -18.853   1.954  1.00  0.00     0.043 A 
HETATM   26  C   UNL     1      42.391 -17.586   2.432  1.00  0.00     0.012 A 
ENDBRANCH   9  20
BRANCH  10  27
HETATM   27  C   UNL     1      43.128 -15.814   6.614  1.00  0.00     0.249 C 
HETATM   28  N   UNL     1      43.072 -16.983   7.302  1.00  0.00    -0.366 N 
HETATM   29  H   UNL     1      42.336 -17.669   7.227  1.00  0.00     0.159 HD
HETATM   30  H   UNL     1      43.693 -17.063   8.099  1.00  0.00     0.159 HD
HETATM   31  O   UNL     1      43.958 -14.967   6.922  1.00  0.00    -0.268 OA
ENDBRANCH  10  27
TORSDOF 4
ENDMDL
MODEL 4
REMARK VINA RESULT:      -8.5      5.342      7.288
REMARK  4 active torsions:
REMARK  status: ('A' for Active; 'I' for Inactive)
REMARK    1  A    between atoms: C_7  and  C_8 
REMARK    2  A    between atoms: C_10  and  O_11 
REMARK    3  A    between atoms: C_17  and  C_18 
REMARK    4  A    between atoms: C_25  and  C_26 
REMARK       I    between atoms: C_26  and  N_27 
ROOT
HETATM    1  C   UNL     1      38.610 -14.702  -2.789  1.00  0.00     0.070 C 
HETATM    2  C   UNL     1      39.382 -14.350  -1.542  1.00  0.00     0.037 C 
HETATM    3  N   UNL     1      39.264 -15.252  -0.485  1.00  0.00    -0.192 N 
HETATM    4  C   UNL     1      40.049 -15.200   0.608  1.00  0.00     0.726 A 
HETATM    5  N   UNL     1      40.857 -14.118   0.792  1.00  0.00    -0.083 N 
HETATM    6  N   UNL     1      41.647 -14.262   1.873  1.00  0.00    -0.135 NA
HETATM    7  C   UNL     1      41.219 -15.446   2.354  1.00  0.00     0.199 A 
HETATM    8  N   UNL     1      40.236 -16.049   1.584  1.00  0.00    -0.041 NA
HETATM    9  C   UNL     1      40.870 -12.948  -0.089  1.00  0.00     0.202 C 
HETATM   10  C   UNL     1      40.156 -13.239  -1.406  1.00  0.00     0.062 C 
HETATM   11  H   UNL     1      38.759 -16.116  -0.670  1.00  0.00     0.184 HD
ENDROOT
BRANCH   7  12
HETATM   12  C   UNL     1      41.738 -16.059   3.574  1.00  0.00     0.017 A 
HETATM   13  C   UNL     1      42.874 -16.884   3.522  1.00  0.00     0.052 A 
HETATM   14  C   UNL     1      43.375 -17.481   4.683  1.00  0.00     0.069 A 
HETATM   15  C   UNL     1      42.738 -17.246   5.903  1.00  0.00     0.037 A 
HETATM   16  C   UNL     1      41.611 -16.429   5.972  1.00  0.00     0.004 A 
HETATM   17  C   UNL     1      41.113 -15.838   4.810  1.00  0.00     0.015 A 
BRANCH  14  18
HETATM   18  O   UNL     1      44.466 -18.302   4.758  1.00  0.00    -0.356 OA
HETATM   19  C   UNL     1      44.221 -19.702   4.710  1.00  0.00     0.210 C 
ENDBRANCH  14  18
ENDBRANCH   7  12
BRANCH   9  20
HETATM   20  C   UNL     1      40.293 -11.755   0.681  1.00  0.00    -0.028 A 
HETATM   21  C   UNL     1      41.130 -10.672   1.007  1.00  0.00     0.012 A 
HETATM   22  C   UNL     1      40.632  -9.578   1.718  1.00  0.00     0.043 A 
HETATM   23  C   UNL     1      39.300  -9.564   2.113  1.00  0.00     0.116 A 
HETATM   24  F   UNL     1      38.824  -8.514   2.793  1.00  0.00    -0.206 F 
HETATM   25  C   UNL     1      38.458 -10.628   1.817  1.00  0.00     0.043 A 
HETATM   26  C   UNL     1      38.952 -11.725   1.110  1.00  0.00     0.012 A 
ENDBRANCH   9  20
BRANCH  10  27
HETATM   27  C   UNL     1      40.465 -12.379  -2.580  1.00  0.00     0.249 C 
HETATM   28  N   UNL     1      41.578 -12.677  -3.298  1.00  0.00    -0.366 N 
HETATM   29  H   UNL     1      42.306 -13.314  -3.008  1.00  0.00     0.159 HD
HETATM   30  H   UNL     1      41.795 -12.054  -4.066  1.00  0.00     0.159 HD
HETATM   31  O   UNL     1      39.746 -11.452  -2.931  1.00  0.00    -0.268 OA
ENDBRANCH  10  27
TORSDOF 4
ENDMDL
MODEL 5
REMARK VINA RESULT:      -8.3      3.306      6.996
REMARK  4 active torsions:
REMARK  status: ('A' for Active; 'I' for Inactive)
REMARK    1  A    between atoms: C_7  and  C_8 
REMARK    2  A    between atoms: C_10  and  O_11 
REMARK    3  A    between atoms: C_17  and  C_18 
REMARK    4  A    between atoms: C_25  and  C_26 
REMARK       I    between atoms: C_26  and  N_27 
ROOT
HETATM    1  C   UNL     1      38.762 -11.165   6.370  1.00  0.00     0.070 C 
HETATM    2  C   UNL     1      40.049 -11.876   6.030  1.00  0.00     0.037 C 
HETATM    3  N   UNL     1      40.122 -13.212   6.423  1.00  0.00    -0.192 N 
HETATM    4  C   UNL     1      41.101 -14.040   6.011  1.00  0.00     0.726 A 
HETATM    5  N   UNL     1      42.172 -13.520   5.348  1.00  0.00    -0.083 N 
HETATM    6  N   UNL     1      43.009 -14.483   4.918  1.00  0.00    -0.135 NA
HETATM    7  C   UNL     1      42.418 -15.586   5.419  1.00  0.00     0.199 A 
HETATM    8  N   UNL     1      41.232 -15.338   6.093  1.00  0.00    -0.041 NA
HETATM    9  C   UNL     1      42.376 -12.088   5.120  1.00  0.00     0.202 C 
HETATM   10  C   UNL     1      41.098 -11.298   5.386  1.00  0.00     0.062 C 
HETATM   11  H   UNL     1      39.276 -13.626   6.809  1.00  0.00     0.184 HD
ENDROOT
BRANCH   7  12
HETATM   12  C   UNL     1      42.961 -16.935   5.269  1.00  0.00     0.017 A 
HETATM   13  C   UNL     1      43.350 -17.402   4.003  1.00  0.00     0.052 A 
HETATM   14  C   UNL     1      43.865 -18.693   3.847  1.00  0.00     0.069 A 
HETATM   15  C   UNL     1      43.995 -19.517   4.966  1.00  0.00     0.037 A 
HETATM   16  C   UNL     1      43.614 -19.068   6.229  1.00  0.00     0.004 A 
HETATM   17  C   UNL     1      43.098 -17.781   6.379  1.00  0.00     0.015 A 
BRANCH  14  18
HETATM   18  O   UNL     1      44.274 -19.259   2.671  1.00  0.00    -0.356 OA
HETATM   19  C   UNL     1      43.352 -20.124   2.020  1.00  0.00     0.210 C 
ENDBRANCH  14  18
ENDBRANCH   7  12
BRANCH   9  20
HETATM   20  C   UNL     1      43.576 -11.631   5.956  1.00  0.00    -0.028 A 
HETATM   21  C   UNL     1      44.851 -11.570   5.363  1.00  0.00     0.012 A 
HETATM   22  C   UNL     1      45.962 -11.168   6.107  1.00  0.00     0.043 A 
HETATM   23  C   UNL     1      45.807 -10.831   7.446  1.00  0.00     0.116 A 
HETATM   24  F   UNL     1      46.873 -10.444   8.158  1.00  0.00    -0.206 F 
HETATM   25  C   UNL     1      44.562 -10.898   8.059  1.00  0.00     0.043 A 
HETATM   26  C   UNL     1      43.449 -11.303   7.321  1.00  0.00     0.012 A 
ENDBRANCH   9  20
BRANCH  10  27
HETATM   27  C   UNL     1      40.964  -9.949   4.773  1.00  0.00     0.249 C 
HETATM   28  N   UNL     1      41.339  -8.881   5.522  1.00  0.00    -0.366 N 
HETATM   29  H   UNL     1      41.533  -8.902   6.513  1.00  0.00     0.159 HD
HETATM   30  H   UNL     1      41.198  -7.969   5.104  1.00  0.00     0.159 HD
HETATM   31  O   UNL     1      40.566  -9.777   3.627  1.00  0.00    -0.268 OA
ENDBRANCH  10  27
TORSDOF 4
ENDMDL
MODEL 6
REMARK VINA RESULT:      -8.3      4.355      6.712
REMARK  4 active torsions:
REMARK  status: ('A' for Active; 'I' for Inactive)
REMARK    1  A    between atoms: C_7  and  C_8 
REMARK    2  A    between atoms: C_10  and  O_11 
REMARK    3  A    between atoms: C_17  and  C_18 
REMARK    4  A    between atoms: C_25  and  C_26 
REMARK       I    between atoms: C_26  and  N_27 
ROOT
HETATM    1  C   UNL     1      38.532 -13.102  -1.449  1.00  0.00     0.070 C 
HETATM    2  C   UNL     1      39.614 -13.310  -0.418  1.00  0.00     0.037 C 
HETATM    3  N   UNL     1      39.590 -14.537   0.244  1.00  0.00    -0.192 N 
HETATM    4  C   UNL     1      40.599 -14.962   1.028  1.00  0.00     0.726 A 
HETATM    5  N   UNL     1      41.595 -14.093   1.354  1.00  0.00    -0.083 N 
HETATM    6  N   UNL     1      42.574 -14.694   2.056  1.00  0.00    -0.135 NA
HETATM    7  C   UNL     1      42.075 -15.939   2.187  1.00  0.00     0.199 A 
HETATM    8  N   UNL     1      40.857 -16.131   1.553  1.00  0.00    -0.041 NA
HETATM    9  C   UNL     1      41.604 -12.679   0.972  1.00  0.00     0.202 C 
HETATM   10  C   UNL     1      40.573 -12.393  -0.115  1.00  0.00     0.062 C 
HETATM   11  H   UNL     1      38.919 -15.227  -0.088  1.00  0.00     0.184 HD
ENDROOT
BRANCH   7  12
HETATM   12  C   UNL     1      42.747 -17.007   2.924  1.00  0.00     0.017 A 
HETATM   13  C   UNL     1      42.961 -16.884   4.307  1.00  0.00     0.052 A 
HETATM   14  C   UNL     1      43.609 -17.897   5.020  1.00  0.00     0.069 A 
HETATM   15  C   UNL     1      44.039 -19.042   4.346  1.00  0.00     0.037 A 
HETATM   16  C   UNL     1      43.832 -19.180   2.975  1.00  0.00     0.004 A 
HETATM   17  C   UNL     1      43.189 -18.165   2.266  1.00  0.00     0.015 A 
BRANCH  14  18
HETATM   18  O   UNL     1      43.877 -17.891   6.361  1.00  0.00    -0.356 OA
HETATM   19  C   UNL     1      44.203 -16.636   6.946  1.00  0.00     0.210 C 
ENDBRANCH  14  18
ENDBRANCH   7  12
BRANCH   9  20
HETATM   20  C   UNL     1      41.424 -11.834   2.238  1.00  0.00    -0.028 A 
HETATM   21  C   UNL     1      40.140 -11.688   2.796  1.00  0.00     0.012 A 
HETATM   22  C   UNL     1      39.947 -10.914   3.942  1.00  0.00     0.043 A 
HETATM   23  C   UNL     1      41.032 -10.278   4.532  1.00  0.00     0.116 A 
HETATM   24  F   UNL     1      40.845  -9.538   5.631  1.00  0.00    -0.206 F 
HETATM   25  C   UNL     1      42.306 -10.394   3.992  1.00  0.00     0.043 A 
HETATM   26  C   UNL     1      42.504 -11.163   2.844  1.00  0.00     0.012 A 
ENDBRANCH   9  20
BRANCH  10  27
HETATM   27  C   UNL     1      40.747 -11.173  -0.949  1.00  0.00     0.249 C 
HETATM   28  N   UNL     1      40.090 -10.050  -0.561  1.00  0.00    -0.366 N 
HETATM   29  H   UNL     1      39.359 -10.013   0.134  1.00  0.00     0.159 HD
HETATM   30  H   UNL     1      40.186  -9.244  -1.166  1.00  0.00     0.159 HD
HETATM   31  O   UNL     1      41.475 -11.141  -1.934  1.00  0.00    -0.268 OA
ENDBRANCH  10  27
TORSDOF 4
ENDMDL
MODEL 7
REMARK VINA RESULT:      -8.1      3.134      7.860
REMARK  4 active torsions:
REMARK  status: ('A' for Active; 'I' for Inactive)
REMARK    1  A    between atoms: C_7  and  C_8 
REMARK    2  A    between atoms: C_10  and  O_11 
REMARK    3  A    between atoms: C_17  and  C_18 
REMARK    4  A    between atoms: C_25  and  C_26 
REMARK       I    between atoms: C_26  and  N_27 
ROOT
HETATM    1  C   UNL     1      40.979 -11.201   5.961  1.00  0.00     0.070 C 
HETATM    2  C   UNL     1      41.176 -11.965   4.674  1.00  0.00     0.037 C 
HETATM    3  N   UNL     1      40.028 -12.158   3.906  1.00  0.00    -0.192 N 
HETATM    4  C   UNL     1      40.068 -12.624   2.643  1.00  0.00     0.726 A 
HETATM    5  N   UNL     1      41.241 -13.115   2.155  1.00  0.00    -0.083 N 
HETATM    6  N   UNL     1      41.141 -13.448   0.854  1.00  0.00    -0.135 NA
HETATM    7  C   UNL     1      39.838 -13.195   0.619  1.00  0.00     0.199 A 
HETATM    8  N   UNL     1      39.155 -12.678   1.708  1.00  0.00    -0.041 NA
HETATM    9  C   UNL     1      42.464 -13.250   2.948  1.00  0.00     0.202 C 
HETATM   10  C   UNL     1      42.371 -12.455   4.248  1.00  0.00     0.062 C 
HETATM   11  H   UNL     1      39.182 -11.686   4.215  1.00  0.00     0.184 HD
ENDROOT
BRANCH   7  12
HETATM   12  C   UNL     1      39.187 -13.433  -0.668  1.00  0.00     0.017 A 
HETATM   13  C   UNL     1      38.211 -12.540  -1.141  1.00  0.00     0.052 A 
HETATM   14  C   UNL     1      37.577 -12.761  -2.367  1.00  0.00     0.069 A 
HETATM   15  C   UNL     1      37.925 -13.881  -3.125  1.00  0.00     0.037 A 
HETATM   16  C   UNL     1      38.892 -14.776  -2.670  1.00  0.00     0.004 A 
HETATM   17  C   UNL     1      39.520 -14.552  -1.445  1.00  0.00     0.015 A 
BRANCH  14  18
HETATM   18  O   UNL     1      36.614 -11.969  -2.929  1.00  0.00    -0.356 OA
HETATM   19  C   UNL     1      36.671 -10.580  -2.632  1.00  0.00     0.210 C 
ENDBRANCH  14  18
ENDBRANCH   7  12
BRANCH   9  20
HETATM   20  C   UNL     1      42.748 -14.742   3.151  1.00  0.00    -0.028 A 
HETATM   21  C   UNL     1      43.346 -15.481   2.113  1.00  0.00     0.012 A 
HETATM   22  C   UNL     1      43.605 -16.845   2.269  1.00  0.00     0.043 A 
HETATM   23  C   UNL     1      43.261 -17.477   3.457  1.00  0.00     0.116 A 
HETATM   24  F   UNL     1      43.511 -18.784   3.605  1.00  0.00    -0.206 F 
HETATM   25  C   UNL     1      42.656 -16.774   4.490  1.00  0.00     0.043 A 
HETATM   26  C   UNL     1      42.391 -15.412   4.338  1.00  0.00     0.012 A 
ENDBRANCH   9  20
BRANCH  10  27
HETATM   27  C   UNL     1      43.636 -12.083   4.938  1.00  0.00     0.249 C 
HETATM   28  N   UNL     1      43.957 -12.765   6.067  1.00  0.00    -0.366 N 
HETATM   29  H   UNL     1      43.335 -13.377   6.576  1.00  0.00     0.159 HD
HETATM   30  H   UNL     1      44.798 -12.467   6.545  1.00  0.00     0.159 HD
HETATM   31  O   UNL     1      44.396 -11.222   4.512  1.00  0.00    -0.268 OA
ENDBRANCH  10  27
TORSDOF 4
ENDMDL
MODEL 8
REMARK VINA RESULT:      -8.0      3.725      7.117
REMARK  4 active torsions:
REMARK  status: ('A' for Active; 'I' for Inactive)
REMARK    1  A    between atoms: C_7  and  C_8 
REMARK    2  A    between atoms: C_10  and  O_11 
REMARK    3  A    between atoms: C_17  and  C_18 
REMARK    4  A    between atoms: C_25  and  C_26 
REMARK       I    between atoms: C_26  and  N_27 
ROOT
HETATM    1  C   UNL     1      41.659 -10.272   6.787  1.00  0.00     0.070 C 
HETATM    2  C   UNL     1      41.349 -11.401   5.835  1.00  0.00     0.037 C 
HETATM    3  N   UNL     1      42.398 -12.285   5.585  1.00  0.00    -0.192 N 
HETATM    4  C   UNL     1      42.227 -13.453   4.937  1.00  0.00     0.726 A 
HETATM    5  N   UNL     1      41.035 -13.704   4.327  1.00  0.00    -0.083 N 
HETATM    6  N   UNL     1      40.988 -14.947   3.813  1.00  0.00    -0.135 NA
HETATM    7  C   UNL     1      42.231 -15.391   4.088  1.00  0.00     0.199 A 
HETATM    8  N   UNL     1      43.013 -14.487   4.790  1.00  0.00    -0.041 NA
HETATM    9  C   UNL     1      39.935 -12.740   4.254  1.00  0.00     0.202 C 
HETATM   10  C   UNL     1      40.143 -11.588   5.233  1.00  0.00     0.062 C 
HETATM   11  H   UNL     1      43.245 -12.163   6.135  1.00  0.00     0.184 HD
ENDROOT
BRANCH   7  12
HETATM   12  C   UNL     1      42.725 -16.709   3.695  1.00  0.00     0.017 A 
HETATM   13  C   UNL     1      43.457 -17.489   4.605  1.00  0.00     0.052 A 
HETATM   14  C   UNL     1      43.940 -18.748   4.238  1.00  0.00     0.069 A 
HETATM   15  C   UNL     1      43.685 -19.230   2.952  1.00  0.00     0.037 A 
HETATM   16  C   UNL     1      42.960 -18.469   2.037  1.00  0.00     0.004 A 
HETATM   17  C   UNL     1      42.483 -17.212   2.408  1.00  0.00     0.015 A 
BRANCH  14  18
HETATM   18  O   UNL     1      44.664 -19.595   5.031  1.00  0.00    -0.356 OA
HETATM   19  C   UNL     1      44.053 -20.832   5.375  1.00  0.00     0.210 C 
ENDBRANCH  14  18
ENDBRANCH   7  12
BRANCH   9  20
HETATM   20  C   UNL     1      39.777 -12.295   2.796  1.00  0.00    -0.028 A 
HETATM   21  C   UNL     1      40.924 -12.078   2.010  1.00  0.00     0.012 A 
HETATM   22  C   UNL     1      40.808 -11.661   0.682  1.00  0.00     0.043 A 
HETATM   23  C   UNL     1      39.547 -11.452   0.136  1.00  0.00     0.116 A 
HETATM   24  F   UNL     1      39.437 -11.054  -1.137  1.00  0.00    -0.206 F 
HETATM   25  C   UNL     1      38.401 -11.644   0.896  1.00  0.00     0.043 A 
HETATM   26  C   UNL     1      38.512 -12.057   2.224  1.00  0.00     0.012 A 
ENDBRANCH   9  20
BRANCH  10  27
HETATM   27  C   UNL     1      38.956 -10.790   5.645  1.00  0.00     0.249 C 
HETATM   28  N   UNL     1      38.668  -9.679   4.920  1.00  0.00    -0.366 N 
HETATM   29  H   UNL     1      39.281  -9.249   4.243  1.00  0.00     0.159 HD
HETATM   30  H   UNL     1      37.884  -9.126   5.243  1.00  0.00     0.159 HD
HETATM   31  O   UNL     1      38.228 -11.114   6.575  1.00  0.00    -0.268 OA
ENDBRANCH  10  27
TORSDOF 4
ENDMDL
MODEL 9
REMARK VINA RESULT:      -7.7      1.965      2.663
REMARK  4 active torsions:
REMARK  status: ('A' for Active; 'I' for Inactive)
REMARK    1  A    between atoms: C_7  and  C_8 
REMARK    2  A    between atoms: C_10  and  O_11 
REMARK    3  A    between atoms: C_17  and  C_18 
REMARK    4  A    between atoms: C_25  and  C_26 
REMARK       I    between atoms: C_26  and  N_27 
ROOT
HETATM    1  C   UNL     1      41.132 -10.902  -0.976  1.00  0.00     0.070 C 
HETATM    2  C   UNL     1      41.175 -11.457   0.427  1.00  0.00     0.037 C 
HETATM    3  N   UNL     1      41.945 -10.736   1.338  1.00  0.00    -0.192 N 
HETATM    4  C   UNL     1      41.916 -10.971   2.663  1.00  0.00     0.726 A 
HETATM    5  N   UNL     1      41.268 -12.076   3.126  1.00  0.00    -0.083 N 
HETATM    6  N   UNL     1      41.243 -12.116   4.471  1.00  0.00    -0.135 NA
HETATM    7  C   UNL     1      41.965 -11.020   4.778  1.00  0.00     0.199 A 
HETATM    8  N   UNL     1      42.386 -10.291   3.677  1.00  0.00    -0.041 NA
HETATM    9  C   UNL     1      40.661 -13.090   2.260  1.00  0.00     0.202 C 
HETATM   10  C   UNL     1      40.525 -12.584   0.827  1.00  0.00     0.062 C 
HETATM   11  H   UNL     1      42.327  -9.848   1.018  1.00  0.00     0.184 HD
ENDROOT
BRANCH   7  12
HETATM   12  C   UNL     1      42.282 -10.616   6.147  1.00  0.00     0.017 A 
HETATM   13  C   UNL     1      43.483 -11.032   6.745  1.00  0.00     0.052 A 
HETATM   14  C   UNL     1      43.793 -10.657   8.056  1.00  0.00     0.069 A 
HETATM   15  C   UNL     1      42.897  -9.857   8.769  1.00  0.00     0.037 A 
HETATM   16  C   UNL     1      41.703  -9.435   8.189  1.00  0.00     0.004 A 
HETATM   17  C   UNL     1      41.396  -9.814   6.881  1.00  0.00     0.015 A 
BRANCH  14  18
HETATM   18  O   UNL     1      44.923 -11.000   8.745  1.00  0.00    -0.356 OA
HETATM   19  C   UNL     1      45.338 -10.117   9.779  1.00  0.00     0.210 C 
ENDBRANCH  14  18
ENDBRANCH   7  12
BRANCH   9  20
HETATM   20  C   UNL     1      41.470 -14.384   2.389  1.00  0.00    -0.028 A 
HETATM   21  C   UNL     1      42.766 -14.448   1.844  1.00  0.00     0.012 A 
HETATM   22  C   UNL     1      43.519 -15.620   1.937  1.00  0.00     0.043 A 
HETATM   23  C   UNL     1      42.980 -16.735   2.568  1.00  0.00     0.116 A 
HETATM   24  F   UNL     1      43.704 -17.857   2.658  1.00  0.00    -0.206 F 
HETATM   25  C   UNL     1      41.698 -16.702   3.101  1.00  0.00     0.043 A 
HETATM   26  C   UNL     1      40.939 -15.534   3.007  1.00  0.00     0.012 A 
ENDBRANCH   9  20
BRANCH  10  27
HETATM   27  C   UNL     1      39.535 -13.247  -0.064  1.00  0.00     0.249 C 
HETATM   28  N   UNL     1      38.300 -12.690  -0.151  1.00  0.00    -0.366 N 
HETATM   29  H   UNL     1      37.938 -11.975   0.463  1.00  0.00     0.159 HD
HETATM   30  H   UNL     1      37.628 -13.182  -0.728  1.00  0.00     0.159 HD
HETATM   31  O   UNL     1      39.803 -14.239  -0.732  1.00  0.00    -0.268 OA
ENDBRANCH  10  27
TORSDOF 4
ENDMDL
MODEL 10
REMARK VINA RESULT:      -7.6      3.339      6.945
REMARK  4 active torsions:
REMARK  status: ('A' for Active; 'I' for Inactive)
REMARK    1  A    between atoms: C_7  and  C_8 
REMARK    2  A    between atoms: C_10  and  O_11 
REMARK    3  A    between atoms: C_17  and  C_18 
REMARK    4  A    between atoms: C_25  and  C_26 
REMARK       I    between atoms: C_26  and  N_27 
ROOT
HETATM    1  C   UNL     1      42.406 -10.359   6.980  1.00  0.00     0.070 C 
HETATM    2  C   UNL     1      42.088 -11.630   6.232  1.00  0.00     0.037 C 
HETATM    3  N   UNL     1      43.076 -12.613   6.264  1.00  0.00    -0.192 N 
HETATM    4  C   UNL     1      42.866 -13.872   5.835  1.00  0.00     0.726 A 
HETATM    5  N   UNL     1      41.717 -14.158   5.161  1.00  0.00    -0.083 N 
HETATM    6  N   UNL     1      41.612 -15.473   4.889  1.00  0.00    -0.135 NA
HETATM    7  C   UNL     1      42.782 -15.935   5.371  1.00  0.00     0.199 A 
HETATM    8  N   UNL     1      43.572 -14.964   5.968  1.00  0.00    -0.041 NA
HETATM    9  C   UNL     1      40.714 -13.157   4.792  1.00  0.00     0.202 C 
HETATM   10  C   UNL     1      40.929 -11.852   5.554  1.00  0.00     0.062 C 
HETATM   11  H   UNL     1      43.878 -12.441   6.867  1.00  0.00     0.184 HD
ENDROOT
BRANCH   7  12
HETATM   12  C   UNL     1      43.197 -17.334   5.288  1.00  0.00     0.017 A 
HETATM   13  C   UNL     1      43.558 -17.890   4.049  1.00  0.00     0.052 A 
HETATM   14  C   UNL     1      43.950 -19.229   3.957  1.00  0.00     0.069 A 
HETATM   15  C   UNL     1      43.986 -20.013   5.112  1.00  0.00     0.037 A 
HETATM   16  C   UNL     1      43.632 -19.475   6.348  1.00  0.00     0.004 A 
HETATM   17  C   UNL     1      43.238 -18.140   6.435  1.00  0.00     0.015 A 
BRANCH  14  18
HETATM   18  O   UNL     1      44.319 -19.881   2.813  1.00  0.00    -0.356 OA
HETATM   19  C   UNL     1      43.281 -20.215   1.900  1.00  0.00     0.210 C 
ENDBRANCH  14  18
ENDBRANCH   7  12
BRANCH   9  20
HETATM   20  C   UNL     1      40.726 -12.998   3.269  1.00  0.00    -0.028 A 
HETATM   21  C   UNL     1      39.795 -13.711   2.490  1.00  0.00     0.012 A 
HETATM   22  C   UNL     1      39.793 -13.592   1.099  1.00  0.00     0.043 A 
HETATM   23  C   UNL     1      40.723 -12.767   0.479  1.00  0.00     0.116 A 
HETATM   24  F   UNL     1      40.718 -12.653  -0.855  1.00  0.00    -0.206 F 
HETATM   25  C   UNL     1      41.661 -12.065   1.223  1.00  0.00     0.043 A 
HETATM   26  C   UNL     1      41.671 -12.183   2.614  1.00  0.00     0.012 A 
ENDBRANCH   9  20
BRANCH  10  27
HETATM   27  C   UNL     1      39.782 -10.913   5.680  1.00  0.00     0.249 C 
HETATM   28  N   UNL     1      38.922 -11.111   6.712  1.00  0.00    -0.366 N 
HETATM   29  H   UNL     1      38.888 -11.936   7.293  1.00  0.00     0.159 HD
HETATM   30  H   UNL     1      38.124 -10.488   6.754  1.00  0.00     0.159 HD
HETATM   31  O   UNL     1      39.611  -9.968   4.920  1.00  0.00    -0.268 OA
ENDBRANCH  10  27
TORSDOF 4
ENDMDL
