MODEL 1
REMARK VINA RESULT:      -8.6      0.000      0.000
REMARK  7 active torsions:
REMARK  status: ('A' for Active; 'I' for Inactive)
REMARK    1  A    between atoms: C_2  and  C_3 
REMARK    2  A    between atoms: C_3  and  N_4 
REMARK    3  A    between atoms: C_10  and  N_11 
REMARK       I    between atoms: N_11  and  C_12 
REMARK    4  A    between atoms: C_12  and  C_13 
REMARK    5  A    between atoms: C_13  and  N_14 
REMARK       I    between atoms: N_14  and  C_15 
REMARK       I    between atoms: C_15  and  N_16 
REMARK    6  A    between atoms: N_16  and  C_17 
REMARK    7  A    between atoms: C_17  and  C_18 
ROOT
HETATM    1  N   UNL     1      43.314 -10.734   7.846  1.00  0.00    -0.325 N 
HETATM    2  C   UNL     1      44.438 -11.511   7.632  1.00  0.00     0.239 C 
HETATM    3  O   UNL     1      45.566 -11.243   8.037  1.00  0.00    -0.271 OA
HETATM    4  H   UNL     1      42.488 -11.013   7.317  1.00  0.00     0.169 HD
ENDROOT
BRANCH   2   5
HETATM    5  C   UNL     1      44.186 -12.728   6.737  1.00  0.00     0.227 C 
BRANCH   5   6
HETATM    6  N   UNL     1      43.068 -13.538   7.193  1.00  0.00    -0.334 N 
HETATM    7  C   UNL     1      42.267 -14.228   6.332  1.00  0.00     0.316 C 
HETATM    8  N   UNL     1      42.929 -14.812   5.294  1.00  0.00    -0.339 N 
HETATM    9  O   UNL     1      41.057 -14.261   6.498  1.00  0.00    -0.247 OA
HETATM   10  H   UNL     1      43.684 -15.401   5.620  1.00  0.00     0.164 HD
HETATM   11  H   UNL     1      42.502 -13.119   7.923  1.00  0.00     0.164 HD
BRANCH   8  12
HETATM   12  C   UNL     1      42.189 -15.337   4.163  1.00  0.00     0.162 C 
BRANCH  12  13
HETATM   13  C   UNL     1      42.766 -16.679   3.785  1.00  0.00    -0.040 A 
HETATM   14  C   UNL     1      43.681 -17.340   4.616  1.00  0.00     0.012 A 
HETATM   15  C   UNL     1      44.222 -18.569   4.228  1.00  0.00     0.043 A 
HETATM   16  C   UNL     1      43.844 -19.136   3.016  1.00  0.00     0.116 A 
HETATM   17  F   UNL     1      44.374 -20.308   2.643  1.00  0.00    -0.206 F 
HETATM   18  C   UNL     1      42.931 -18.504   2.183  1.00  0.00     0.043 A 
HETATM   19  C   UNL     1      42.390 -17.277   2.568  1.00  0.00     0.012 A 
ENDBRANCH  12  13
ENDBRANCH   8  12
ENDBRANCH   5   6
ENDBRANCH   2   5
BRANCH   1  20
HETATM   20  C   UNL     1      43.207  -9.522   8.563  1.00  0.00     0.043 A 
HETATM   21  C   UNL     1      43.307  -9.349   9.942  1.00  0.00     0.002 A 
HETATM   22  C   UNL     1      43.501 -10.344  11.041  1.00  0.00     0.276 C 
HETATM   23  C   UNL     1      43.180  -8.068  10.514  1.00  0.00    -0.022 A 
HETATM   24  N   UNL     1      43.215  -9.602  12.357  1.00  0.00    -0.063 N 
HETATM   25  H   UNL     1      43.990  -9.802  12.997  1.00  0.00     0.280 HD
HETATM   26  C   UNL     1      43.292  -8.126  12.000  1.00  0.00     0.274 C 
HETATM   27  C   UNL     1      42.971  -6.938   9.740  1.00  0.00     0.009 A 
HETATM   28  C   UNL     1      42.848  -7.101   8.366  1.00  0.00     0.003 A 
HETATM   29  C   UNL     1      42.950  -8.377   7.790  1.00  0.00     0.030 A 
BRANCH  24  30
HETATM   30  C   UNL     1      41.916  -9.977  13.016  1.00  0.00     0.239 C 
BRANCH  30  31
HETATM   31  C   UNL     1      41.035  -8.757  13.341  1.00  0.00     0.003 C 
HETATM   32  C   UNL     1      41.020  -8.542  14.857  1.00  0.00     0.011 C 
HETATM   33  C   UNL     1      39.602  -8.900  12.827  1.00  0.00     0.011 C 
ENDBRANCH  30  31
ENDBRANCH  24  30
ENDBRANCH   1  20
TORSDOF 7
ENDMDL
MODEL 2
REMARK VINA RESULT:      -8.6      5.633      8.395
REMARK  7 active torsions:
REMARK  status: ('A' for Active; 'I' for Inactive)
REMARK    1  A    between atoms: C_2  and  C_3 
REMARK    2  A    between atoms: C_3  and  N_4 
REMARK    3  A    between atoms: C_10  and  N_11 
REMARK       I    between atoms: N_11  and  C_12 
REMARK    4  A    between atoms: C_12  and  C_13 
REMARK    5  A    between atoms: C_13  and  N_14 
REMARK       I    between atoms: N_14  and  C_15 
REMARK       I    between atoms: C_15  and  N_16 
REMARK    6  A    between atoms: N_16  and  C_17 
REMARK    7  A    between atoms: C_17  and  C_18 
ROOT
HETATM    1  N   UNL     1      40.192 -14.415   3.905  1.00  0.00    -0.325 N 
HETATM    2  C   UNL     1      41.289 -14.353   4.744  1.00  0.00     0.239 C 
HETATM    3  O   UNL     1      42.453 -14.224   4.372  1.00  0.00    -0.271 OA
HETATM    4  H   UNL     1      39.316 -14.677   4.358  1.00  0.00     0.169 HD
ENDROOT
BRANCH   2   5
HETATM    5  C   UNL     1      40.950 -14.561   6.222  1.00  0.00     0.227 C 
BRANCH   5   6
HETATM    6  N   UNL     1      42.112 -14.433   7.088  1.00  0.00    -0.334 N 
HETATM    7  C   UNL     1      42.853 -15.510   7.479  1.00  0.00     0.316 C 
HETATM    8  N   UNL     1      43.043 -16.444   6.505  1.00  0.00    -0.339 N 
HETATM    9  O   UNL     1      43.260 -15.602   8.627  1.00  0.00    -0.247 OA
HETATM   10  H   UNL     1      43.434 -16.033   5.668  1.00  0.00     0.164 HD
HETATM   11  H   UNL     1      41.998 -13.796   7.870  1.00  0.00     0.164 HD
BRANCH   8  12
HETATM   12  C   UNL     1      43.567 -17.752   6.846  1.00  0.00     0.162 C 
BRANCH  12  13
HETATM   13  C   UNL     1      43.673 -18.577   5.587  1.00  0.00    -0.040 A 
HETATM   14  C   UNL     1      43.812 -19.971   5.638  1.00  0.00     0.012 A 
HETATM   15  C   UNL     1      43.938 -20.708   4.458  1.00  0.00     0.043 A 
HETATM   16  C   UNL     1      43.919 -20.053   3.231  1.00  0.00     0.116 A 
HETATM   17  F   UNL     1      44.051 -20.762   2.103  1.00  0.00    -0.206 F 
HETATM   18  C   UNL     1      43.772 -18.675   3.157  1.00  0.00     0.043 A 
HETATM   19  C   UNL     1      43.646 -17.936   4.334  1.00  0.00     0.012 A 
ENDBRANCH  12  13
ENDBRANCH   8  12
ENDBRANCH   5   6
ENDBRANCH   2   5
BRANCH   1  20
HETATM   20  C   UNL     1      40.156 -14.329   2.497  1.00  0.00     0.043 A 
HETATM   21  C   UNL     1      40.377 -13.195   1.717  1.00  0.00     0.002 A 
HETATM   22  C   UNL     1      40.659 -11.779   2.108  1.00  0.00     0.276 C 
HETATM   23  C   UNL     1      40.309 -13.267   0.312  1.00  0.00    -0.022 A 
HETATM   24  N   UNL     1      40.494 -10.934   0.836  1.00  0.00    -0.063 N 
HETATM   25  H   UNL     1      41.320 -10.332   0.757  1.00  0.00     0.280 HD
HETATM   26  C   UNL     1      40.549 -11.933  -0.309  1.00  0.00     0.274 C 
HETATM   27  C   UNL     1      40.042 -14.455  -0.348  1.00  0.00     0.009 A 
HETATM   28  C   UNL     1      39.799 -15.588   0.418  1.00  0.00     0.003 A 
HETATM   29  C   UNL     1      39.842 -15.520   1.819  1.00  0.00     0.030 A 
BRANCH  24  30
HETATM   30  C   UNL     1      39.254 -10.082   0.807  1.00  0.00     0.239 C 
BRANCH  30  31
HETATM   31  C   UNL     1      38.064 -10.777   0.121  1.00  0.00     0.003 C 
HETATM   32  C   UNL     1      37.441  -9.815  -0.894  1.00  0.00     0.011 C 
HETATM   33  C   UNL     1      36.995 -11.247   1.108  1.00  0.00     0.011 C 
ENDBRANCH  30  31
ENDBRANCH  24  30
ENDBRANCH   1  20
TORSDOF 7
ENDMDL
MODEL 3
REMARK VINA RESULT:      -8.5      2.077      3.312
REMARK  7 active torsions:
REMARK  status: ('A' for Active; 'I' for Inactive)
REMARK    1  A    between atoms: C_2  and  C_3 
REMARK    2  A    between atoms: C_3  and  N_4 
REMARK    3  A    between atoms: C_10  and  N_11 
REMARK       I    between atoms: N_11  and  C_12 
REMARK    4  A    between atoms: C_12  and  C_13 
REMARK    5  A    between atoms: C_13  and  N_14 
REMARK       I    between atoms: N_14  and  C_15 
REMARK       I    between atoms: C_15  and  N_16 
REMARK    6  A    between atoms: N_16  and  C_17 
REMARK    7  A    between atoms: C_17  and  C_18 
ROOT
HETATM    1  N   UNL     1      42.668 -12.436   6.919  1.00  0.00    -0.325 N 
HETATM    2  C   UNL     1      41.684 -12.089   6.011  1.00  0.00     0.239 C 
HETATM    3  O   UNL     1      41.702 -11.085   5.303  1.00  0.00    -0.271 OA
HETATM    4  H   UNL     1      42.432 -13.213   7.536  1.00  0.00     0.169 HD
ENDROOT
BRANCH   2   5
HETATM    5  C   UNL     1      40.476 -13.029   6.020  1.00  0.00     0.227 C 
BRANCH   5   6
HETATM    6  N   UNL     1      39.607 -12.837   4.869  1.00  0.00    -0.334 N 
HETATM    7  C   UNL     1      39.741 -13.565   3.723  1.00  0.00     0.316 C 
HETATM    8  N   UNL     1      40.038 -14.879   3.924  1.00  0.00    -0.339 N 
HETATM    9  O   UNL     1      39.631 -13.030   2.630  1.00  0.00    -0.247 OA
HETATM   10  H   UNL     1      39.371 -15.320   4.543  1.00  0.00     0.164 HD
HETATM   11  H   UNL     1      39.407 -11.870   4.637  1.00  0.00     0.164 HD
BRANCH   8  12
HETATM   12  C   UNL     1      40.476 -15.703   2.814  1.00  0.00     0.162 C 
BRANCH  12  13
HETATM   13  C   UNL     1      41.688 -16.492   3.242  1.00  0.00    -0.040 A 
HETATM   14  C   UNL     1      42.400 -17.287   2.333  1.00  0.00     0.012 A 
HETATM   15  C   UNL     1      43.502 -18.031   2.762  1.00  0.00     0.043 A 
HETATM   16  C   UNL     1      43.894 -17.974   4.095  1.00  0.00     0.116 A 
HETATM   17  F   UNL     1      44.945 -18.697   4.504  1.00  0.00    -0.206 F 
HETATM   18  C   UNL     1      43.211 -17.184   5.010  1.00  0.00     0.043 A 
HETATM   19  C   UNL     1      42.110 -16.441   4.584  1.00  0.00     0.012 A 
ENDBRANCH  12  13
ENDBRANCH   8  12
ENDBRANCH   5   6
ENDBRANCH   2   5
BRANCH   1  20
HETATM   20  C   UNL     1      43.871 -11.758   7.212  1.00  0.00     0.043 A 
HETATM   21  C   UNL     1      44.145 -10.975   8.331  1.00  0.00     0.002 A 
HETATM   22  C   UNL     1      43.280 -10.587   9.488  1.00  0.00     0.276 C 
HETATM   23  C   UNL     1      45.402 -10.360   8.485  1.00  0.00    -0.022 A 
HETATM   24  N   UNL     1      44.024  -9.466  10.232  1.00  0.00    -0.063 N 
HETATM   25  H   UNL     1      44.029  -9.709  11.228  1.00  0.00     0.280 HD
HETATM   26  C   UNL     1      45.459  -9.551   9.737  1.00  0.00     0.274 C 
HETATM   27  C   UNL     1      46.415 -10.520   7.554  1.00  0.00     0.009 A 
HETATM   28  C   UNL     1      46.148 -11.282   6.423  1.00  0.00     0.003 A 
HETATM   29  C   UNL     1      44.889 -11.878   6.250  1.00  0.00     0.030 A 
BRANCH  24  30
HETATM   30  C   UNL     1      43.426  -8.097  10.058  1.00  0.00     0.239 C 
BRANCH  30  31
HETATM   31  C   UNL     1      42.707  -7.591  11.321  1.00  0.00     0.003 C 
HETATM   32  C   UNL     1      43.341  -8.242  12.553  1.00  0.00     0.011 C 
HETATM   33  C   UNL     1      41.204  -7.870  11.306  1.00  0.00     0.011 C 
ENDBRANCH  30  31
ENDBRANCH  24  30
ENDBRANCH   1  20
TORSDOF 7
ENDMDL
MODEL 4
REMARK VINA RESULT:      -8.5      5.604      8.478
REMARK  7 active torsions:
REMARK  status: ('A' for Active; 'I' for Inactive)
REMARK    1  A    between atoms: C_2  and  C_3 
REMARK    2  A    between atoms: C_3  and  N_4 
REMARK    3  A    between atoms: C_10  and  N_11 
REMARK       I    between atoms: N_11  and  C_12 
REMARK    4  A    between atoms: C_12  and  C_13 
REMARK    5  A    between atoms: C_13  and  N_14 
REMARK       I    between atoms: N_14  and  C_15 
REMARK       I    between atoms: C_15  and  N_16 
REMARK    6  A    between atoms: N_16  and  C_17 
REMARK    7  A    between atoms: C_17  and  C_18 
ROOT
HETATM    1  N   UNL     1      39.615 -13.243   4.848  1.00  0.00    -0.325 N 
HETATM    2  C   UNL     1      40.816 -13.916   4.985  1.00  0.00     0.239 C 
HETATM    3  O   UNL     1      41.796 -13.761   4.261  1.00  0.00    -0.271 OA
HETATM    4  H   UNL     1      38.854 -13.595   5.429  1.00  0.00     0.169 HD
ENDROOT
BRANCH   2   5
HETATM    5  C   UNL     1      40.806 -14.979   6.086  1.00  0.00     0.227 C 
BRANCH   5   6
HETATM    6  N   UNL     1      41.876 -14.795   7.054  1.00  0.00    -0.334 N 
HETATM    7  C   UNL     1      42.938 -15.648   7.140  1.00  0.00     0.316 C 
HETATM    8  N   UNL     1      43.407 -16.083   5.937  1.00  0.00    -0.339 N 
HETATM    9  O   UNL     1      43.373 -15.992   8.228  1.00  0.00    -0.247 OA
HETATM   10  H   UNL     1      43.627 -15.311   5.323  1.00  0.00     0.164 HD
HETATM   11  H   UNL     1      41.574 -14.533   7.986  1.00  0.00     0.164 HD
BRANCH   8  12
HETATM   12  C   UNL     1      44.339 -17.192   5.879  1.00  0.00     0.162 C 
BRANCH  12  13
HETATM   13  C   UNL     1      44.007 -18.046   4.680  1.00  0.00    -0.040 A 
HETATM   14  C   UNL     1      43.446 -17.491   3.522  1.00  0.00     0.012 A 
HETATM   15  C   UNL     1      43.120 -18.309   2.437  1.00  0.00     0.043 A 
HETATM   16  C   UNL     1      43.361 -19.677   2.509  1.00  0.00     0.116 A 
HETATM   17  F   UNL     1      43.038 -20.458   1.471  1.00  0.00    -0.206 F 
HETATM   18  C   UNL     1      43.927 -20.245   3.642  1.00  0.00     0.043 A 
HETATM   19  C   UNL     1      44.252 -19.431   4.727  1.00  0.00     0.012 A 
ENDBRANCH  12  13
ENDBRANCH   8  12
ENDBRANCH   5   6
ENDBRANCH   2   5
BRANCH   1  20
HETATM   20  C   UNL     1      39.264 -12.257   3.901  1.00  0.00     0.043 A 
HETATM   21  C   UNL     1      39.053 -12.438   2.536  1.00  0.00     0.002 A 
HETATM   22  C   UNL     1      39.171 -13.660   1.682  1.00  0.00     0.276 C 
HETATM   23  C   UNL     1      38.703 -11.349   1.715  1.00  0.00    -0.022 A 
HETATM   24  N   UNL     1      39.126 -13.179   0.223  1.00  0.00    -0.063 N 
HETATM   25  H   UNL     1      38.443 -13.761  -0.272  1.00  0.00     0.280 HD
HETATM   26  C   UNL     1      38.556 -11.771   0.292  1.00  0.00     0.274 C 
HETATM   27  C   UNL     1      38.538 -10.072   2.223  1.00  0.00     0.009 A 
HETATM   28  C   UNL     1      38.766  -9.874   3.579  1.00  0.00     0.003 A 
HETATM   29  C   UNL     1      39.138 -10.949   4.401  1.00  0.00     0.030 A 
BRANCH  24  30
HETATM   30  C   UNL     1      40.445 -13.240  -0.496  1.00  0.00     0.239 C 
BRANCH  30  31
HETATM   31  C   UNL     1      40.336 -13.861  -1.900  1.00  0.00     0.003 C 
HETATM   32  C   UNL     1      40.571 -12.771  -2.949  1.00  0.00     0.011 C 
HETATM   33  C   UNL     1      38.987 -14.536  -2.153  1.00  0.00     0.011 C 
ENDBRANCH  30  31
ENDBRANCH  24  30
ENDBRANCH   1  20
TORSDOF 7
ENDMDL
MODEL 5
REMARK VINA RESULT:      -8.2      3.807     10.476
REMARK  7 active torsions:
REMARK  status: ('A' for Active; 'I' for Inactive)
REMARK    1  A    between atoms: C_2  and  C_3 
REMARK    2  A    between atoms: C_3  and  N_4 
REMARK    3  A    between atoms: C_10  and  N_11 
REMARK       I    between atoms: N_11  and  C_12 
REMARK    4  A    between atoms: C_12  and  C_13 
REMARK    5  A    between atoms: C_13  and  N_14 
REMARK       I    between atoms: N_14  and  C_15 
REMARK       I    between atoms: C_15  and  N_16 
REMARK    6  A    between atoms: N_16  and  C_17 
REMARK    7  A    between atoms: C_17  and  C_18 
ROOT
HETATM    1  N   UNL     1      43.272 -13.619   5.788  1.00  0.00    -0.325 N 
HETATM    2  C   UNL     1      42.295 -12.652   5.936  1.00  0.00     0.239 C 
HETATM    3  O   UNL     1      41.189 -12.680   5.401  1.00  0.00    -0.271 OA
HETATM    4  H   UNL     1      44.185 -13.373   6.171  1.00  0.00     0.169 HD
ENDROOT
BRANCH   2   5
HETATM    5  C   UNL     1      42.739 -11.447   6.770  1.00  0.00     0.227 C 
BRANCH   5   6
HETATM    6  N   UNL     1      43.693 -11.805   7.809  1.00  0.00    -0.334 N 
HETATM    7  C   UNL     1      44.144 -10.903   8.727  1.00  0.00     0.316 C 
HETATM    8  N   UNL     1      43.192 -10.042   9.184  1.00  0.00    -0.339 N 
HETATM    9  O   UNL     1      45.321 -10.885   9.055  1.00  0.00    -0.247 OA
HETATM   10  H   UNL     1      42.387 -10.536   9.544  1.00  0.00     0.164 HD
HETATM   11  H   UNL     1      44.460 -12.394   7.504  1.00  0.00     0.164 HD
BRANCH   8  12
HETATM   12  C   UNL     1      43.578  -8.869   9.944  1.00  0.00     0.162 C 
BRANCH  12  13
HETATM   13  C   UNL     1      42.950  -8.947  11.313  1.00  0.00    -0.040 A 
HETATM   14  C   UNL     1      41.862  -9.793  11.569  1.00  0.00     0.012 A 
HETATM   15  C   UNL     1      41.280  -9.824  12.839  1.00  0.00     0.043 A 
HETATM   16  C   UNL     1      41.789  -9.016  13.850  1.00  0.00     0.116 A 
HETATM   17  F   UNL     1      41.221  -9.041  15.062  1.00  0.00    -0.206 F 
HETATM   18  C   UNL     1      42.873  -8.180  13.621  1.00  0.00     0.043 A 
HETATM   19  C   UNL     1      43.455  -8.146  12.354  1.00  0.00     0.012 A 
ENDBRANCH  12  13
ENDBRANCH   8  12
ENDBRANCH   5   6
ENDBRANCH   2   5
BRANCH   1  20
HETATM   20  C   UNL     1      43.218 -14.814   5.038  1.00  0.00     0.043 A 
HETATM   21  C   UNL     1      43.120 -14.935   3.653  1.00  0.00     0.002 A 
HETATM   22  C   UNL     1      43.000 -13.893   2.587  1.00  0.00     0.276 C 
HETATM   23  C   UNL     1      43.079 -16.205   3.046  1.00  0.00    -0.022 A 
HETATM   24  N   UNL     1      42.612 -14.633   1.297  1.00  0.00    -0.063 N 
HETATM   25  H   UNL     1      43.240 -14.308   0.555  1.00  0.00     0.280 HD
HETATM   26  C   UNL     1      42.944 -16.092   1.566  1.00  0.00     0.274 C 
HETATM   27  C   UNL     1      43.152 -17.373   3.787  1.00  0.00     0.009 A 
HETATM   28  C   UNL     1      43.229 -17.266   5.170  1.00  0.00     0.003 A 
HETATM   29  C   UNL     1      43.246 -16.005   5.784  1.00  0.00     0.030 A 
BRANCH  24  30
HETATM   30  C   UNL     1      41.186 -14.430   0.864  1.00  0.00     0.239 C 
BRANCH  30  31
HETATM   31  C   UNL     1      40.555 -13.157   1.456  1.00  0.00     0.003 C 
HETATM   32  C   UNL     1      39.390 -13.553   2.368  1.00  0.00     0.011 C 
HETATM   33  C   UNL     1      40.062 -12.180   0.387  1.00  0.00     0.011 C 
ENDBRANCH  30  31
ENDBRANCH  24  30
ENDBRANCH   1  20
TORSDOF 7
ENDMDL
MODEL 6
REMARK VINA RESULT:      -8.1      4.983      8.709
REMARK  7 active torsions:
REMARK  status: ('A' for Active; 'I' for Inactive)
REMARK    1  A    between atoms: C_2  and  C_3 
REMARK    2  A    between atoms: C_3  and  N_4 
REMARK    3  A    between atoms: C_10  and  N_11 
REMARK       I    between atoms: N_11  and  C_12 
REMARK    4  A    between atoms: C_12  and  C_13 
REMARK    5  A    between atoms: C_13  and  N_14 
REMARK       I    between atoms: N_14  and  C_15 
REMARK       I    between atoms: C_15  and  N_16 
REMARK    6  A    between atoms: N_16  and  C_17 
REMARK    7  A    between atoms: C_17  and  C_18 
ROOT
HETATM    1  N   UNL     1      41.230 -13.081   3.509  1.00  0.00    -0.325 N 
HETATM    2  C   UNL     1      42.515 -12.765   3.909  1.00  0.00     0.239 C 
HETATM    3  O   UNL     1      43.521 -12.898   3.216  1.00  0.00    -0.271 OA
HETATM    4  H   UNL     1      40.529 -13.058   4.250  1.00  0.00     0.169 HD
ENDROOT
BRANCH   2   5
HETATM    5  C   UNL     1      42.614 -12.308   5.367  1.00  0.00     0.227 C 
BRANCH   5   6
HETATM    6  N   UNL     1      41.389 -12.548   6.114  1.00  0.00    -0.334 N 
HETATM    7  C   UNL     1      40.987 -13.800   6.475  1.00  0.00     0.316 C 
HETATM    8  N   UNL     1      41.997 -14.621   6.876  1.00  0.00    -0.339 N 
HETATM    9  O   UNL     1      39.811 -14.124   6.393  1.00  0.00    -0.247 OA
HETATM   10  H   UNL     1      42.544 -14.202   7.616  1.00  0.00     0.164 HD
HETATM   11  H   UNL     1      40.587 -12.006   5.811  1.00  0.00     0.164 HD
BRANCH   8  12
HETATM   12  C   UNL     1      41.762 -16.044   7.022  1.00  0.00     0.162 C 
BRANCH  12  13
HETATM   13  C   UNL     1      42.527 -16.777   5.948  1.00  0.00    -0.040 A 
HETATM   14  C   UNL     1      42.479 -16.367   4.609  1.00  0.00     0.012 A 
HETATM   15  C   UNL     1      43.173 -17.082   3.629  1.00  0.00     0.043 A 
HETATM   16  C   UNL     1      43.919 -18.200   3.991  1.00  0.00     0.116 A 
HETATM   17  F   UNL     1      44.574 -18.888   3.047  1.00  0.00    -0.206 F 
HETATM   18  C   UNL     1      43.990 -18.616   5.313  1.00  0.00     0.043 A 
HETATM   19  C   UNL     1      43.297 -17.905   6.292  1.00  0.00     0.012 A 
ENDBRANCH  12  13
ENDBRANCH   8  12
ENDBRANCH   5   6
ENDBRANCH   2   5
BRANCH   1  20
HETATM   20  C   UNL     1      40.796 -13.588   2.265  1.00  0.00     0.043 A 
HETATM   21  C   UNL     1      40.715 -12.898   1.057  1.00  0.00     0.002 A 
HETATM   22  C   UNL     1      41.001 -11.467   0.728  1.00  0.00     0.276 C 
HETATM   23  C   UNL     1      40.262 -13.544  -0.109  1.00  0.00    -0.022 A 
HETATM   24  N   UNL     1      40.431 -11.221  -0.678  1.00  0.00    -0.063 N 
HETATM   25  H   UNL     1      41.161 -10.757  -1.229  1.00  0.00     0.280 HD
HETATM   26  C   UNL     1      40.230 -12.608  -1.269  1.00  0.00     0.274 C 
HETATM   27  C   UNL     1      39.900 -14.881  -0.111  1.00  0.00     0.009 A 
HETATM   28  C   UNL     1      39.956 -15.575   1.091  1.00  0.00     0.003 A 
HETATM   29  C   UNL     1      40.384 -14.932   2.263  1.00  0.00     0.030 A 
BRANCH  24  30
HETATM   30  C   UNL     1      39.180 -10.387  -0.708  1.00  0.00     0.239 C 
BRANCH  30  31
HETATM   31  C   UNL     1      37.894 -11.232  -0.661  1.00  0.00     0.003 C 
HETATM   32  C   UNL     1      36.903 -10.693  -1.697  1.00  0.00     0.011 C 
HETATM   33  C   UNL     1      37.238 -11.247   0.720  1.00  0.00     0.011 C 
ENDBRANCH  30  31
ENDBRANCH  24  30
ENDBRANCH   1  20
TORSDOF 7
ENDMDL
MODEL 7
REMARK VINA RESULT:      -8.0      2.537      3.662
REMARK  7 active torsions:
REMARK  status: ('A' for Active; 'I' for Inactive)
REMARK    1  A    between atoms: C_2  and  C_3 
REMARK    2  A    between atoms: C_3  and  N_4 
REMARK    3  A    between atoms: C_10  and  N_11 
REMARK       I    between atoms: N_11  and  C_12 
REMARK    4  A    between atoms: C_12  and  C_13 
REMARK    5  A    between atoms: C_13  and  N_14 
REMARK       I    between atoms: N_14  and  C_15 
REMARK       I    between atoms: C_15  and  N_16 
REMARK    6  A    between atoms: N_16  and  C_17 
REMARK    7  A    between atoms: C_17  and  C_18 
ROOT
HETATM    1  N   UNL     1      42.413 -11.410   5.350  1.00  0.00    -0.325 N 
HETATM    2  C   UNL     1      41.641 -12.557   5.372  1.00  0.00     0.239 C 
HETATM    3  O   UNL     1      41.745 -13.460   6.198  1.00  0.00    -0.271 OA
HETATM    4  H   UNL     1      42.308 -10.834   4.515  1.00  0.00     0.169 HD
ENDROOT
BRANCH   2   5
HETATM    5  C   UNL     1      40.673 -12.673   4.191  1.00  0.00     0.227 C 
BRANCH   5   6
HETATM    6  N   UNL     1      40.045 -13.982   4.106  1.00  0.00    -0.334 N 
HETATM    7  C   UNL     1      40.543 -14.981   3.322  1.00  0.00     0.316 C 
HETATM    8  N   UNL     1      41.903 -15.066   3.317  1.00  0.00    -0.339 N 
HETATM    9  O   UNL     1      39.794 -15.691   2.669  1.00  0.00    -0.247 OA
HETATM   10  H   UNL     1      42.274 -15.139   4.255  1.00  0.00     0.164 HD
HETATM   11  H   UNL     1      39.033 -13.971   4.042  1.00  0.00     0.164 HD
BRANCH   8  12
HETATM   12  C   UNL     1      42.576 -15.888   2.330  1.00  0.00     0.162 C 
BRANCH  12  13
HETATM   13  C   UNL     1      43.127 -17.115   3.012  1.00  0.00    -0.040 A 
HETATM   14  C   UNL     1      43.632 -17.059   4.319  1.00  0.00     0.012 A 
HETATM   15  C   UNL     1      44.164 -18.204   4.917  1.00  0.00     0.043 A 
HETATM   16  C   UNL     1      44.186 -19.403   4.211  1.00  0.00     0.116 A 
HETATM   17  F   UNL     1      44.707 -20.495   4.785  1.00  0.00    -0.206 F 
HETATM   18  C   UNL     1      43.681 -19.483   2.921  1.00  0.00     0.043 A 
HETATM   19  C   UNL     1      43.150 -18.341   2.321  1.00  0.00     0.012 A 
ENDBRANCH  12  13
ENDBRANCH   8  12
ENDBRANCH   5   6
ENDBRANCH   2   5
BRANCH   1  20
HETATM   20  C   UNL     1      43.436 -11.022   6.242  1.00  0.00     0.043 A 
HETATM   21  C   UNL     1      43.313 -10.193   7.355  1.00  0.00     0.002 A 
HETATM   22  C   UNL     1      42.132  -9.454   7.898  1.00  0.00     0.276 C 
HETATM   23  C   UNL     1      44.433  -9.898   8.156  1.00  0.00    -0.022 A 
HETATM   24  N   UNL     1      42.677  -8.467   8.943  1.00  0.00    -0.063 N 
HETATM   25  H   UNL     1      42.109  -8.572   9.790  1.00  0.00     0.280 HD
HETATM   26  C   UNL     1      44.074  -8.972   9.268  1.00  0.00     0.274 C 
HETATM   27  C   UNL     1      45.685 -10.426   7.887  1.00  0.00     0.009 A 
HETATM   28  C   UNL     1      45.825 -11.237   6.768  1.00  0.00     0.003 A 
HETATM   29  C   UNL     1      44.719 -11.518   5.951  1.00  0.00     0.030 A 
BRANCH  24  30
HETATM   30  C   UNL     1      42.663  -7.027   8.510  1.00  0.00     0.239 C 
BRANCH  30  31
HETATM   31  C   UNL     1      41.775  -6.141   9.401  1.00  0.00     0.003 C 
HETATM   32  C   UNL     1      41.412  -4.865   8.634  1.00  0.00     0.011 C 
HETATM   33  C   UNL     1      42.438  -5.772  10.729  1.00  0.00     0.011 C 
ENDBRANCH  30  31
ENDBRANCH  24  30
ENDBRANCH   1  20
TORSDOF 7
ENDMDL
MODEL 8
REMARK VINA RESULT:      -8.0      3.057      4.451
REMARK  7 active torsions:
REMARK  status: ('A' for Active; 'I' for Inactive)
REMARK    1  A    between atoms: C_2  and  C_3 
REMARK    2  A    between atoms: C_3  and  N_4 
REMARK    3  A    between atoms: C_10  and  N_11 
REMARK       I    between atoms: N_11  and  C_12 
REMARK    4  A    between atoms: C_12  and  C_13 
REMARK    5  A    between atoms: C_13  and  N_14 
REMARK       I    between atoms: N_14  and  C_15 
REMARK       I    between atoms: C_15  and  N_16 
REMARK    6  A    between atoms: N_16  and  C_17 
REMARK    7  A    between atoms: C_17  and  C_18 
ROOT
HETATM    1  N   UNL     1      40.878 -12.481   5.015  1.00  0.00    -0.325 N 
HETATM    2  C   UNL     1      40.507 -13.753   5.411  1.00  0.00     0.239 C 
HETATM    3  O   UNL     1      39.866 -14.016   6.425  1.00  0.00    -0.271 OA
HETATM    4  H   UNL     1      41.536 -12.445   4.236  1.00  0.00     0.169 HD
ENDROOT
BRANCH   2   5
HETATM    5  C   UNL     1      41.055 -14.864   4.511  1.00  0.00     0.227 C 
BRANCH   5   6
HETATM    6  N   UNL     1      41.520 -14.367   3.225  1.00  0.00    -0.334 N 
HETATM    7  C   UNL     1      42.369 -15.080   2.431  1.00  0.00     0.316 C 
HETATM    8  N   UNL     1      42.117 -16.419   2.399  1.00  0.00    -0.339 N 
HETATM    9  O   UNL     1      43.286 -14.526   1.845  1.00  0.00    -0.247 OA
HETATM   10  H   UNL     1      41.157 -16.610   2.147  1.00  0.00     0.164 HD
HETATM   11  H   UNL     1      41.783 -13.388   3.212  1.00  0.00     0.164 HD
BRANCH   8  12
HETATM   12  C   UNL     1      43.091 -17.328   1.826  1.00  0.00     0.162 C 
BRANCH  12  13
HETATM   13  C   UNL     1      43.444 -18.374   2.854  1.00  0.00    -0.040 A 
HETATM   14  C   UNL     1      43.717 -18.028   4.184  1.00  0.00     0.012 A 
HETATM   15  C   UNL     1      44.072 -19.013   5.109  1.00  0.00     0.043 A 
HETATM   16  C   UNL     1      44.146 -20.342   4.705  1.00  0.00     0.116 A 
HETATM   17  F   UNL     1      44.496 -21.282   5.592  1.00  0.00    -0.206 F 
HETATM   18  C   UNL     1      43.868 -20.709   3.395  1.00  0.00     0.043 A 
HETATM   19  C   UNL     1      43.515 -19.727   2.470  1.00  0.00     0.012 A 
ENDBRANCH  12  13
ENDBRANCH   8  12
ENDBRANCH   5   6
ENDBRANCH   2   5
BRANCH   1  20
HETATM   20  C   UNL     1      40.602 -11.249   5.647  1.00  0.00     0.043 A 
HETATM   21  C   UNL     1      41.512 -10.405   6.280  1.00  0.00     0.002 A 
HETATM   22  C   UNL     1      42.981 -10.554   6.518  1.00  0.00     0.276 C 
HETATM   23  C   UNL     1      41.082  -9.199   6.867  1.00  0.00    -0.022 A 
HETATM   24  N   UNL     1      43.370  -9.467   7.533  1.00  0.00    -0.063 N 
HETATM   25  H   UNL     1      44.196  -8.984   7.165  1.00  0.00     0.280 HD
HETATM   26  C   UNL     1      42.217  -8.476   7.509  1.00  0.00     0.274 C 
HETATM   27  C   UNL     1      39.758  -8.795   6.824  1.00  0.00     0.009 A 
HETATM   28  C   UNL     1      38.837  -9.637   6.214  1.00  0.00     0.003 A 
HETATM   29  C   UNL     1      39.253 -10.852   5.648  1.00  0.00     0.030 A 
BRANCH  24  30
HETATM   30  C   UNL     1      43.669  -9.980   8.915  1.00  0.00     0.239 C 
BRANCH  30  31
HETATM   31  C   UNL     1      45.177 -10.131   9.186  1.00  0.00     0.003 C 
HETATM   32  C   UNL     1      45.468  -9.717  10.632  1.00  0.00     0.011 C 
HETATM   33  C   UNL     1      46.042  -9.310   8.230  1.00  0.00     0.011 C 
ENDBRANCH  30  31
ENDBRANCH  24  30
ENDBRANCH   1  20
TORSDOF 7
ENDMDL
MODEL 9
REMARK VINA RESULT:      -8.0      6.046     10.083
REMARK  7 active torsions:
REMARK  status: ('A' for Active; 'I' for Inactive)
REMARK    1  A    between atoms: C_2  and  C_3 
REMARK    2  A    between atoms: C_3  and  N_4 
REMARK    3  A    between atoms: C_10  and  N_11 
REMARK       I    between atoms: N_11  and  C_12 
REMARK    4  A    between atoms: C_12  and  C_13 
REMARK    5  A    between atoms: C_13  and  N_14 
REMARK       I    between atoms: N_14  and  C_15 
REMARK       I    between atoms: C_15  and  N_16 
REMARK    6  A    between atoms: N_16  and  C_17 
REMARK    7  A    between atoms: C_17  and  C_18 
ROOT
HETATM    1  N   UNL     1      40.354 -13.717   1.349  1.00  0.00    -0.325 N 
HETATM    2  C   UNL     1      39.618 -13.050   2.311  1.00  0.00     0.239 C 
HETATM    3  O   UNL     1      38.655 -12.323   2.081  1.00  0.00    -0.271 OA
HETATM    4  H   UNL     1      41.211 -14.154   1.687  1.00  0.00     0.169 HD
ENDROOT
BRANCH   2   5
HETATM    5  C   UNL     1      40.167 -13.210   3.731  1.00  0.00     0.227 C 
BRANCH   5   6
HETATM    6  N   UNL     1      41.545 -12.759   3.854  1.00  0.00    -0.334 N 
HETATM    7  C   UNL     1      42.509 -13.513   4.457  1.00  0.00     0.316 C 
HETATM    8  N   UNL     1      42.431 -14.846   4.186  1.00  0.00    -0.339 N 
HETATM    9  O   UNL     1      43.330 -12.995   5.199  1.00  0.00    -0.247 OA
HETATM   10  H   UNL     1      42.420 -15.022   3.190  1.00  0.00     0.164 HD
HETATM   11  H   UNL     1      41.657 -11.787   4.119  1.00  0.00     0.164 HD
BRANCH   8  12
HETATM   12  C   UNL     1      43.207 -15.792   4.963  1.00  0.00     0.162 C 
BRANCH  12  13
HETATM   13  C   UNL     1      43.353 -17.068   4.173  1.00  0.00    -0.040 A 
HETATM   14  C   UNL     1      44.094 -18.151   4.666  1.00  0.00     0.012 A 
HETATM   15  C   UNL     1      44.239 -19.311   3.900  1.00  0.00     0.043 A 
HETATM   16  C   UNL     1      43.638 -19.389   2.648  1.00  0.00     0.116 A 
HETATM   17  F   UNL     1      43.788 -20.498   1.913  1.00  0.00    -0.206 F 
HETATM   18  C   UNL     1      42.891 -18.333   2.146  1.00  0.00     0.043 A 
HETATM   19  C   UNL     1      42.746 -17.174   2.907  1.00  0.00     0.012 A 
ENDBRANCH  12  13
ENDBRANCH   8  12
ENDBRANCH   5   6
ENDBRANCH   2   5
BRANCH   1  20
HETATM   20  C   UNL     1      40.164 -13.731  -0.050  1.00  0.00     0.043 A 
HETATM   21  C   UNL     1      40.513 -12.731  -0.956  1.00  0.00     0.002 A 
HETATM   22  C   UNL     1      41.123 -11.383  -0.738  1.00  0.00     0.276 C 
HETATM   23  C   UNL     1      40.260 -12.891  -2.332  1.00  0.00    -0.022 A 
HETATM   24  N   UNL     1      40.978 -10.619  -2.063  1.00  0.00    -0.063 N 
HETATM   25  H   UNL     1      41.893 -10.215  -2.287  1.00  0.00     0.280 HD
HETATM   26  C   UNL     1      40.688 -11.689  -3.104  1.00  0.00     0.274 C 
HETATM   27  C   UNL     1      39.678 -14.041  -2.841  1.00  0.00     0.009 A 
HETATM   28  C   UNL     1      39.306 -15.036  -1.945  1.00  0.00     0.003 A 
HETATM   29  C   UNL     1      39.533 -14.874  -0.570  1.00  0.00     0.030 A 
BRANCH  24  30
HETATM   30  C   UNL     1      39.944  -9.527  -2.046  1.00  0.00     0.239 C 
BRANCH  30  31
HETATM   31  C   UNL     1      38.994  -9.581  -3.256  1.00  0.00     0.003 C 
HETATM   32  C   UNL     1      39.084  -8.257  -4.021  1.00  0.00     0.011 C 
HETATM   33  C   UNL     1      37.541  -9.853  -2.866  1.00  0.00     0.011 C 
ENDBRANCH  30  31
ENDBRANCH  24  30
ENDBRANCH   1  20
TORSDOF 7
ENDMDL
MODEL 10
REMARK VINA RESULT:      -7.9      3.439      9.975
REMARK  7 active torsions:
REMARK  status: ('A' for Active; 'I' for Inactive)
REMARK    1  A    between atoms: C_2  and  C_3 
REMARK    2  A    between atoms: C_3  and  N_4 
REMARK    3  A    between atoms: C_10  and  N_11 
REMARK       I    between atoms: N_11  and  C_12 
REMARK    4  A    between atoms: C_12  and  C_13 
REMARK    5  A    between atoms: C_13  and  N_14 
REMARK       I    between atoms: N_14  and  C_15 
REMARK       I    between atoms: C_15  and  N_16 
REMARK    6  A    between atoms: N_16  and  C_17 
REMARK    7  A    between atoms: C_17  and  C_18 
ROOT
HETATM    1  N   UNL     1      43.381 -12.956   6.798  1.00  0.00    -0.325 N 
HETATM    2  C   UNL     1      43.847 -12.028   5.884  1.00  0.00     0.239 C 
HETATM    3  O   UNL     1      43.609 -12.046   4.679  1.00  0.00    -0.271 OA
HETATM    4  H   UNL     1      43.792 -12.890   7.729  1.00  0.00     0.169 HD
ENDROOT
BRANCH   2   5
HETATM    5  C   UNL     1      44.797 -10.990   6.488  1.00  0.00     0.227 C 
BRANCH   5   6
HETATM    6  N   UNL     1      45.097 -11.251   7.887  1.00  0.00    -0.334 N 
HETATM    7  C   UNL     1      44.894 -10.319   8.863  1.00  0.00     0.316 C 
HETATM    8  N   UNL     1      43.755  -9.588   8.714  1.00  0.00    -0.339 N 
HETATM    9  O   UNL     1      45.714 -10.166   9.757  1.00  0.00    -0.247 OA
HETATM   10  H   UNL     1      42.942 -10.182   8.622  1.00  0.00     0.164 HD
HETATM   11  H   UNL     1      45.971 -11.738   8.057  1.00  0.00     0.164 HD
BRANCH   8  12
HETATM   12  C   UNL     1      43.549  -8.392   9.507  1.00  0.00     0.162 C 
BRANCH  12  13
HETATM   13  C   UNL     1      42.763  -8.757  10.742  1.00  0.00    -0.040 A 
HETATM   14  C   UNL     1      41.477  -9.306  10.653  1.00  0.00     0.012 A 
HETATM   15  C   UNL     1      40.759  -9.607  11.813  1.00  0.00     0.043 A 
HETATM   16  C   UNL     1      41.329  -9.365  13.059  1.00  0.00     0.116 A 
HETATM   17  F   UNL     1      40.633  -9.645  14.167  1.00  0.00    -0.206 F 
HETATM   18  C   UNL     1      42.606  -8.832  13.170  1.00  0.00     0.043 A 
HETATM   19  C   UNL     1      43.325  -8.530  12.014  1.00  0.00     0.012 A 
ENDBRANCH  12  13
ENDBRANCH   8  12
ENDBRANCH   5   6
ENDBRANCH   2   5
BRANCH   1  20
HETATM   20  C   UNL     1      42.548 -14.073   6.569  1.00  0.00     0.043 A 
HETATM   21  C   UNL     1      42.942 -15.402   6.431  1.00  0.00     0.002 A 
HETATM   22  C   UNL     1      44.302 -16.024   6.436  1.00  0.00     0.276 C 
HETATM   23  C   UNL     1      41.988 -16.412   6.206  1.00  0.00    -0.022 A 
HETATM   24  N   UNL     1      44.125 -17.464   5.928  1.00  0.00    -0.063 N 
HETATM   25  H   UNL     1      44.614 -18.083   6.582  1.00  0.00     0.280 HD
HETATM   26  C   UNL     1      42.637 -17.747   6.063  1.00  0.00     0.274 C 
HETATM   27  C   UNL     1      40.633 -16.136   6.131  1.00  0.00     0.009 A 
HETATM   28  C   UNL     1      40.229 -14.812   6.246  1.00  0.00     0.003 A 
HETATM   29  C   UNL     1      41.176 -13.796   6.446  1.00  0.00     0.030 A 
BRANCH  24  30
HETATM   30  C   UNL     1      44.641 -17.704   4.536  1.00  0.00     0.239 C 
BRANCH  30  31
HETATM   31  C   UNL     1      43.523 -18.026   3.529  1.00  0.00     0.003 C 
HETATM   32  C   UNL     1      43.864 -19.331   2.803  1.00  0.00     0.011 C 
HETATM   33  C   UNL     1      43.299 -16.911   2.506  1.00  0.00     0.011 C 
ENDBRANCH  30  31
ENDBRANCH  24  30
ENDBRANCH   1  20
TORSDOF 7
ENDMDL
