MODEL 1
REMARK VINA RESULT:      -9.3      0.000      0.000
REMARK  2 active torsions:
REMARK  status: ('A' for Active; 'I' for Inactive)
REMARK    1  A    between atoms: C_5  and  C_6 
REMARK    2  A    between atoms: N_12  and  C_13 
ROOT
HETATM    1  C   UNL     1      43.082 -14.541   4.436  1.00  0.00     0.047 A 
HETATM    2  N   UNL     1      43.404 -14.253   5.750  1.00  0.00    -0.344 N 
HETATM    3  C   UNL     1      43.333 -12.979   6.243  1.00  0.00     0.119 A 
HETATM    4  C   UNL     1      42.860 -11.970   5.492  1.00  0.00     0.123 A 
HETATM    5  C   UNL     1      42.835 -10.773   6.346  1.00  0.00     0.280 A 
HETATM    6  O   UNL     1      42.446  -9.672   5.997  1.00  0.00    -0.265 OA
HETATM    7  N   UNL     1      43.331 -11.196   7.589  1.00  0.00    -0.236 N 
HETATM    8  N   UNL     1      43.675 -12.563   7.517  1.00  0.00    -0.179 NA
HETATM    9  C   UNL     1      42.432 -12.206   4.111  1.00  0.00     0.193 A 
HETATM   10  O   UNL     1      41.971 -11.339   3.381  1.00  0.00    -0.287 OA
HETATM   11  C   UNL     1      42.595 -13.601   3.604  1.00  0.00     0.086 A 
HETATM   12  H   UNL     1      43.971 -14.926   6.255  1.00  0.00     0.167 HD
HETATM   13  H   UNL     1      43.184 -13.124   8.214  1.00  0.00     0.155 HD
ENDROOT
BRANCH   1  14
HETATM   14  C   UNL     1      43.265 -15.930   3.973  1.00  0.00    -0.009 A 
HETATM   15  C   UNL     1      43.842 -16.899   4.803  1.00  0.00     0.014 A 
HETATM   16  C   UNL     1      44.007 -18.214   4.355  1.00  0.00     0.007 A 
HETATM   17  C   UNL     1      43.603 -18.581   3.068  1.00  0.00    -0.062 A 
HETATM   18  C   UNL     1      43.753 -19.996   2.593  1.00  0.00     0.048 C 
HETATM   19  C   UNL     1      43.005 -17.621   2.244  1.00  0.00     0.007 A 
HETATM   20  C   UNL     1      42.842 -16.306   2.692  1.00  0.00     0.014 A 
ENDBRANCH   1  14
BRANCH   7  21
HETATM   21  C   UNL     1      43.551 -10.458   8.772  1.00  0.00     0.055 A 
HETATM   22  C   UNL     1      42.506  -9.764   9.401  1.00  0.00     0.034 A 
HETATM   23  C   UNL     1      42.728  -9.044  10.581  1.00  0.00     0.044 A 
HETATM   24  C   UNL     1      43.998  -9.012  11.137  1.00  0.00     0.116 A 
HETATM   25  F   UNL     1      44.212  -8.324  12.266  1.00  0.00    -0.206 F 
HETATM   26  C   UNL     1      45.053  -9.684  10.534  1.00  0.00     0.044 A 
HETATM   27  C   UNL     1      44.829 -10.402   9.355  1.00  0.00     0.034 A 
ENDBRANCH   7  21
TORSDOF 2
ENDMDL
MODEL 2
REMARK VINA RESULT:      -9.2      3.416      8.976
REMARK  2 active torsions:
REMARK  status: ('A' for Active; 'I' for Inactive)
REMARK    1  A    between atoms: C_5  and  C_6 
REMARK    2  A    between atoms: N_12  and  C_13 
ROOT
HETATM    1  C   UNL     1      43.921  -9.813  10.095  1.00  0.00     0.047 A 
HETATM    2  N   UNL     1      43.209 -10.717   9.327  1.00  0.00    -0.344 N 
HETATM    3  C   UNL     1      43.625 -11.080   8.075  1.00  0.00     0.119 A 
HETATM    4  C   UNL     1      44.792 -10.637   7.578  1.00  0.00     0.123 A 
HETATM    5  C   UNL     1      44.973 -11.281   6.268  1.00  0.00     0.280 A 
HETATM    6  O   UNL     1      45.935 -11.124   5.537  1.00  0.00    -0.265 OA
HETATM    7  N   UNL     1      43.834 -12.081   6.090  1.00  0.00    -0.236 N 
HETATM    8  N   UNL     1      42.975 -11.930   7.200  1.00  0.00    -0.179 NA
HETATM    9  C   UNL     1      45.639  -9.731   8.357  1.00  0.00     0.193 A 
HETATM   10  O   UNL     1      46.723  -9.310   7.974  1.00  0.00    -0.287 OA
HETATM   11  C   UNL     1      45.104  -9.316   9.688  1.00  0.00     0.086 A 
HETATM   12  H   UNL     1      42.236 -10.879   9.569  1.00  0.00     0.167 HD
HETATM   13  H   UNL     1      42.772 -12.819   7.658  1.00  0.00     0.155 HD
ENDROOT
BRANCH   1  14
HETATM   14  C   UNL     1      43.353  -9.424  11.400  1.00  0.00    -0.009 A 
HETATM   15  C   UNL     1      43.743  -8.238  12.034  1.00  0.00     0.014 A 
HETATM   16  C   UNL     1      43.195  -7.877  13.269  1.00  0.00     0.007 A 
HETATM   17  C   UNL     1      42.252  -8.699  13.894  1.00  0.00    -0.062 A 
HETATM   18  C   UNL     1      41.641  -8.303  15.206  1.00  0.00     0.048 C 
HETATM   19  C   UNL     1      41.843  -9.874  13.253  1.00  0.00     0.007 A 
HETATM   20  C   UNL     1      42.393 -10.235  12.019  1.00  0.00     0.014 A 
ENDBRANCH   1  14
BRANCH   7  21
HETATM   21  C   UNL     1      43.465 -12.900   5.000  1.00  0.00     0.055 A 
HETATM   22  C   UNL     1      43.380 -12.382   3.698  1.00  0.00     0.034 A 
HETATM   23  C   UNL     1      43.026 -13.201   2.620  1.00  0.00     0.044 A 
HETATM   24  C   UNL     1      42.753 -14.543   2.837  1.00  0.00     0.116 A 
HETATM   25  F   UNL     1      42.414 -15.328   1.806  1.00  0.00    -0.206 F 
HETATM   26  C   UNL     1      42.823 -15.082   4.115  1.00  0.00     0.044 A 
HETATM   27  C   UNL     1      43.176 -14.262   5.191  1.00  0.00     0.034 A 
ENDBRANCH   7  21
TORSDOF 2
ENDMDL
MODEL 3
REMARK VINA RESULT:      -9.1      6.267      8.429
REMARK  2 active torsions:
REMARK  status: ('A' for Active; 'I' for Inactive)
REMARK    1  A    between atoms: C_5  and  C_6 
REMARK    2  A    between atoms: N_12  and  C_13 
ROOT
HETATM    1  C   UNL     1      42.684 -15.960   2.792  1.00  0.00     0.047 A 
HETATM    2  N   UNL     1      41.649 -16.031   1.878  1.00  0.00    -0.344 N 
HETATM    3  C   UNL     1      41.111 -14.907   1.313  1.00  0.00     0.119 A 
HETATM    4  C   UNL     1      41.631 -13.693   1.558  1.00  0.00     0.123 A 
HETATM    5  C   UNL     1      40.883 -12.731   0.732  1.00  0.00     0.280 A 
HETATM    6  O   UNL     1      41.096 -11.532   0.688  1.00  0.00    -0.265 OA
HETATM    7  N   UNL     1      39.931 -13.498   0.044  1.00  0.00    -0.236 N 
HETATM    8  N   UNL     1      40.048 -14.851   0.431  1.00  0.00    -0.179 NA
HETATM    9  C   UNL     1      42.773 -13.538   2.461  1.00  0.00     0.193 A 
HETATM   10  O   UNL     1      43.309 -12.466   2.708  1.00  0.00    -0.287 OA
HETATM   11  C   UNL     1      43.276 -14.790   3.101  1.00  0.00     0.086 A 
HETATM   12  H   UNL     1      41.097 -16.884   1.855  1.00  0.00     0.167 HD
HETATM   13  H   UNL     1      40.216 -15.469  -0.364  1.00  0.00     0.155 HD
ENDROOT
BRANCH   1  14
HETATM   14  C   UNL     1      43.145 -17.219   3.407  1.00  0.00    -0.009 A 
HETATM   15  C   UNL     1      43.357 -17.315   4.789  1.00  0.00     0.014 A 
HETATM   16  C   UNL     1      43.789 -18.515   5.361  1.00  0.00     0.007 A 
HETATM   17  C   UNL     1      44.024 -19.638   4.562  1.00  0.00    -0.062 A 
HETATM   18  C   UNL     1      44.462 -20.935   5.175  1.00  0.00     0.048 C 
HETATM   19  C   UNL     1      43.792 -19.553   3.185  1.00  0.00     0.007 A 
HETATM   20  C   UNL     1      43.361 -18.352   2.613  1.00  0.00     0.014 A 
ENDBRANCH   1  14
BRANCH   7  21
HETATM   21  C   UNL     1      38.930 -13.092  -0.866  1.00  0.00     0.055 A 
HETATM   22  C   UNL     1      38.581 -13.890  -1.966  1.00  0.00     0.034 A 
HETATM   23  C   UNL     1      37.579 -13.489  -2.857  1.00  0.00     0.044 A 
HETATM   24  C   UNL     1      36.923 -12.284  -2.654  1.00  0.00     0.116 A 
HETATM   25  F   UNL     1      35.964 -11.898  -3.506  1.00  0.00    -0.206 F 
HETATM   26  C   UNL     1      37.251 -11.470  -1.579  1.00  0.00     0.044 A 
HETATM   27  C   UNL     1      38.253 -11.873  -0.689  1.00  0.00     0.034 A 
ENDBRANCH   7  21
TORSDOF 2
ENDMDL
MODEL 4
REMARK VINA RESULT:      -8.7      5.629      7.897
REMARK  2 active torsions:
REMARK  status: ('A' for Active; 'I' for Inactive)
REMARK    1  A    between atoms: C_5  and  C_6 
REMARK    2  A    between atoms: N_12  and  C_13 
ROOT
HETATM    1  C   UNL     1      42.873 -15.550   3.185  1.00  0.00     0.047 A 
HETATM    2  N   UNL     1      42.351 -15.386   1.914  1.00  0.00    -0.344 N 
HETATM    3  C   UNL     1      41.890 -14.173   1.479  1.00  0.00     0.119 A 
HETATM    4  C   UNL     1      42.010 -13.073   2.240  1.00  0.00     0.123 A 
HETATM    5  C   UNL     1      41.504 -11.943   1.445  1.00  0.00     0.280 A 
HETATM    6  O   UNL     1      41.476 -10.783   1.817  1.00  0.00    -0.265 OA
HETATM    7  N   UNL     1      41.098 -12.504   0.224  1.00  0.00    -0.236 N 
HETATM    8  N   UNL     1      41.305 -13.900   0.256  1.00  0.00    -0.179 NA
HETATM    9  C   UNL     1      42.615 -13.149   3.572  1.00  0.00     0.193 A 
HETATM   10  O   UNL     1      42.776 -12.183   4.306  1.00  0.00    -0.287 OA
HETATM   11  C   UNL     1      43.038 -14.509   4.022  1.00  0.00     0.086 A 
HETATM   12  H   UNL     1      42.039 -16.217   1.421  1.00  0.00     0.167 HD
HETATM   13  H   UNL     1      41.908 -14.220  -0.502  1.00  0.00     0.155 HD
ENDROOT
BRANCH   1  14
HETATM   14  C   UNL     1      43.271 -16.911   3.592  1.00  0.00    -0.009 A 
HETATM   15  C   UNL     1      43.539 -17.216   4.933  1.00  0.00     0.014 A 
HETATM   16  C   UNL     1      43.911 -18.510   5.308  1.00  0.00     0.007 A 
HETATM   17  C   UNL     1      44.029 -19.521   4.349  1.00  0.00    -0.062 A 
HETATM   18  C   UNL     1      44.402 -20.918   4.750  1.00  0.00     0.048 C 
HETATM   19  C   UNL     1      43.740 -19.226   3.012  1.00  0.00     0.007 A 
HETATM   20  C   UNL     1      43.369 -17.931   2.637  1.00  0.00     0.014 A 
ENDBRANCH   1  14
BRANCH   7  21
HETATM   21  C   UNL     1      40.511 -11.887  -0.902  1.00  0.00     0.055 A 
HETATM   22  C   UNL     1      41.281 -11.135  -1.803  1.00  0.00     0.034 A 
HETATM   23  C   UNL     1      40.696 -10.537  -2.925  1.00  0.00     0.044 A 
HETATM   24  C   UNL     1      39.335 -10.684  -3.150  1.00  0.00     0.116 A 
HETATM   25  F   UNL     1      38.774 -10.113  -4.223  1.00  0.00    -0.206 F 
HETATM   26  C   UNL     1      38.547 -11.417  -2.273  1.00  0.00     0.044 A 
HETATM   27  C   UNL     1      39.133 -12.014  -1.153  1.00  0.00     0.034 A 
ENDBRANCH   7  21
TORSDOF 2
ENDMDL
MODEL 5
REMARK VINA RESULT:      -8.6      3.082      8.500
REMARK  2 active torsions:
REMARK  status: ('A' for Active; 'I' for Inactive)
REMARK    1  A    between atoms: C_5  and  C_6 
REMARK    2  A    between atoms: N_12  and  C_13 
ROOT
HETATM    1  C   UNL     1      43.104 -10.781   7.420  1.00  0.00     0.047 A 
HETATM    2  N   UNL     1      43.356 -12.140   7.356  1.00  0.00    -0.344 N 
HETATM    3  C   UNL     1      43.198 -12.845   6.193  1.00  0.00     0.119 A 
HETATM    4  C   UNL     1      42.876 -12.225   5.045  1.00  0.00     0.123 A 
HETATM    5  C   UNL     1      42.876 -13.250   3.990  1.00  0.00     0.280 A 
HETATM    6  O   UNL     1      42.642 -13.041   2.812  1.00  0.00    -0.265 OA
HETATM    7  N   UNL     1      43.204 -14.450   4.640  1.00  0.00    -0.236 N 
HETATM    8  N   UNL     1      43.371 -14.206   6.021  1.00  0.00    -0.179 NA
HETATM    9  C   UNL     1      42.659 -10.777   5.015  1.00  0.00     0.193 A 
HETATM   10  O   UNL     1      42.388 -10.148   4.000  1.00  0.00    -0.287 OA
HETATM   11  C   UNL     1      42.780 -10.069   6.324  1.00  0.00     0.086 A 
HETATM   12  H   UNL     1      43.368 -12.659   8.227  1.00  0.00     0.167 HD
HETATM   13  H   UNL     1      44.291 -14.489   6.357  1.00  0.00     0.155 HD
ENDROOT
BRANCH   1  14
HETATM   14  C   UNL     1      43.225 -10.122   8.734  1.00  0.00    -0.009 A 
HETATM   15  C   UNL     1      44.363 -10.301   9.531  1.00  0.00     0.014 A 
HETATM   16  C   UNL     1      44.469  -9.668  10.773  1.00  0.00     0.007 A 
HETATM   17  C   UNL     1      43.438  -8.849  11.243  1.00  0.00    -0.062 A 
HETATM   18  C   UNL     1      43.559  -8.146  12.562  1.00  0.00     0.048 C 
HETATM   19  C   UNL     1      42.310  -8.649  10.439  1.00  0.00     0.007 A 
HETATM   20  C   UNL     1      42.203  -9.284   9.198  1.00  0.00     0.014 A 
ENDBRANCH   1  14
BRANCH   7  21
HETATM   21  C   UNL     1      43.320 -15.757   4.119  1.00  0.00     0.055 A 
HETATM   22  C   UNL     1      42.889 -16.062   2.819  1.00  0.00     0.034 A 
HETATM   23  C   UNL     1      43.018 -17.357   2.304  1.00  0.00     0.044 A 
HETATM   24  C   UNL     1      43.576 -18.356   3.088  1.00  0.00     0.116 A 
HETATM   25  F   UNL     1      43.700 -19.595   2.597  1.00  0.00    -0.206 F 
HETATM   26  C   UNL     1      44.006 -18.085   4.380  1.00  0.00     0.044 A 
HETATM   27  C   UNL     1      43.876 -16.790   4.893  1.00  0.00     0.034 A 
ENDBRANCH   7  21
TORSDOF 2
ENDMDL
MODEL 6
REMARK VINA RESULT:      -8.4      5.837      8.750
REMARK  2 active torsions:
REMARK  status: ('A' for Active; 'I' for Inactive)
REMARK    1  A    between atoms: C_5  and  C_6 
REMARK    2  A    between atoms: N_12  and  C_13 
ROOT
HETATM    1  C   UNL     1      39.505 -12.503  -0.266  1.00  0.00     0.047 A 
HETATM    2  N   UNL     1      39.720 -13.799   0.168  1.00  0.00    -0.344 N 
HETATM    3  C   UNL     1      40.783 -14.120   0.969  1.00  0.00     0.119 A 
HETATM    4  C   UNL     1      41.609 -13.170   1.437  1.00  0.00     0.123 A 
HETATM    5  C   UNL     1      42.573 -13.839   2.324  1.00  0.00     0.280 A 
HETATM    6  O   UNL     1      43.464 -13.280   2.939  1.00  0.00    -0.265 OA
HETATM    7  N   UNL     1      42.221 -15.198   2.295  1.00  0.00    -0.236 N 
HETATM    8  N   UNL     1      41.126 -15.380   1.422  1.00  0.00    -0.179 NA
HETATM    9  C   UNL     1      41.409 -11.764   1.079  1.00  0.00     0.193 A 
HETATM   10  O   UNL     1      42.110 -10.848   1.489  1.00  0.00    -0.287 OA
HETATM   11  C   UNL     1      40.275 -11.480   0.150  1.00  0.00     0.086 A 
HETATM   12  H   UNL     1      39.267 -14.549  -0.343  1.00  0.00     0.167 HD
HETATM   13  H   UNL     1      40.329 -15.818   1.885  1.00  0.00     0.155 HD
ENDROOT
BRANCH   1  14
HETATM   14  C   UNL     1      38.379 -12.267  -1.189  1.00  0.00    -0.009 A 
HETATM   15  C   UNL     1      37.917 -13.278  -2.041  1.00  0.00     0.014 A 
HETATM   16  C   UNL     1      36.846 -13.044  -2.909  1.00  0.00     0.007 A 
HETATM   17  C   UNL     1      36.221 -11.793  -2.944  1.00  0.00    -0.062 A 
HETATM   18  C   UNL     1      35.055 -11.546  -3.854  1.00  0.00     0.048 C 
HETATM   19  C   UNL     1      36.665 -10.788  -2.078  1.00  0.00     0.007 A 
HETATM   20  C   UNL     1      37.737 -11.022  -1.212  1.00  0.00     0.014 A 
ENDBRANCH   1  14
BRANCH   7  21
HETATM   21  C   UNL     1      42.821 -16.301   2.940  1.00  0.00     0.055 A 
HETATM   22  C   UNL     1      43.159 -17.463   2.229  1.00  0.00     0.034 A 
HETATM   23  C   UNL     1      43.765 -18.549   2.871  1.00  0.00     0.044 A 
HETATM   24  C   UNL     1      44.033 -18.480   4.230  1.00  0.00     0.116 A 
HETATM   25  F   UNL     1      44.613 -19.519   4.845  1.00  0.00    -0.206 F 
HETATM   26  C   UNL     1      43.704 -17.347   4.961  1.00  0.00     0.044 A 
HETATM   27  C   UNL     1      43.099 -16.263   4.317  1.00  0.00     0.034 A 
ENDBRANCH   7  21
TORSDOF 2
ENDMDL
MODEL 7
REMARK VINA RESULT:      -8.4      2.965      4.407
REMARK  2 active torsions:
REMARK  status: ('A' for Active; 'I' for Inactive)
REMARK    1  A    between atoms: C_5  and  C_6 
REMARK    2  A    between atoms: N_12  and  C_13 
ROOT
HETATM    1  C   UNL     1      44.099 -11.629   6.352  1.00  0.00     0.047 A 
HETATM    2  N   UNL     1      43.210 -11.302   7.361  1.00  0.00    -0.344 N 
HETATM    3  C   UNL     1      43.632 -10.741   8.535  1.00  0.00     0.119 A 
HETATM    4  C   UNL     1      44.919 -10.402   8.718  1.00  0.00     0.123 A 
HETATM    5  C   UNL     1      45.009  -9.750  10.033  1.00  0.00     0.280 A 
HETATM    6  O   UNL     1      46.030  -9.298  10.522  1.00  0.00    -0.265 OA
HETATM    7  N   UNL     1      43.703  -9.770  10.545  1.00  0.00    -0.236 N 
HETATM    8  N   UNL     1      42.848 -10.419   9.627  1.00  0.00    -0.179 NA
HETATM    9  C   UNL     1      45.912 -10.652   7.670  1.00  0.00     0.193 A 
HETATM   10  O   UNL     1      47.094 -10.347   7.762  1.00  0.00    -0.287 OA
HETATM   11  C   UNL     1      45.408 -11.328   6.437  1.00  0.00     0.086 A 
HETATM   12  H   UNL     1      42.298 -11.748   7.349  1.00  0.00     0.167 HD
HETATM   13  H   UNL     1      42.067  -9.828   9.339  1.00  0.00     0.155 HD
ENDROOT
BRANCH   1  14
HETATM   14  C   UNL     1      43.561 -12.303   5.155  1.00  0.00    -0.009 A 
HETATM   15  C   UNL     1      43.559 -11.668   3.906  1.00  0.00     0.014 A 
HETATM   16  C   UNL     1      43.050 -12.319   2.778  1.00  0.00     0.007 A 
HETATM   17  C   UNL     1      42.528 -13.612   2.879  1.00  0.00    -0.062 A 
HETATM   18  C   UNL     1      42.006 -14.323   1.666  1.00  0.00     0.048 C 
HETATM   19  C   UNL     1      42.548 -14.258   4.120  1.00  0.00     0.007 A 
HETATM   20  C   UNL     1      43.056 -13.607   5.249  1.00  0.00     0.014 A 
ENDBRANCH   1  14
BRANCH   7  21
HETATM   21  C   UNL     1      43.210  -9.304  11.784  1.00  0.00     0.055 A 
HETATM   22  C   UNL     1      42.302 -10.063  12.537  1.00  0.00     0.034 A 
HETATM   23  C   UNL     1      41.827  -9.601  13.770  1.00  0.00     0.044 A 
HETATM   24  C   UNL     1      42.255  -8.375  14.255  1.00  0.00     0.116 A 
HETATM   25  F   UNL     1      41.801  -7.932  15.434  1.00  0.00    -0.206 F 
HETATM   26  C   UNL     1      43.147  -7.598  13.529  1.00  0.00     0.044 A 
HETATM   27  C   UNL     1      43.621  -8.061  12.297  1.00  0.00     0.034 A 
ENDBRANCH   7  21
TORSDOF 2
ENDMDL
MODEL 8
REMARK VINA RESULT:      -8.2      3.653      4.670
REMARK  2 active torsions:
REMARK  status: ('A' for Active; 'I' for Inactive)
REMARK    1  A    between atoms: C_5  and  C_6 
REMARK    2  A    between atoms: N_12  and  C_13 
ROOT
HETATM    1  C   UNL     1      42.896 -15.335   4.614  1.00  0.00     0.047 A 
HETATM    2  N   UNL     1      42.030 -14.475   3.963  1.00  0.00    -0.344 N 
HETATM    3  C   UNL     1      41.665 -13.275   4.511  1.00  0.00     0.119 A 
HETATM    4  C   UNL     1      42.206 -12.847   5.664  1.00  0.00     0.123 A 
HETATM    5  C   UNL     1      41.669 -11.500   5.916  1.00  0.00     0.280 A 
HETATM    6  O   UNL     1      41.957 -10.800   6.871  1.00  0.00    -0.265 OA
HETATM    7  N   UNL     1      40.806 -11.240   4.841  1.00  0.00    -0.236 N 
HETATM    8  N   UNL     1      40.775 -12.359   3.981  1.00  0.00    -0.179 NA
HETATM    9  C   UNL     1      43.183 -13.669   6.381  1.00  0.00     0.193 A 
HETATM   10  O   UNL     1      43.730 -13.329   7.421  1.00  0.00    -0.287 OA
HETATM   11  C   UNL     1      43.494 -14.997   5.772  1.00  0.00     0.086 A 
HETATM   12  H   UNL     1      41.442 -14.860   3.231  1.00  0.00     0.167 HD
HETATM   13  H   UNL     1      41.040 -12.122   3.025  1.00  0.00     0.155 HD
ENDROOT
BRANCH   1  14
HETATM   14  C   UNL     1      43.169 -16.640   3.982  1.00  0.00    -0.009 A 
HETATM   15  C   UNL     1      44.002 -17.583   4.599  1.00  0.00     0.014 A 
HETATM   16  C   UNL     1      44.250 -18.818   3.992  1.00  0.00     0.007 A 
HETATM   17  C   UNL     1      43.675 -19.130   2.756  1.00  0.00    -0.062 A 
HETATM   18  C   UNL     1      43.917 -20.465   2.115  1.00  0.00     0.048 C 
HETATM   19  C   UNL     1      42.826 -18.200   2.148  1.00  0.00     0.007 A 
HETATM   20  C   UNL     1      42.579 -16.965   2.754  1.00  0.00     0.014 A 
ENDBRANCH   1  14
BRANCH   7  21
HETATM   21  C   UNL     1      40.002 -10.109   4.581  1.00  0.00     0.055 A 
HETATM   22  C   UNL     1      38.791  -9.906   5.261  1.00  0.00     0.034 A 
HETATM   23  C   UNL     1      38.004  -8.777   5.009  1.00  0.00     0.044 A 
HETATM   24  C   UNL     1      38.422  -7.845   4.071  1.00  0.00     0.116 A 
HETATM   25  F   UNL     1      37.670  -6.763   3.828  1.00  0.00    -0.206 F 
HETATM   26  C   UNL     1      39.611  -8.021   3.378  1.00  0.00     0.044 A 
HETATM   27  C   UNL     1      40.397  -9.151   3.631  1.00  0.00     0.034 A 
ENDBRANCH   7  21
TORSDOF 2
ENDMDL
MODEL 9
REMARK VINA RESULT:      -8.2      5.904      8.875
REMARK  2 active torsions:
REMARK  status: ('A' for Active; 'I' for Inactive)
REMARK    1  A    between atoms: C_5  and  C_6 
REMARK    2  A    between atoms: N_12  and  C_13 
ROOT
HETATM    1  C   UNL     1      40.852 -11.871  -1.345  1.00  0.00     0.047 A 
HETATM    2  N   UNL     1      41.505 -12.149  -0.158  1.00  0.00    -0.344 N 
HETATM    3  C   UNL     1      41.222 -13.271   0.572  1.00  0.00     0.119 A 
HETATM    4  C   UNL     1      40.358 -14.194   0.116  1.00  0.00     0.123 A 
HETATM    5  C   UNL     1      40.355 -15.298   1.089  1.00  0.00     0.280 A 
HETATM    6  O   UNL     1      39.696 -16.318   0.988  1.00  0.00    -0.265 OA
HETATM    7  N   UNL     1      41.255 -14.907   2.093  1.00  0.00    -0.236 N 
HETATM    8  N   UNL     1      41.770 -13.628   1.790  1.00  0.00    -0.179 NA
HETATM    9  C   UNL     1      39.676 -14.008  -1.167  1.00  0.00     0.193 A 
HETATM   10  O   UNL     1      38.897 -14.819  -1.651  1.00  0.00    -0.287 OA
HETATM   11  C   UNL     1      39.973 -12.734  -1.888  1.00  0.00     0.086 A 
HETATM   12  H   UNL     1      41.972 -11.381   0.315  1.00  0.00     0.167 HD
HETATM   13  H   UNL     1      42.789 -13.623   1.733  1.00  0.00     0.155 HD
ENDROOT
BRANCH   1  14
HETATM   14  C   UNL     1      41.168 -10.598  -2.020  1.00  0.00    -0.009 A 
HETATM   15  C   UNL     1      40.720 -10.338  -3.322  1.00  0.00     0.014 A 
HETATM   16  C   UNL     1      41.022  -9.127  -3.950  1.00  0.00     0.007 A 
HETATM   17  C   UNL     1      41.783  -8.156  -3.292  1.00  0.00    -0.062 A 
HETATM   18  C   UNL     1      42.087  -6.844  -3.952  1.00  0.00     0.048 C 
HETATM   19  C   UNL     1      42.214  -8.402  -1.983  1.00  0.00     0.007 A 
HETATM   20  C   UNL     1      41.912  -9.615  -1.356  1.00  0.00     0.014 A 
ENDBRANCH   1  14
BRANCH   7  21
HETATM   21  C   UNL     1      41.622 -15.569   3.284  1.00  0.00     0.055 A 
HETATM   22  C   UNL     1      40.751 -15.625   4.383  1.00  0.00     0.034 A 
HETATM   23  C   UNL     1      41.116 -16.294   5.557  1.00  0.00     0.044 A 
HETATM   24  C   UNL     1      42.357 -16.907   5.640  1.00  0.00     0.116 A 
HETATM   25  F   UNL     1      42.707 -17.547   6.763  1.00  0.00    -0.206 F 
HETATM   26  C   UNL     1      43.242 -16.863   4.572  1.00  0.00     0.044 A 
HETATM   27  C   UNL     1      42.876 -16.195   3.400  1.00  0.00     0.034 A 
ENDBRANCH   7  21
TORSDOF 2
ENDMDL
MODEL 10
REMARK VINA RESULT:      -8.0      5.076      7.205
REMARK  2 active torsions:
REMARK  status: ('A' for Active; 'I' for Inactive)
REMARK    1  A    between atoms: C_5  and  C_6 
REMARK    2  A    between atoms: N_12  and  C_13 
ROOT
HETATM    1  C   UNL     1      42.451 -15.479   4.124  1.00  0.00     0.047 A 
HETATM    2  N   UNL     1      41.513 -15.328   3.118  1.00  0.00    -0.344 N 
HETATM    3  C   UNL     1      40.926 -14.119   2.859  1.00  0.00     0.119 A 
HETATM    4  C   UNL     1      41.305 -13.011   3.517  1.00  0.00     0.123 A 
HETATM    5  C   UNL     1      40.548 -11.889   2.940  1.00  0.00     0.280 A 
HETATM    6  O   UNL     1      40.650 -10.725   3.284  1.00  0.00    -0.265 OA
HETATM    7  N   UNL     1      39.738 -12.462   1.947  1.00  0.00    -0.236 N 
HETATM    8  N   UNL     1      39.947 -13.859   1.919  1.00  0.00    -0.179 NA
HETATM    9  C   UNL     1      42.341 -13.073   4.550  1.00  0.00     0.193 A 
HETATM   10  O   UNL     1      42.749 -12.099   5.169  1.00  0.00    -0.287 OA
HETATM   11  C   UNL     1      42.899 -14.429   4.837  1.00  0.00     0.086 A 
HETATM   12  H   UNL     1      41.049 -16.164   2.776  1.00  0.00     0.167 HD
HETATM   13  H   UNL     1      40.244 -14.189   1.000  1.00  0.00     0.155 HD
ENDROOT
BRANCH   1  14
HETATM   14  C   UNL     1      42.970 -16.836   4.380  1.00  0.00    -0.009 A 
HETATM   15  C   UNL     1      43.446 -17.638   3.334  1.00  0.00     0.014 A 
HETATM   16  C   UNL     1      43.940 -18.921   3.590  1.00  0.00     0.007 A 
HETATM   17  C   UNL     1      43.961 -19.427   4.893  1.00  0.00    -0.062 A 
HETATM   18  C   UNL     1      44.515 -20.792   5.175  1.00  0.00     0.048 C 
HETATM   19  C   UNL     1      43.508 -18.620   5.943  1.00  0.00     0.007 A 
HETATM   20  C   UNL     1      43.013 -17.338   5.687  1.00  0.00     0.014 A 
ENDBRANCH   1  14
BRANCH   7  21
HETATM   21  C   UNL     1      38.790 -11.858   1.094  1.00  0.00     0.055 A 
HETATM   22  C   UNL     1      38.954 -11.870  -0.300  1.00  0.00     0.034 A 
HETATM   23  C   UNL     1      38.004 -11.280  -1.142  1.00  0.00     0.044 A 
HETATM   24  C   UNL     1      36.886 -10.670  -0.594  1.00  0.00     0.116 A 
HETATM   25  F   UNL     1      35.977 -10.105  -1.398  1.00  0.00    -0.206 F 
HETATM   26  C   UNL     1      36.700 -10.636   0.781  1.00  0.00     0.044 A 
HETATM   27  C   UNL     1      37.650 -11.226   1.621  1.00  0.00     0.034 A 
ENDBRANCH   7  21
TORSDOF 2
ENDMDL
