MODEL 1
REMARK VINA RESULT:      -9.8      0.000      0.000
REMARK  5 active torsions:
REMARK  status: ('A' for Active; 'I' for Inactive)
REMARK    1  A    between atoms: N_3  and  C_4 
REMARK    2  A    between atoms: C_6  and  C_7 
REMARK    3  A    between atoms: C_15  and  C_16 
REMARK       I    between atoms: C_16  and  N_17 
REMARK    4  A    between atoms: N_17  and  N_18 
REMARK       I    between atoms: N_18  and  C_19 
REMARK    5  A    between atoms: C_19  and  C_20 
ROOT
HETATM    1  C   UNL     1      43.206 -16.027   1.317  1.00  0.00     0.070 C 
HETATM    2  C   UNL     1      43.242 -15.042   2.463  1.00  0.00     0.036 C 
HETATM    3  N   UNL     1      43.248 -15.491   3.793  1.00  0.00    -0.238 N 
HETATM    4  N   UNL     1      42.971 -14.664   4.858  1.00  0.00    -0.158 NA
HETATM    5  C   UNL     1      42.886 -13.380   4.654  1.00  0.00     0.196 C 
HETATM    6  C   UNL     1      43.106 -12.801   3.284  1.00  0.00     0.209 C 
HETATM    7  O   UNL     1      43.209 -11.593   3.134  1.00  0.00    -0.286 OA
HETATM    8  C   UNL     1      43.175 -13.736   2.160  1.00  0.00     0.084 C 
ENDROOT
BRANCH   5   9
HETATM    9  C   UNL     1      42.549 -12.510   5.856  1.00  0.00     0.294 C 
HETATM   10  N   UNL     1      43.459 -12.541   6.895  1.00  0.00    -0.261 N 
HETATM   11  H   UNL     1      44.407 -12.915   6.776  1.00  0.00     0.190 HD
HETATM   12  O   UNL     1      41.528 -11.831   5.871  1.00  0.00    -0.264 OA
BRANCH  10  13
HETATM   13  N   UNL     1      43.261 -11.649   7.960  1.00  0.00    -0.262 N 
HETATM   14  C   UNL     1      44.344 -10.982   8.490  1.00  0.00     0.286 C 
HETATM   15  O   UNL     1      45.495 -11.209   8.119  1.00  0.00    -0.264 OA
HETATM   16  H   UNL     1      42.299 -11.392   8.168  1.00  0.00     0.190 HD
BRANCH  14  17
HETATM   17  C   UNL     1      44.033  -9.998   9.504  1.00  0.00     0.102 A 
HETATM   18  N   UNL     1      42.840  -9.304   9.486  1.00  0.00    -0.361 N 
HETATM   19  H   UNL     1      42.125  -9.436   8.780  1.00  0.00     0.165 HD
HETATM   20  C   UNL     1      42.780  -8.432  10.539  1.00  0.00     0.088 A 
HETATM   21  C   UNL     1      43.946  -8.556  11.255  1.00  0.00     0.019 A 
HETATM   22  C   UNL     1      44.736  -9.539  10.607  1.00  0.00     0.036 A 
ENDBRANCH  14  17
ENDBRANCH  10  13
ENDBRANCH   5   9
BRANCH   3  23
HETATM   23  C   UNL     1      43.477 -16.845   4.197  1.00  0.00     0.059 A 
HETATM   24  C   UNL     1      43.457 -17.881   3.243  1.00  0.00     0.047 A 
HETATM   25  C   UNL     1      43.656 -19.224   3.605  1.00  0.00     0.050 A 
HETATM   26  C   UNL     1      43.882 -19.536   4.952  1.00  0.00     0.016 A 
HETATM   27  C   UNL     1      43.880 -18.530   5.916  1.00  0.00     0.003 A 
HETATM   28  C   UNL     1      43.669 -17.200   5.541  1.00  0.00     0.031 A 
BRANCH  25  29
HETATM   29  C   UNL     1      43.654 -20.314   2.563  1.00  0.00     0.417 C 
HETATM   30  F   UNL     1      42.464 -20.461   1.920  1.00  0.00    -0.166 F 
HETATM   31  F   UNL     1      44.581 -20.096   1.588  1.00  0.00    -0.166 F 
HETATM   32  F   UNL     1      43.948 -21.539   3.084  1.00  0.00    -0.166 F 
ENDBRANCH  25  29
ENDBRANCH   3  23
TORSDOF 5
ENDMDL
MODEL 2
REMARK VINA RESULT:      -9.6      3.736      7.265
REMARK  5 active torsions:
REMARK  status: ('A' for Active; 'I' for Inactive)
REMARK    1  A    between atoms: N_3  and  C_4 
REMARK    2  A    between atoms: C_6  and  C_7 
REMARK    3  A    between atoms: C_15  and  C_16 
REMARK       I    between atoms: C_16  and  N_17 
REMARK    4  A    between atoms: N_17  and  N_18 
REMARK       I    between atoms: N_18  and  C_19 
REMARK    5  A    between atoms: C_19  and  C_20 
ROOT
HETATM    1  C   UNL     1      44.578 -15.501   6.696  1.00  0.00     0.070 C 
HETATM    2  C   UNL     1      43.356 -15.219   5.852  1.00  0.00     0.036 C 
HETATM    3  N   UNL     1      42.826 -16.208   5.009  1.00  0.00    -0.238 N 
HETATM    4  N   UNL     1      41.927 -15.924   4.004  1.00  0.00    -0.158 NA
HETATM    5  C   UNL     1      41.399 -14.735   3.948  1.00  0.00     0.196 C 
HETATM    6  C   UNL     1      41.745 -13.689   4.971  1.00  0.00     0.209 C 
HETATM    7  O   UNL     1      41.113 -12.645   5.023  1.00  0.00    -0.286 OA
HETATM    8  C   UNL     1      42.863 -13.971   5.873  1.00  0.00     0.084 C 
ENDROOT
BRANCH   5   9
HETATM    9  C   UNL     1      40.434 -14.461   2.804  1.00  0.00     0.294 C 
HETATM   10  N   UNL     1      40.783 -15.000   1.581  1.00  0.00    -0.261 N 
HETATM   11  H   UNL     1      41.495 -15.733   1.493  1.00  0.00     0.190 HD
HETATM   12  O   UNL     1      39.415 -13.804   2.988  1.00  0.00    -0.264 OA
BRANCH  10  13
HETATM   13  N   UNL     1      39.855 -14.892   0.534  1.00  0.00    -0.262 N 
HETATM   14  C   UNL     1      40.042 -13.931  -0.437  1.00  0.00     0.286 C 
HETATM   15  O   UNL     1      40.949 -13.103  -0.367  1.00  0.00    -0.264 OA
HETATM   16  H   UNL     1      39.189 -15.654   0.434  1.00  0.00     0.190 HD
BRANCH  14  17
HETATM   17  C   UNL     1      39.105 -13.968  -1.538  1.00  0.00     0.102 A 
HETATM   18  N   UNL     1      37.920 -13.262  -1.493  1.00  0.00    -0.361 N 
HETATM   19  H   UNL     1      37.638 -12.688  -0.707  1.00  0.00     0.165 HD
HETATM   20  C   UNL     1      37.206 -13.457  -2.644  1.00  0.00     0.088 A 
HETATM   21  C   UNL     1      37.930 -14.300  -3.452  1.00  0.00     0.019 A 
HETATM   22  C   UNL     1      39.125 -14.623  -2.759  1.00  0.00     0.036 A 
ENDBRANCH  14  17
ENDBRANCH  10  13
ENDBRANCH   5   9
BRANCH   3  23
HETATM   23  C   UNL     1      43.188 -17.592   5.043  1.00  0.00     0.059 A 
HETATM   24  C   UNL     1      43.343 -18.313   3.843  1.00  0.00     0.047 A 
HETATM   25  C   UNL     1      43.676 -19.678   3.837  1.00  0.00     0.050 A 
HETATM   26  C   UNL     1      43.862 -20.334   5.060  1.00  0.00     0.016 A 
HETATM   27  C   UNL     1      43.689 -19.647   6.260  1.00  0.00     0.003 A 
HETATM   28  C   UNL     1      43.345 -18.292   6.249  1.00  0.00     0.031 A 
BRANCH  25  29
HETATM   29  C   UNL     1      43.860 -20.424   2.539  1.00  0.00     0.417 C 
HETATM   30  F   UNL     1      44.703 -19.810   1.665  1.00  0.00    -0.166 F 
HETATM   31  F   UNL     1      44.366 -21.674   2.731  1.00  0.00    -0.166 F 
HETATM   32  F   UNL     1      42.688 -20.599   1.864  1.00  0.00    -0.166 F 
ENDBRANCH  25  29
ENDBRANCH   3  23
TORSDOF 5
ENDMDL
MODEL 3
REMARK VINA RESULT:      -9.4      3.738      7.368
REMARK  5 active torsions:
REMARK  status: ('A' for Active; 'I' for Inactive)
REMARK    1  A    between atoms: N_3  and  C_4 
REMARK    2  A    between atoms: C_6  and  C_7 
REMARK    3  A    between atoms: C_15  and  C_16 
REMARK       I    between atoms: C_16  and  N_17 
REMARK    4  A    between atoms: N_17  and  N_18 
REMARK       I    between atoms: N_18  and  C_19 
REMARK    5  A    between atoms: C_19  and  C_20 
ROOT
HETATM    1  C   UNL     1      44.182 -13.292   6.774  1.00  0.00     0.070 C 
HETATM    2  C   UNL     1      42.992 -13.178   5.849  1.00  0.00     0.036 C 
HETATM    3  N   UNL     1      42.515 -14.301   5.156  1.00  0.00    -0.238 N 
HETATM    4  N   UNL     1      41.654 -14.202   4.085  1.00  0.00    -0.158 NA
HETATM    5  C   UNL     1      41.108 -13.050   3.819  1.00  0.00     0.196 C 
HETATM    6  C   UNL     1      41.392 -11.847   4.673  1.00  0.00     0.209 C 
HETATM    7  O   UNL     1      40.741 -10.823   4.534  1.00  0.00    -0.286 OA
HETATM    8  C   UNL     1      42.476 -11.955   5.651  1.00  0.00     0.084 C 
ENDROOT
BRANCH   5   9
HETATM    9  C   UNL     1      40.187 -12.985   2.609  1.00  0.00     0.294 C 
HETATM   10  N   UNL     1      40.796 -12.696   1.404  1.00  0.00    -0.261 N 
HETATM   11  H   UNL     1      41.813 -12.767   1.278  1.00  0.00     0.190 HD
HETATM   12  O   UNL     1      38.983 -13.186   2.727  1.00  0.00    -0.264 OA
BRANCH  10  13
HETATM   13  N   UNL     1      40.010 -12.765   0.244  1.00  0.00    -0.262 N 
HETATM   14  C   UNL     1      39.942 -13.952  -0.455  1.00  0.00     0.286 C 
HETATM   15  O   UNL     1      40.621 -14.930  -0.145  1.00  0.00    -0.264 OA
HETATM   16  H   UNL     1      39.373 -11.990   0.077  1.00  0.00     0.190 HD
BRANCH  14  17
HETATM   17  C   UNL     1      39.019 -13.966  -1.568  1.00  0.00     0.102 A 
HETATM   18  N   UNL     1      37.841 -13.248  -1.530  1.00  0.00    -0.361 N 
HETATM   19  H   UNL     1      37.556 -12.680  -0.741  1.00  0.00     0.165 HD
HETATM   20  C   UNL     1      37.139 -13.423  -2.691  1.00  0.00     0.088 A 
HETATM   21  C   UNL     1      37.864 -14.265  -3.499  1.00  0.00     0.019 A 
HETATM   22  C   UNL     1      39.046 -14.609  -2.796  1.00  0.00     0.036 A 
ENDBRANCH  14  17
ENDBRANCH  10  13
ENDBRANCH   5   9
BRANCH   3  23
HETATM   23  C   UNL     1      42.900 -15.653   5.425  1.00  0.00     0.059 A 
HETATM   24  C   UNL     1      43.133 -16.547   4.362  1.00  0.00     0.047 A 
HETATM   25  C   UNL     1      43.492 -17.887   4.587  1.00  0.00     0.050 A 
HETATM   26  C   UNL     1      43.621 -18.340   5.906  1.00  0.00     0.016 A 
HETATM   27  C   UNL     1      43.368 -17.480   6.973  1.00  0.00     0.003 A 
HETATM   28  C   UNL     1      43.001 -16.153   6.732  1.00  0.00     0.031 A 
BRANCH  25  29
HETATM   29  C   UNL     1      43.761 -18.820   3.433  1.00  0.00     0.417 C 
HETATM   30  F   UNL     1      43.780 -20.135   3.780  1.00  0.00    -0.166 F 
HETATM   31  F   UNL     1      42.824 -18.706   2.451  1.00  0.00    -0.166 F 
HETATM   32  F   UNL     1      44.960 -18.577   2.831  1.00  0.00    -0.166 F 
ENDBRANCH  25  29
ENDBRANCH   3  23
TORSDOF 5
ENDMDL
MODEL 4
REMARK VINA RESULT:      -9.3      1.564      2.184
REMARK  5 active torsions:
REMARK  status: ('A' for Active; 'I' for Inactive)
REMARK    1  A    between atoms: N_3  and  C_4 
REMARK    2  A    between atoms: C_6  and  C_7 
REMARK    3  A    between atoms: C_15  and  C_16 
REMARK       I    between atoms: C_16  and  N_17 
REMARK    4  A    between atoms: N_17  and  N_18 
REMARK       I    between atoms: N_18  and  C_19 
REMARK    5  A    between atoms: C_19  and  C_20 
ROOT
HETATM    1  C   UNL     1      41.390 -14.935   3.071  1.00  0.00     0.070 C 
HETATM    2  C   UNL     1      42.133 -14.024   4.021  1.00  0.00     0.036 C 
HETATM    3  N   UNL     1      42.817 -14.549   5.128  1.00  0.00    -0.238 N 
HETATM    4  N   UNL     1      43.240 -13.768   6.180  1.00  0.00    -0.158 NA
HETATM    5  C   UNL     1      43.177 -12.472   6.068  1.00  0.00     0.196 C 
HETATM    6  C   UNL     1      42.672 -11.831   4.805  1.00  0.00     0.209 C 
HETATM    7  O   UNL     1      42.788 -10.627   4.635  1.00  0.00    -0.286 OA
HETATM    8  C   UNL     1      42.033 -12.701   3.816  1.00  0.00     0.084 C 
ENDROOT
BRANCH   5   9
HETATM    9  C   UNL     1      43.628 -11.652   7.268  1.00  0.00     0.294 C 
HETATM   10  N   UNL     1      42.722 -10.718   7.733  1.00  0.00    -0.261 N 
HETATM   11  H   UNL     1      41.732 -10.740   7.462  1.00  0.00     0.190 HD
HETATM   12  O   UNL     1      44.731 -11.834   7.772  1.00  0.00    -0.264 OA
BRANCH  10  13
HETATM   13  N   UNL     1      43.038 -10.040   8.919  1.00  0.00    -0.262 N 
HETATM   14  C   UNL     1      42.057  -9.318   9.565  1.00  0.00     0.286 C 
HETATM   15  O   UNL     1      40.933  -9.174   9.087  1.00  0.00    -0.264 OA
HETATM   16  H   UNL     1      43.930 -10.268   9.353  1.00  0.00     0.190 HD
BRANCH  14  17
HETATM   17  C   UNL     1      42.439  -8.749  10.839  1.00  0.00     0.102 A 
HETATM   18  N   UNL     1      41.595  -7.901  11.526  1.00  0.00    -0.361 N 
HETATM   19  H   UNL     1      40.678  -7.629  11.191  1.00  0.00     0.165 HD
HETATM   20  C   UNL     1      42.177  -7.494  12.696  1.00  0.00     0.088 A 
HETATM   21  C   UNL     1      43.416  -8.082  12.776  1.00  0.00     0.019 A 
HETATM   22  C   UNL     1      43.585  -8.872  11.610  1.00  0.00     0.036 A 
ENDBRANCH  14  17
ENDBRANCH  10  13
ENDBRANCH   5   9
BRANCH   3  23
HETATM   23  C   UNL     1      43.102 -15.938   5.329  1.00  0.00     0.059 A 
HETATM   24  C   UNL     1      43.306 -16.785   4.223  1.00  0.00     0.047 A 
HETATM   25  C   UNL     1      43.566 -18.157   4.379  1.00  0.00     0.050 A 
HETATM   26  C   UNL     1      43.626 -18.691   5.673  1.00  0.00     0.016 A 
HETATM   27  C   UNL     1      43.401 -17.876   6.781  1.00  0.00     0.003 A 
HETATM   28  C   UNL     1      43.132 -16.515   6.607  1.00  0.00     0.031 A 
BRANCH  25  29
HETATM   29  C   UNL     1      43.805 -19.041   3.181  1.00  0.00     0.417 C 
HETATM   30  F   UNL     1      42.833 -18.959   2.232  1.00  0.00    -0.166 F 
HETATM   31  F   UNL     1      44.974 -18.742   2.546  1.00  0.00    -0.166 F 
HETATM   32  F   UNL     1      43.891 -20.361   3.511  1.00  0.00    -0.166 F 
ENDBRANCH  25  29
ENDBRANCH   3  23
TORSDOF 5
ENDMDL
MODEL 5
REMARK VINA RESULT:      -9.2      5.148      9.077
REMARK  5 active torsions:
REMARK  status: ('A' for Active; 'I' for Inactive)
REMARK    1  A    between atoms: N_3  and  C_4 
REMARK    2  A    between atoms: C_6  and  C_7 
REMARK    3  A    between atoms: C_15  and  C_16 
REMARK       I    between atoms: C_16  and  N_17 
REMARK    4  A    between atoms: N_17  and  N_18 
REMARK       I    between atoms: N_18  and  C_19 
REMARK    5  A    between atoms: C_19  and  C_20 
ROOT
HETATM    1  C   UNL     1      43.257 -15.347   7.781  1.00  0.00     0.070 C 
HETATM    2  C   UNL     1      43.088 -15.432   6.282  1.00  0.00     0.036 C 
HETATM    3  N   UNL     1      42.834 -14.279   5.523  1.00  0.00    -0.238 N 
HETATM    4  N   UNL     1      42.371 -14.328   4.228  1.00  0.00    -0.158 NA
HETATM    5  C   UNL     1      42.345 -15.475   3.610  1.00  0.00     0.196 C 
HETATM    6  C   UNL     1      42.831 -16.726   4.288  1.00  0.00     0.209 C 
HETATM    7  O   UNL     1      42.978 -17.757   3.649  1.00  0.00    -0.286 OA
HETATM    8  C   UNL     1      43.100 -16.654   5.725  1.00  0.00     0.084 C 
ENDROOT
BRANCH   5   9
HETATM    9  C   UNL     1      41.798 -15.484   2.191  1.00  0.00     0.294 C 
HETATM   10  N   UNL     1      40.431 -15.323   2.072  1.00  0.00    -0.261 N 
HETATM   11  H   UNL     1      39.856 -14.975   2.847  1.00  0.00     0.190 HD
HETATM   12  O   UNL     1      42.549 -15.622   1.231  1.00  0.00    -0.264 OA
BRANCH  10  13
HETATM   13  N   UNL     1      39.902 -15.184   0.780  1.00  0.00    -0.262 N 
HETATM   14  C   UNL     1      39.696 -13.920   0.269  1.00  0.00     0.286 C 
HETATM   15  O   UNL     1      39.877 -12.907   0.943  1.00  0.00    -0.264 OA
HETATM   16  H   UNL     1      39.873 -16.022   0.205  1.00  0.00     0.190 HD
BRANCH  14  17
HETATM   17  C   UNL     1      39.260 -13.870  -1.109  1.00  0.00     0.102 A 
HETATM   18  N   UNL     1      37.981 -13.471  -1.441  1.00  0.00    -0.361 N 
HETATM   19  H   UNL     1      37.284 -13.196  -0.758  1.00  0.00     0.165 HD
HETATM   20  C   UNL     1      37.806 -13.509  -2.797  1.00  0.00     0.088 A 
HETATM   21  C   UNL     1      38.984 -13.938  -3.361  1.00  0.00     0.019 A 
HETATM   22  C   UNL     1      39.900 -14.166  -2.303  1.00  0.00     0.036 A 
ENDBRANCH  14  17
ENDBRANCH  10  13
ENDBRANCH   5   9
BRANCH   3  23
HETATM   23  C   UNL     1      42.962 -12.938   6.007  1.00  0.00     0.059 A 
HETATM   24  C   UNL     1      44.195 -12.484   6.515  1.00  0.00     0.047 A 
HETATM   25  C   UNL     1      44.354 -11.182   7.019  1.00  0.00     0.050 A 
HETATM   26  C   UNL     1      43.254 -10.315   7.011  1.00  0.00     0.016 A 
HETATM   27  C   UNL     1      42.018 -10.751   6.538  1.00  0.00     0.003 A 
HETATM   28  C   UNL     1      41.874 -12.054   6.051  1.00  0.00     0.031 A 
BRANCH  25  29
HETATM   29  C   UNL     1      45.690 -10.709   7.535  1.00  0.00     0.417 C 
HETATM   30  F   UNL     1      46.755 -11.218   6.857  1.00  0.00    -0.166 F 
HETATM   31  F   UNL     1      45.817  -9.354   7.468  1.00  0.00    -0.166 F 
HETATM   32  F   UNL     1      45.892 -11.036   8.844  1.00  0.00    -0.166 F 
ENDBRANCH  25  29
ENDBRANCH   3  23
TORSDOF 5
ENDMDL
MODEL 6
REMARK VINA RESULT:      -9.1      1.897      2.546
REMARK  5 active torsions:
REMARK  status: ('A' for Active; 'I' for Inactive)
REMARK    1  A    between atoms: N_3  and  C_4 
REMARK    2  A    between atoms: C_6  and  C_7 
REMARK    3  A    between atoms: C_15  and  C_16 
REMARK       I    between atoms: C_16  and  N_17 
REMARK    4  A    between atoms: N_17  and  N_18 
REMARK       I    between atoms: N_18  and  C_19 
REMARK    5  A    between atoms: C_19  and  C_20 
ROOT
HETATM    1  C   UNL     1      41.461 -14.006   1.307  1.00  0.00     0.070 C 
HETATM    2  C   UNL     1      42.178 -13.423   2.504  1.00  0.00     0.036 C 
HETATM    3  N   UNL     1      42.790 -14.261   3.449  1.00  0.00    -0.238 N 
HETATM    4  N   UNL     1      43.178 -13.818   4.694  1.00  0.00    -0.158 NA
HETATM    5  C   UNL     1      43.156 -12.540   4.944  1.00  0.00     0.196 C 
HETATM    6  C   UNL     1      42.733 -11.556   3.889  1.00  0.00     0.209 C 
HETATM    7  O   UNL     1      42.890 -10.357   4.065  1.00  0.00    -0.286 OA
HETATM    8  C   UNL     1      42.124 -12.092   2.671  1.00  0.00     0.084 C 
ENDROOT
BRANCH   5   9
HETATM    9  C   UNL     1      43.565 -12.102   6.342  1.00  0.00     0.294 C 
HETATM   10  N   UNL     1      42.757 -11.153   6.936  1.00  0.00    -0.261 N 
HETATM   11  H   UNL     1      41.818 -10.939   6.581  1.00  0.00     0.190 HD
HETATM   12  O   UNL     1      44.555 -12.583   6.885  1.00  0.00    -0.264 OA
BRANCH  10  13
HETATM   13  N   UNL     1      43.015 -10.825   8.276  1.00  0.00    -0.262 N 
HETATM   14  C   UNL     1      42.622  -9.594   8.756  1.00  0.00     0.286 C 
HETATM   15  O   UNL     1      42.131  -8.735   8.024  1.00  0.00    -0.264 OA
HETATM   16  H   UNL     1      43.310 -11.585   8.884  1.00  0.00     0.190 HD
BRANCH  14  17
HETATM   17  C   UNL     1      42.821  -9.386  10.173  1.00  0.00     0.102 A 
HETATM   18  N   UNL     1      42.416 -10.326  11.099  1.00  0.00    -0.361 N 
HETATM   19  H   UNL     1      41.964 -11.199  10.851  1.00  0.00     0.165 HD
HETATM   20  C   UNL     1      42.709  -9.904  12.367  1.00  0.00     0.088 A 
HETATM   21  C   UNL     1      43.312  -8.673  12.272  1.00  0.00     0.019 A 
HETATM   22  C   UNL     1      43.385  -8.344  10.894  1.00  0.00     0.036 A 
ENDBRANCH  14  17
ENDBRANCH  10  13
ENDBRANCH   5   9
BRANCH   3  23
HETATM   23  C   UNL     1      43.027 -15.661   3.268  1.00  0.00     0.059 A 
HETATM   24  C   UNL     1      43.339 -16.474   4.375  1.00  0.00     0.047 A 
HETATM   25  C   UNL     1      43.599 -17.848   4.235  1.00  0.00     0.050 A 
HETATM   26  C   UNL     1      43.543 -18.420   2.957  1.00  0.00     0.016 A 
HETATM   27  C   UNL     1      43.263 -17.629   1.845  1.00  0.00     0.003 A 
HETATM   28  C   UNL     1      43.018 -16.261   2.000  1.00  0.00     0.031 A 
BRANCH  25  29
HETATM   29  C   UNL     1      43.907 -18.704   5.438  1.00  0.00     0.417 C 
HETATM   30  F   UNL     1      42.857 -19.459   5.860  1.00  0.00    -0.166 F 
HETATM   31  F   UNL     1      44.925 -19.577   5.200  1.00  0.00    -0.166 F 
HETATM   32  F   UNL     1      44.295 -17.969   6.519  1.00  0.00    -0.166 F 
ENDBRANCH  25  29
ENDBRANCH   3  23
TORSDOF 5
ENDMDL
MODEL 7
REMARK VINA RESULT:      -9.1      5.013      8.976
REMARK  5 active torsions:
REMARK  status: ('A' for Active; 'I' for Inactive)
REMARK    1  A    between atoms: N_3  and  C_4 
REMARK    2  A    between atoms: C_6  and  C_7 
REMARK    3  A    between atoms: C_15  and  C_16 
REMARK       I    between atoms: C_16  and  N_17 
REMARK    4  A    between atoms: N_17  and  N_18 
REMARK       I    between atoms: N_18  and  C_19 
REMARK    5  A    between atoms: C_19  and  C_20 
ROOT
HETATM    1  C   UNL     1      42.004  -9.202   5.380  1.00  0.00     0.070 C 
HETATM    2  C   UNL     1      41.781 -10.697   5.331  1.00  0.00     0.036 C 
HETATM    3  N   UNL     1      42.725 -11.579   5.878  1.00  0.00    -0.238 N 
HETATM    4  N   UNL     1      42.732 -12.927   5.595  1.00  0.00    -0.158 NA
HETATM    5  C   UNL     1      41.723 -13.443   4.953  1.00  0.00     0.196 C 
HETATM    6  C   UNL     1      40.555 -12.591   4.542  1.00  0.00     0.209 C 
HETATM    7  O   UNL     1      39.536 -13.108   4.110  1.00  0.00    -0.286 OA
HETATM    8  C   UNL     1      40.700 -11.140   4.669  1.00  0.00     0.084 C 
ENDROOT
BRANCH   5   9
HETATM    9  C   UNL     1      41.791 -14.930   4.639  1.00  0.00     0.294 C 
HETATM   10  N   UNL     1      42.826 -15.324   3.813  1.00  0.00    -0.261 N 
HETATM   11  H   UNL     1      43.632 -14.717   3.625  1.00  0.00     0.190 HD
HETATM   12  O   UNL     1      40.967 -15.708   5.108  1.00  0.00    -0.264 OA
BRANCH  10  13
HETATM   13  N   UNL     1      43.010 -16.700   3.611  1.00  0.00    -0.262 N 
HETATM   14  C   UNL     1      43.853 -17.397   4.450  1.00  0.00     0.286 C 
HETATM   15  O   UNL     1      44.520 -16.835   5.318  1.00  0.00    -0.264 OA
HETATM   16  H   UNL     1      42.366 -17.158   2.972  1.00  0.00     0.190 HD
BRANCH  14  17
HETATM   17  C   UNL     1      43.893 -18.828   4.243  1.00  0.00     0.102 A 
HETATM   18  N   UNL     1      43.964 -19.704   5.308  1.00  0.00    -0.361 N 
HETATM   19  H   UNL     1      43.993 -19.407   6.277  1.00  0.00     0.165 HD
HETATM   20  C   UNL     1      43.993 -20.996   4.861  1.00  0.00     0.088 A 
HETATM   21  C   UNL     1      43.940 -20.968   3.488  1.00  0.00     0.019 A 
HETATM   22  C   UNL     1      43.877 -19.607   3.097  1.00  0.00     0.036 A 
ENDBRANCH  14  17
ENDBRANCH  10  13
ENDBRANCH   5   9
BRANCH   3  23
HETATM   23  C   UNL     1      43.809 -11.193   6.728  1.00  0.00     0.059 A 
HETATM   24  C   UNL     1      43.552 -10.710   8.026  1.00  0.00     0.047 A 
HETATM   25  C   UNL     1      44.589 -10.301   8.882  1.00  0.00     0.050 A 
HETATM   26  C   UNL     1      45.912 -10.379   8.428  1.00  0.00     0.016 A 
HETATM   27  C   UNL     1      46.187 -10.828   7.138  1.00  0.00     0.003 A 
HETATM   28  C   UNL     1      45.143 -11.221   6.295  1.00  0.00     0.031 A 
BRANCH  25  29
HETATM   29  C   UNL     1      44.292  -9.811  10.277  1.00  0.00     0.417 C 
HETATM   30  F   UNL     1      43.375  -8.807  10.326  1.00  0.00    -0.166 F 
HETATM   31  F   UNL     1      43.805 -10.800  11.077  1.00  0.00    -0.166 F 
HETATM   32  F   UNL     1      45.400  -9.333  10.912  1.00  0.00    -0.166 F 
ENDBRANCH  25  29
ENDBRANCH   3  23
TORSDOF 5
ENDMDL
MODEL 8
REMARK VINA RESULT:      -9.0      4.011      7.314
REMARK  5 active torsions:
REMARK  status: ('A' for Active; 'I' for Inactive)
REMARK    1  A    between atoms: N_3  and  C_4 
REMARK    2  A    between atoms: C_6  and  C_7 
REMARK    3  A    between atoms: C_15  and  C_16 
REMARK       I    between atoms: C_16  and  N_17 
REMARK    4  A    between atoms: N_17  and  N_18 
REMARK       I    between atoms: N_18  and  C_19 
REMARK    5  A    between atoms: C_19  and  C_20 
ROOT
HETATM    1  C   UNL     1      44.023 -15.584   6.452  1.00  0.00     0.070 C 
HETATM    2  C   UNL     1      42.811 -15.057   5.717  1.00  0.00     0.036 C 
HETATM    3  N   UNL     1      42.406 -15.630   4.502  1.00  0.00    -0.238 N 
HETATM    4  N   UNL     1      41.521 -15.011   3.647  1.00  0.00    -0.158 NA
HETATM    5  C   UNL     1      40.887 -13.949   4.056  1.00  0.00     0.196 C 
HETATM    6  C   UNL     1      41.097 -13.414   5.444  1.00  0.00     0.209 C 
HETATM    7  O   UNL     1      40.369 -12.536   5.884  1.00  0.00    -0.286 OA
HETATM    8  C   UNL     1      42.203 -13.973   6.223  1.00  0.00     0.084 C 
ENDROOT
BRANCH   5   9
HETATM    9  C   UNL     1      39.943 -13.284   3.066  1.00  0.00     0.294 C 
HETATM   10  N   UNL     1      40.313 -13.360   1.737  1.00  0.00    -0.261 N 
HETATM   11  H   UNL     1      41.027 -14.021   1.409  1.00  0.00     0.190 HD
HETATM   12  O   UNL     1      38.920 -12.727   3.452  1.00  0.00    -0.264 OA
BRANCH  10  13
HETATM   13  N   UNL     1      39.404 -12.885   0.780  1.00  0.00    -0.262 N 
HETATM   14  C   UNL     1      39.478 -13.358  -0.513  1.00  0.00     0.286 C 
HETATM   15  O   UNL     1      40.374 -14.118  -0.879  1.00  0.00    -0.264 OA
HETATM   16  H   UNL     1      38.609 -12.356   1.128  1.00  0.00     0.190 HD
BRANCH  14  17
HETATM   17  C   UNL     1      38.432 -12.905  -1.403  1.00  0.00     0.102 A 
HETATM   18  N   UNL     1      37.922 -11.625  -1.314  1.00  0.00    -0.361 N 
HETATM   19  H   UNL     1      38.240 -10.940  -0.639  1.00  0.00     0.165 HD
HETATM   20  C   UNL     1      36.946 -11.436  -2.254  1.00  0.00     0.088 A 
HETATM   21  C   UNL     1      36.814 -12.604  -2.966  1.00  0.00     0.019 A 
HETATM   22  C   UNL     1      37.746 -13.529  -2.433  1.00  0.00     0.036 A 
ENDBRANCH  14  17
ENDBRANCH  10  13
ENDBRANCH   5   9
BRANCH   3  23
HETATM   23  C   UNL     1      42.894 -16.870   3.980  1.00  0.00     0.059 A 
HETATM   24  C   UNL     1      43.164 -17.946   4.848  1.00  0.00     0.047 A 
HETATM   25  C   UNL     1      43.665 -19.171   4.376  1.00  0.00     0.050 A 
HETATM   26  C   UNL     1      43.897 -19.322   3.003  1.00  0.00     0.016 A 
HETATM   27  C   UNL     1      43.663 -18.262   2.129  1.00  0.00     0.003 A 
HETATM   28  C   UNL     1      43.176 -17.046   2.617  1.00  0.00     0.031 A 
BRANCH  25  29
HETATM   29  C   UNL     1      43.923 -20.317   5.321  1.00  0.00     0.417 C 
HETATM   30  F   UNL     1      43.635 -20.036   6.621  1.00  0.00    -0.166 F 
HETATM   31  F   UNL     1      43.189 -21.420   5.005  1.00  0.00    -0.166 F 
HETATM   32  F   UNL     1      45.225 -20.723   5.309  1.00  0.00    -0.166 F 
ENDBRANCH  25  29
ENDBRANCH   3  23
TORSDOF 5
ENDMDL
MODEL 9
REMARK VINA RESULT:      -8.9      5.151      9.339
REMARK  5 active torsions:
REMARK  status: ('A' for Active; 'I' for Inactive)
REMARK    1  A    between atoms: N_3  and  C_4 
REMARK    2  A    between atoms: C_6  and  C_7 
REMARK    3  A    between atoms: C_15  and  C_16 
REMARK       I    between atoms: C_16  and  N_17 
REMARK    4  A    between atoms: N_17  and  N_18 
REMARK       I    between atoms: N_18  and  C_19 
REMARK    5  A    between atoms: C_19  and  C_20 
ROOT
HETATM    1  C   UNL     1      41.997  -7.353   7.111  1.00  0.00     0.070 C 
HETATM    2  C   UNL     1      42.011  -8.710   6.445  1.00  0.00     0.036 C 
HETATM    3  N   UNL     1      42.886  -9.715   6.887  1.00  0.00    -0.238 N 
HETATM    4  N   UNL     1      43.163 -10.839   6.142  1.00  0.00    -0.158 NA
HETATM    5  C   UNL     1      42.453 -11.082   5.078  1.00  0.00     0.196 C 
HETATM    6  C   UNL     1      41.332 -10.165   4.674  1.00  0.00     0.209 C 
HETATM    7  O   UNL     1      40.555 -10.492   3.790  1.00  0.00    -0.286 OA
HETATM    8  C   UNL     1      41.228  -8.880   5.368  1.00  0.00     0.084 C 
ENDROOT
BRANCH   5   9
HETATM    9  C   UNL     1      42.816 -12.320   4.272  1.00  0.00     0.294 C 
HETATM   10  N   UNL     1      42.460 -13.530   4.834  1.00  0.00    -0.261 N 
HETATM   11  H   UNL     1      41.784 -13.593   5.605  1.00  0.00     0.190 HD
HETATM   12  O   UNL     1      43.386 -12.219   3.190  1.00  0.00    -0.264 OA
BRANCH  10  13
HETATM   13  N   UNL     1      42.648 -14.687   4.063  1.00  0.00    -0.262 N 
HETATM   14  C   UNL     1      43.231 -15.795   4.641  1.00  0.00     0.286 C 
HETATM   15  O   UNL     1      43.674 -15.774   5.788  1.00  0.00    -0.264 OA
HETATM   16  H   UNL     1      42.172 -14.720   3.165  1.00  0.00     0.190 HD
BRANCH  14  17
HETATM   17  C   UNL     1      43.279 -16.977   3.810  1.00  0.00     0.102 A 
HETATM   18  N   UNL     1      44.123 -18.028   4.108  1.00  0.00    -0.361 N 
HETATM   19  H   UNL     1      44.747 -18.037   4.906  1.00  0.00     0.165 HD
HETATM   20  C   UNL     1      43.991 -19.024   3.179  1.00  0.00     0.088 A 
HETATM   21  C   UNL     1      43.050 -18.622   2.262  1.00  0.00     0.019 A 
HETATM   22  C   UNL     1      42.600 -17.336   2.655  1.00  0.00     0.036 A 
ENDBRANCH  14  17
ENDBRANCH  10  13
ENDBRANCH   5   9
BRANCH   3  23
HETATM   23  C   UNL     1      43.630  -9.671   8.109  1.00  0.00     0.059 A 
HETATM   24  C   UNL     1      42.974  -9.851   9.343  1.00  0.00     0.047 A 
HETATM   25  C   UNL     1      43.666  -9.794  10.564  1.00  0.00     0.050 A 
HETATM   26  C   UNL     1      45.046  -9.553  10.549  1.00  0.00     0.016 A 
HETATM   27  C   UNL     1      45.711  -9.346   9.342  1.00  0.00     0.003 A 
HETATM   28  C   UNL     1      45.005  -9.395   8.136  1.00  0.00     0.031 A 
BRANCH  25  29
HETATM   29  C   UNL     1      42.947 -10.013  11.872  1.00  0.00     0.417 C 
HETATM   30  F   UNL     1      42.954  -8.929  12.694  1.00  0.00    -0.166 F 
HETATM   31  F   UNL     1      41.636 -10.336  11.690  1.00  0.00    -0.166 F 
HETATM   32  F   UNL     1      43.482 -11.035  12.600  1.00  0.00    -0.166 F 
ENDBRANCH  25  29
ENDBRANCH   3  23
TORSDOF 5
ENDMDL
MODEL 10
REMARK VINA RESULT:      -8.7      2.627      3.697
REMARK  5 active torsions:
REMARK  status: ('A' for Active; 'I' for Inactive)
REMARK    1  A    between atoms: N_3  and  C_4 
REMARK    2  A    between atoms: C_6  and  C_7 
REMARK    3  A    between atoms: C_15  and  C_16 
REMARK       I    between atoms: C_16  and  N_17 
REMARK    4  A    between atoms: N_17  and  N_18 
REMARK       I    between atoms: N_18  and  C_19 
REMARK    5  A    between atoms: C_19  and  C_20 
ROOT
HETATM    1  C   UNL     1      39.305 -13.519   2.558  1.00  0.00     0.070 C 
HETATM    2  C   UNL     1      40.118 -12.628   3.469  1.00  0.00     0.036 C 
HETATM    3  N   UNL     1      41.374 -13.041   3.939  1.00  0.00    -0.238 N 
HETATM    4  N   UNL     1      42.011 -12.428   4.996  1.00  0.00    -0.158 NA
HETATM    5  C   UNL     1      41.530 -11.310   5.459  1.00  0.00     0.196 C 
HETATM    6  C   UNL     1      40.312 -10.681   4.843  1.00  0.00     0.209 C 
HETATM    7  O   UNL     1      39.977  -9.549   5.156  1.00  0.00    -0.286 OA
HETATM    8  C   UNL     1      39.554 -11.481   3.879  1.00  0.00     0.084 C 
ENDROOT
BRANCH   5   9
HETATM    9  C   UNL     1      42.251 -10.687   6.645  1.00  0.00     0.294 C 
HETATM   10  N   UNL     1      41.443 -10.107   7.603  1.00  0.00    -0.261 N 
HETATM   11  H   UNL     1      40.435 -10.295   7.650  1.00  0.00     0.190 HD
HETATM   12  O   UNL     1      43.475 -10.717   6.720  1.00  0.00    -0.264 OA
BRANCH  10  13
HETATM   13  N   UNL     1      42.055  -9.647   8.779  1.00  0.00    -0.262 N 
HETATM   14  C   UNL     1      41.267  -9.258   9.842  1.00  0.00     0.286 C 
HETATM   15  O   UNL     1      40.040  -9.217   9.762  1.00  0.00    -0.264 OA
HETATM   16  H   UNL     1      43.057  -9.800   8.863  1.00  0.00     0.190 HD
BRANCH  14  17
HETATM   17  C   UNL     1      41.980  -8.910  11.051  1.00  0.00     0.102 A 
HETATM   18  N   UNL     1      41.351  -8.913  12.279  1.00  0.00    -0.361 N 
HETATM   19  H   UNL     1      40.375  -9.153  12.409  1.00  0.00     0.165 HD
HETATM   20  C   UNL     1      42.227  -8.548  13.264  1.00  0.00     0.088 A 
HETATM   21  C   UNL     1      43.444  -8.302  12.675  1.00  0.00     0.019 A 
HETATM   22  C   UNL     1      43.293  -8.528  11.284  1.00  0.00     0.036 A 
ENDBRANCH  14  17
ENDBRANCH  10  13
ENDBRANCH   5   9
BRANCH   3  23
HETATM   23  C   UNL     1      42.108 -14.161   3.434  1.00  0.00     0.059 A 
HETATM   24  C   UNL     1      42.450 -15.227   4.290  1.00  0.00     0.047 A 
HETATM   25  C   UNL     1      43.188 -16.333   3.836  1.00  0.00     0.050 A 
HETATM   26  C   UNL     1      43.590 -16.374   2.494  1.00  0.00     0.016 A 
HETATM   27  C   UNL     1      43.285 -15.318   1.637  1.00  0.00     0.003 A 
HETATM   28  C   UNL     1      42.560 -14.219   2.107  1.00  0.00     0.031 A 
BRANCH  25  29
HETATM   29  C   UNL     1      43.522 -17.474   4.764  1.00  0.00     0.417 C 
HETATM   30  F   UNL     1      44.731 -17.350   5.377  1.00  0.00    -0.166 F 
HETATM   31  F   UNL     1      42.607 -17.607   5.765  1.00  0.00    -0.166 F 
HETATM   32  F   UNL     1      43.550 -18.678   4.126  1.00  0.00    -0.166 F 
ENDBRANCH  25  29
ENDBRANCH   3  23
TORSDOF 5
ENDMDL
