MODEL 1
REMARK VINA RESULT:      -7.1      0.000      0.000
REMARK  2 active torsions:
REMARK  status: ('A' for Active; 'I' for Inactive)
REMARK    1  A    between atoms: N_6  and  C_7 
REMARK    2  A    between atoms: C_11  and  N_12 
ROOT
HETATM    1  C   UNL     1      43.151 -16.283   3.576  1.00  0.00     0.048 A 
HETATM    2  C   UNL     1      43.837 -17.086   4.521  1.00  0.00     0.040 A 
HETATM    3 BR   UNL     1      44.448 -16.363   6.177  1.00  0.00    -0.049 Br
HETATM    4  C   UNL     1      44.052 -18.452   4.309  1.00  0.00     0.057 A 
HETATM    5  C   UNL     1      43.575 -19.042   3.137  1.00  0.00     0.104 A 
HETATM    6  C   UNL     1      42.893 -18.278   2.184  1.00  0.00     0.038 A 
HETATM    7  C   UNL     1      42.687 -16.910   2.407  1.00  0.00     0.033 A 
ENDROOT
BRANCH   1   8
HETATM    8  N   UNL     1      42.950 -14.914   3.807  1.00  0.00    -0.377 N 
HETATM    9  C   UNL     1      43.226 -14.065   2.628  1.00  0.00     0.150 C 
HETATM   10  C   UNL     1      43.440 -12.607   3.088  1.00  0.00     0.254 C 
HETATM   11  N   UNL     1      42.241 -12.116   3.907  1.00  0.00    -0.072 N 
HETATM   12  C   UNL     1      42.433 -10.704   4.374  1.00  0.00     0.269 C 
HETATM   13  H   UNL     1      41.423 -12.132   3.286  1.00  0.00     0.279 HD
HETATM   14  C   UNL     1      41.944 -13.062   5.076  1.00  0.00     0.254 C 
HETATM   15  C   UNL     1      41.759 -14.512   4.573  1.00  0.00     0.150 C 
ENDBRANCH   1   8
BRANCH   5  16
HETATM   16  N   UNL     1      43.787 -20.477   2.905  1.00  0.00    -0.116 N 
HETATM   17  O   UNL     1      43.813 -20.871   1.732  1.00  0.00    -0.532 OA
HETATM   18  O   UNL     1      43.923 -21.203   3.900  1.00  0.00    -0.532 OA
ENDBRANCH   5  16
TORSDOF 2
ENDMDL
MODEL 2
REMARK VINA RESULT:      -6.8      1.806      2.432
REMARK  2 active torsions:
REMARK  status: ('A' for Active; 'I' for Inactive)
REMARK    1  A    between atoms: N_6  and  C_7 
REMARK    2  A    between atoms: C_11  and  N_12 
ROOT
HETATM    1  C   UNL     1      43.341 -16.635   4.468  1.00  0.00     0.048 A 
HETATM    2  C   UNL     1      43.287 -16.825   3.065  1.00  0.00     0.040 A 
HETATM    3 BR   UNL     1      43.077 -15.349   1.874  1.00  0.00    -0.049 Br
HETATM    4  C   UNL     1      43.437 -18.089   2.485  1.00  0.00     0.057 A 
HETATM    5  C   UNL     1      43.649 -19.195   3.311  1.00  0.00     0.104 A 
HETATM    6  C   UNL     1      43.709 -19.042   4.700  1.00  0.00     0.038 A 
HETATM    7  C   UNL     1      43.554 -17.771   5.268  1.00  0.00     0.033 A 
ENDROOT
BRANCH   1   8
HETATM    8  N   UNL     1      43.184 -15.358   5.029  1.00  0.00    -0.377 N 
HETATM    9  C   UNL     1      41.792 -14.862   4.997  1.00  0.00     0.150 C 
HETATM   10  C   UNL     1      41.791 -13.330   5.181  1.00  0.00     0.254 C 
HETATM   11  N   UNL     1      42.534 -12.937   6.463  1.00  0.00    -0.072 N 
HETATM   12  C   UNL     1      42.556 -11.450   6.655  1.00  0.00     0.269 C 
HETATM   13  H   UNL     1      42.017 -13.347   7.250  1.00  0.00     0.279 HD
HETATM   14  C   UNL     1      43.948 -13.531   6.489  1.00  0.00     0.254 C 
HETATM   15  C   UNL     1      43.901 -15.062   6.280  1.00  0.00     0.150 C 
ENDBRANCH   1   8
BRANCH   5  16
HETATM   16  N   UNL     1      43.816 -20.527   2.716  1.00  0.00    -0.116 N 
HETATM   17  O   UNL     1      44.069 -21.469   3.478  1.00  0.00    -0.532 OA
HETATM   18  O   UNL     1      43.695 -20.623   1.486  1.00  0.00    -0.532 OA
ENDBRANCH   5  16
TORSDOF 2
ENDMDL
MODEL 3
REMARK VINA RESULT:      -6.0      1.359      1.452
REMARK  2 active torsions:
REMARK  status: ('A' for Active; 'I' for Inactive)
REMARK    1  A    between atoms: N_6  and  C_7 
REMARK    2  A    between atoms: C_11  and  N_12 
ROOT
HETATM    1  C   UNL     1      42.748 -15.196   3.426  1.00  0.00     0.048 A 
HETATM    2  C   UNL     1      43.274 -15.816   4.586  1.00  0.00     0.040 A 
HETATM    3 BR   UNL     1      43.394 -14.878   6.243  1.00  0.00    -0.049 Br
HETATM    4  C   UNL     1      43.679 -17.155   4.587  1.00  0.00     0.057 A 
HETATM    5  C   UNL     1      43.560 -17.903   3.413  1.00  0.00     0.104 A 
HETATM    6  C   UNL     1      43.044 -17.320   2.251  1.00  0.00     0.038 A 
HETATM    7  C   UNL     1      42.644 -15.978   2.263  1.00  0.00     0.033 A 
ENDROOT
BRANCH   1   8
HETATM    8  N   UNL     1      42.351 -13.850   3.447  1.00  0.00    -0.377 N 
HETATM    9  C   UNL     1      43.364 -12.923   2.900  1.00  0.00     0.150 C 
HETATM   10  C   UNL     1      43.059 -11.490   3.386  1.00  0.00     0.254 C 
HETATM   11  N   UNL     1      41.625 -11.088   3.021  1.00  0.00    -0.072 N 
HETATM   12  C   UNL     1      41.303  -9.701   3.494  1.00  0.00     0.269 C 
HETATM   13  H   UNL     1      41.561 -11.091   1.996  1.00  0.00     0.279 HD
HETATM   14  C   UNL     1      40.612 -12.112   3.545  1.00  0.00     0.254 C 
HETATM   15  C   UNL     1      40.968 -13.534   3.053  1.00  0.00     0.150 C 
ENDBRANCH   1   8
BRANCH   5  16
HETATM   16  N   UNL     1      43.975 -19.311   3.402  1.00  0.00    -0.116 N 
HETATM   17  O   UNL     1      43.882 -19.928   2.332  1.00  0.00    -0.532 OA
HETATM   18  O   UNL     1      44.390 -19.794   4.465  1.00  0.00    -0.532 OA
ENDBRANCH   5  16
TORSDOF 2
ENDMDL
MODEL 4
REMARK VINA RESULT:      -5.9      3.879      4.759
REMARK  2 active torsions:
REMARK  status: ('A' for Active; 'I' for Inactive)
REMARK    1  A    between atoms: N_6  and  C_7 
REMARK    2  A    between atoms: C_11  and  N_12 
ROOT
HETATM    1  C   UNL     1      41.133 -14.780   3.500  1.00  0.00     0.048 A 
HETATM    2  C   UNL     1      42.323 -14.233   4.041  1.00  0.00     0.040 A 
HETATM    3 BR   UNL     1      43.179 -12.731   3.236  1.00  0.00    -0.049 Br
HETATM    4  C   UNL     1      42.895 -14.732   5.216  1.00  0.00     0.057 A 
HETATM    5  C   UNL     1      42.276 -15.797   5.876  1.00  0.00     0.104 A 
HETATM    6  C   UNL     1      41.100 -16.358   5.368  1.00  0.00     0.038 A 
HETATM    7  C   UNL     1      40.539 -15.851   4.189  1.00  0.00     0.033 A 
ENDROOT
BRANCH   1   8
HETATM    8  N   UNL     1      40.579 -14.267   2.317  1.00  0.00    -0.377 N 
HETATM    9  C   UNL     1      40.336 -15.292   1.280  1.00  0.00     0.150 C 
HETATM   10  C   UNL     1      40.188 -14.603  -0.093  1.00  0.00     0.254 C 
HETATM   11  N   UNL     1      39.091 -13.532  -0.047  1.00  0.00    -0.072 N 
HETATM   12  C   UNL     1      38.937 -12.841  -1.369  1.00  0.00     0.269 C 
HETATM   13  H   UNL     1      38.207 -14.013   0.160  1.00  0.00     0.279 HD
HETATM   14  C   UNL     1      39.342 -12.531   1.087  1.00  0.00     0.254 C 
HETATM   15  C   UNL     1      39.506 -13.265   2.438  1.00  0.00     0.150 C 
ENDBRANCH   1   8
BRANCH   5  16
HETATM   16  N   UNL     1      42.862 -16.325   7.115  1.00  0.00    -0.116 N 
HETATM   17  O   UNL     1      43.286 -17.488   7.098  1.00  0.00    -0.532 OA
HETATM   18  O   UNL     1      42.893 -15.573   8.099  1.00  0.00    -0.532 OA
ENDBRANCH   5  16
TORSDOF 2
ENDMDL
MODEL 5
REMARK VINA RESULT:      -5.9      2.439      3.106
REMARK  2 active torsions:
REMARK  status: ('A' for Active; 'I' for Inactive)
REMARK    1  A    between atoms: N_6  and  C_7 
REMARK    2  A    between atoms: C_11  and  N_12 
ROOT
HETATM    1  C   UNL     1      41.820 -15.052   3.838  1.00  0.00     0.048 A 
HETATM    2  C   UNL     1      41.475 -15.998   2.841  1.00  0.00     0.040 A 
HETATM    3 BR   UNL     1      40.082 -15.650   1.585  1.00  0.00    -0.049 Br
HETATM    4  C   UNL     1      42.172 -17.202   2.695  1.00  0.00     0.057 A 
HETATM    5  C   UNL     1      43.237 -17.481   3.555  1.00  0.00     0.104 A 
HETATM    6  C   UNL     1      43.603 -16.567   4.549  1.00  0.00     0.038 A 
HETATM    7  C   UNL     1      42.896 -15.366   4.686  1.00  0.00     0.033 A 
ENDROOT
BRANCH   1   8
HETATM    8  N   UNL     1      41.105 -13.852   3.968  1.00  0.00    -0.377 N 
HETATM    9  C   UNL     1      40.583 -13.615   5.331  1.00  0.00     0.150 C 
HETATM   10  C   UNL     1      39.453 -12.566   5.269  1.00  0.00     0.254 C 
HETATM   11  N   UNL     1      39.941 -11.282   4.588  1.00  0.00    -0.072 N 
HETATM   12  C   UNL     1      38.855 -10.251   4.507  1.00  0.00     0.269 C 
HETATM   13  H   UNL     1      40.695 -10.898   5.171  1.00  0.00     0.279 HD
HETATM   14  C   UNL     1      40.540 -11.580   3.209  1.00  0.00     0.254 C 
HETATM   15  C   UNL     1      41.651 -12.650   3.315  1.00  0.00     0.150 C 
ENDBRANCH   1   8
BRANCH   5  16
HETATM   16  N   UNL     1      43.981 -18.738   3.409  1.00  0.00    -0.116 N 
HETATM   17  O   UNL     1      43.775 -19.413   2.392  1.00  0.00    -0.532 OA
HETATM   18  O   UNL     1      44.769 -19.045   4.315  1.00  0.00    -0.532 OA
ENDBRANCH   5  16
TORSDOF 2
ENDMDL
MODEL 6
REMARK VINA RESULT:      -5.8      2.718      3.089
REMARK  2 active torsions:
REMARK  status: ('A' for Active; 'I' for Inactive)
REMARK    1  A    between atoms: N_6  and  C_7 
REMARK    2  A    between atoms: C_11  and  N_12 
ROOT
HETATM    1  C   UNL     1      42.138 -15.646   2.851  1.00  0.00     0.048 A 
HETATM    2  C   UNL     1      41.920 -15.728   4.248  1.00  0.00     0.040 A 
HETATM    3 BR   UNL     1      40.798 -14.476   5.151  1.00  0.00    -0.049 Br
HETATM    4  C   UNL     1      42.471 -16.755   5.021  1.00  0.00     0.057 A 
HETATM    5  C   UNL     1      43.256 -17.729   4.399  1.00  0.00     0.104 A 
HETATM    6  C   UNL     1      43.489 -17.678   3.021  1.00  0.00     0.038 A 
HETATM    7  C   UNL     1      42.933 -16.642   2.259  1.00  0.00     0.033 A 
ENDROOT
BRANCH   1   8
HETATM    8  N   UNL     1      41.578 -14.604   2.095  1.00  0.00    -0.377 N 
HETATM    9  C   UNL     1      42.423 -13.392   2.036  1.00  0.00     0.150 C 
HETATM   10  C   UNL     1      41.557 -12.187   1.614  1.00  0.00     0.254 C 
HETATM   11  N   UNL     1      40.835 -12.474   0.292  1.00  0.00    -0.072 N 
HETATM   12  C   UNL     1      39.978 -11.319  -0.132  1.00  0.00     0.269 C 
HETATM   13  H   UNL     1      41.559 -12.606  -0.425  1.00  0.00     0.279 HD
HETATM   14  C   UNL     1      40.030 -13.776   0.372  1.00  0.00     0.254 C 
HETATM   15  C   UNL     1      40.930 -14.950   0.819  1.00  0.00     0.150 C 
ENDBRANCH   1   8
BRANCH   5  16
HETATM   16  N   UNL     1      43.834 -18.817   5.197  1.00  0.00    -0.116 N 
HETATM   17  O   UNL     1      44.636 -19.576   4.637  1.00  0.00    -0.532 OA
HETATM   18  O   UNL     1      43.481 -18.909   6.381  1.00  0.00    -0.532 OA
ENDBRANCH   5  16
TORSDOF 2
ENDMDL
MODEL 7
REMARK VINA RESULT:      -5.8      4.218      5.825
REMARK  2 active torsions:
REMARK  status: ('A' for Active; 'I' for Inactive)
REMARK    1  A    between atoms: N_6  and  C_7 
REMARK    2  A    between atoms: C_11  and  N_12 
ROOT
HETATM    1  C   UNL     1      41.438 -15.279   2.616  1.00  0.00     0.048 A 
HETATM    2  C   UNL     1      41.768 -14.003   2.096  1.00  0.00     0.040 A 
HETATM    3 BR   UNL     1      43.092 -12.908   2.925  1.00  0.00    -0.049 Br
HETATM    4  C   UNL     1      41.180 -13.509   0.927  1.00  0.00     0.057 A 
HETATM    5  C   UNL     1      40.244 -14.295   0.251  1.00  0.00     0.104 A 
HETATM    6  C   UNL     1      39.898 -15.561   0.737  1.00  0.00     0.038 A 
HETATM    7  C   UNL     1      40.492 -16.043   1.911  1.00  0.00     0.033 A 
ENDROOT
BRANCH   1   8
HETATM    8  N   UNL     1      42.038 -15.754   3.793  1.00  0.00    -0.377 N 
HETATM    9  C   UNL     1      41.069 -16.129   4.844  1.00  0.00     0.150 C 
HETATM   10  C   UNL     1      41.789 -16.176   6.209  1.00  0.00     0.254 C 
HETATM   11  N   UNL     1      42.999 -17.116   6.151  1.00  0.00    -0.072 N 
HETATM   12  C   UNL     1      43.721 -17.169   7.464  1.00  0.00     0.269 C 
HETATM   13  H   UNL     1      42.640 -18.059   5.953  1.00  0.00     0.279 HD
HETATM   14  C   UNL     1      43.941 -16.737   5.003  1.00  0.00     0.254 C 
HETATM   15  C   UNL     1      43.175 -16.681   3.662  1.00  0.00     0.150 C 
ENDBRANCH   1   8
BRANCH   5  16
HETATM   16  N   UNL     1      39.625 -13.793  -0.981  1.00  0.00    -0.116 N 
HETATM   17  O   UNL     1      39.353 -14.616  -1.865  1.00  0.00    -0.532 OA
HETATM   18  O   UNL     1      39.415 -12.574  -1.060  1.00  0.00    -0.532 OA
ENDBRANCH   5  16
TORSDOF 2
ENDMDL
MODEL 8
REMARK VINA RESULT:      -5.6      3.873      6.340
REMARK  2 active torsions:
REMARK  status: ('A' for Active; 'I' for Inactive)
REMARK    1  A    between atoms: N_6  and  C_7 
REMARK    2  A    between atoms: C_11  and  N_12 
ROOT
HETATM    1  C   UNL     1      42.727 -15.750   3.389  1.00  0.00     0.048 A 
HETATM    2  C   UNL     1      41.630 -15.076   3.983  1.00  0.00     0.040 A 
HETATM    3 BR   UNL     1      40.685 -15.831   5.459  1.00  0.00    -0.049 Br
HETATM    4  C   UNL     1      41.223 -13.809   3.553  1.00  0.00     0.057 A 
HETATM    5  C   UNL     1      41.917 -13.189   2.511  1.00  0.00     0.104 A 
HETATM    6  C   UNL     1      43.005 -13.826   1.905  1.00  0.00     0.038 A 
HETATM    7  C   UNL     1      43.401 -15.096   2.343  1.00  0.00     0.033 A 
ENDROOT
BRANCH   1   8
HETATM    8  N   UNL     1      43.115 -17.023   3.834  1.00  0.00    -0.377 N 
HETATM    9  C   UNL     1      43.583 -17.914   2.752  1.00  0.00     0.150 C 
HETATM   10  C   UNL     1      43.531 -19.378   3.238  1.00  0.00     0.254 C 
HETATM   11  N   UNL     1      44.331 -19.547   4.535  1.00  0.00    -0.072 N 
HETATM   12  C   UNL     1      44.285 -20.961   5.032  1.00  0.00     0.269 C 
HETATM   13  H   UNL     1      45.310 -19.323   4.318  1.00  0.00     0.279 HD
HETATM   14  C   UNL     1      43.863 -18.556   5.607  1.00  0.00     0.254 C 
HETATM   15  C   UNL     1      43.910 -17.108   5.071  1.00  0.00     0.150 C 
ENDBRANCH   1   8
BRANCH   5  16
HETATM   16  N   UNL     1      41.506 -11.855   2.055  1.00  0.00    -0.116 N 
HETATM   17  O   UNL     1      40.316 -11.693   1.755  1.00  0.00    -0.532 OA
HETATM   18  O   UNL     1      42.377 -10.976   1.996  1.00  0.00    -0.532 OA
ENDBRANCH   5  16
TORSDOF 2
ENDMDL
MODEL 9
REMARK VINA RESULT:      -5.5     10.774     13.314
REMARK  2 active torsions:
REMARK  status: ('A' for Active; 'I' for Inactive)
REMARK    1  A    between atoms: N_6  and  C_7 
REMARK    2  A    between atoms: C_11  and  N_12 
ROOT
HETATM    1  C   UNL     1      42.333  -8.519  12.840  1.00  0.00     0.048 A 
HETATM    2  C   UNL     1      41.225  -8.971  13.598  1.00  0.00     0.040 A 
HETATM    3 BR   UNL     1      40.041 -10.306  12.921  1.00  0.00    -0.049 Br
HETATM    4  C   UNL     1      40.977  -8.503  14.892  1.00  0.00     0.057 A 
HETATM    5  C   UNL     1      41.845  -7.565  15.455  1.00  0.00     0.104 A 
HETATM    6  C   UNL     1      42.949  -7.099  14.733  1.00  0.00     0.038 A 
HETATM    7  C   UNL     1      43.185  -7.574  13.437  1.00  0.00     0.033 A 
ENDROOT
BRANCH   1   8
HETATM    8  N   UNL     1      42.561  -8.999  11.541  1.00  0.00    -0.377 N 
HETATM    9  C   UNL     1      41.967  -8.156  10.482  1.00  0.00     0.150 C 
HETATM   10  C   UNL     1      41.853  -8.977   9.180  1.00  0.00     0.254 C 
HETATM   11  N   UNL     1      43.216  -9.556   8.784  1.00  0.00    -0.072 N 
HETATM   12  C   UNL     1      43.127 -10.368   7.526  1.00  0.00     0.269 C 
HETATM   13  H   UNL     1      43.841  -8.762   8.600  1.00  0.00     0.279 HD
HETATM   14  C   UNL     1      43.830 -10.363   9.934  1.00  0.00     0.254 C 
HETATM   15  C   UNL     1      43.904  -9.511  11.221  1.00  0.00     0.150 C 
ENDBRANCH   1   8
BRANCH   5  16
HETATM   16  N   UNL     1      41.601  -7.071  16.816  1.00  0.00    -0.116 N 
HETATM   17  O   UNL     1      42.021  -5.941  17.100  1.00  0.00    -0.532 OA
HETATM   18  O   UNL     1      40.992  -7.818  17.595  1.00  0.00    -0.532 OA
ENDBRANCH   5  16
TORSDOF 2
ENDMDL
MODEL 10
REMARK VINA RESULT:      -5.4     14.054     16.030
REMARK  2 active torsions:
REMARK  status: ('A' for Active; 'I' for Inactive)
REMARK    1  A    between atoms: N_6  and  C_7 
REMARK    2  A    between atoms: C_11  and  N_12 
ROOT
HETATM    1  C   UNL     1      45.444 -30.075  -3.236  1.00  0.00     0.048 A 
HETATM    2  C   UNL     1      46.239 -31.052  -3.885  1.00  0.00     0.040 A 
HETATM    3 BR   UNL     1      47.746 -31.838  -3.019  1.00  0.00    -0.049 Br
HETATM    4  C   UNL     1      45.928 -31.523  -5.165  1.00  0.00     0.057 A 
HETATM    5  C   UNL     1      44.803 -31.020  -5.821  1.00  0.00     0.104 A 
HETATM    6  C   UNL     1      43.996 -30.056  -5.207  1.00  0.00     0.038 A 
HETATM    7  C   UNL     1      44.320 -29.590  -3.926  1.00  0.00     0.033 A 
ENDROOT
BRANCH   1   8
HETATM    8  N   UNL     1      45.777 -29.613  -1.953  1.00  0.00    -0.377 N 
HETATM    9  C   UNL     1      46.535 -28.344  -1.956  1.00  0.00     0.150 C 
HETATM   10  C   UNL     1      47.246 -28.172  -0.597  1.00  0.00     0.254 C 
HETATM   11  N   UNL     1      46.239 -28.261   0.557  1.00  0.00    -0.072 N 
HETATM   12  C   UNL     1      46.910 -28.107   1.889  1.00  0.00     0.269 C 
HETATM   13  H   UNL     1      45.582 -27.480   0.445  1.00  0.00     0.279 HD
HETATM   14  C   UNL     1      45.424 -29.557   0.481  1.00  0.00     0.254 C 
HETATM   15  C   UNL     1      44.749 -29.699  -0.902  1.00  0.00     0.150 C 
ENDBRANCH   1   8
BRANCH   5  16
HETATM   16  N   UNL     1      44.460 -31.511  -7.162  1.00  0.00    -0.116 N 
HETATM   17  O   UNL     1      43.261 -31.574  -7.461  1.00  0.00    -0.532 OA
HETATM   18  O   UNL     1      45.395 -31.835  -7.908  1.00  0.00    -0.532 OA
ENDBRANCH   5  16
TORSDOF 2
ENDMDL
