MODEL 1
REMARK VINA RESULT:      -8.6      0.000      0.000
REMARK  8 active torsions:
REMARK  status: ('A' for Active; 'I' for Inactive)
REMARK    1  A    between atoms: O_2  and  C_3 
REMARK    2  A    between atoms: C_6  and  C_7 
REMARK    3  A    between atoms: C_11  and  S_12 
REMARK    4  A    between atoms: S_12  and  C_13 
REMARK    5  A    between atoms: C_13  and  C_14 
REMARK       I    between atoms: C_14  and  N_15 
REMARK    6  A    between atoms: N_15  and  C_16 
REMARK    7  A    between atoms: C_17  and  C_18 
REMARK       I    between atoms: C_18  and  N_19 
REMARK    8  A    between atoms: N_19  and  C_20 
ROOT
HETATM    1  C   UNL     1      42.319 -16.231   2.659  1.00  0.00     0.231 C 
HETATM    2  N   UNL     1      43.491 -16.942   2.502  1.00  0.00    -0.326 N 
HETATM    3  O   UNL     1      41.325 -16.683   3.235  1.00  0.00    -0.272 OA
HETATM    4  H   UNL     1      44.323 -16.374   2.357  1.00  0.00     0.169 HD
ENDROOT
BRANCH   1   5
HETATM    5  C   UNL     1      42.275 -14.859   1.994  1.00  0.00     0.185 C 
BRANCH   5   6
HETATM    6  S   UNL     1      41.220 -13.635   2.844  1.00  0.00    -0.081 SA
BRANCH   6   7
HETATM    7  C   UNL     1      42.423 -12.688   3.621  1.00  0.00     0.185 A 
HETATM    8  N   UNL     1      43.521 -12.184   3.008  1.00  0.00    -0.253 N 
HETATM    9  N   UNL     1      44.279 -11.491   3.884  1.00  0.00    -0.152 NA
HETATM   10  H   UNL     1      43.814 -12.272   2.043  1.00  0.00     0.191 HD
HETATM   11  C   UNL     1      43.572 -11.611   5.024  1.00  0.00     0.182 A 
HETATM   12  N   UNL     1      42.403 -12.325   4.873  1.00  0.00    -0.201 NA
BRANCH  11  13
HETATM   13  C   UNL     1      43.947 -11.057   6.321  1.00  0.00     0.014 A 
HETATM   14  C   UNL     1      45.202 -11.300   6.887  1.00  0.00     0.018 A 
HETATM   15  C   UNL     1      45.533 -10.743   8.128  1.00  0.00     0.037 A 
HETATM   16  C   UNL     1      44.624  -9.938   8.820  1.00  0.00     0.068 A 
HETATM   17  C   UNL     1      43.366  -9.705   8.269  1.00  0.00     0.037 A 
HETATM   18  C   UNL     1      43.032 -10.261   7.029  1.00  0.00     0.018 A 
BRANCH  16  19
HETATM   19  O   UNL     1      45.077  -9.448  10.014  1.00  0.00    -0.356 OA
HETATM   20  C   UNL     1      44.189  -9.549  11.121  1.00  0.00     0.210 C 
ENDBRANCH  16  19
ENDBRANCH  11  13
ENDBRANCH   6   7
ENDBRANCH   5   6
ENDBRANCH   1   5
BRANCH   2  21
HETATM   21  C   UNL     1      43.697 -18.239   3.007  1.00  0.00     0.050 A 
HETATM   22  C   UNL     1      44.012 -18.520   4.347  1.00  0.00     0.058 A 
HETATM   23  C   UNL     1      44.130 -19.853   4.773  1.00  0.00     0.019 A 
HETATM   24  C   UNL     1      43.945 -20.902   3.874  1.00  0.00     0.001 A 
HETATM   25  C   UNL     1      43.599 -20.626   2.553  1.00  0.00     0.002 A 
HETATM   26  C   UNL     1      43.455 -19.303   2.128  1.00  0.00     0.030 A 
BRANCH  22  27
HETATM   27  C   UNL     1      43.962 -17.508   5.426  1.00  0.00     0.254 C 
HETATM   28  N   UNL     1      42.737 -17.309   6.018  1.00  0.00    -0.352 N 
HETATM   29  H   UNL     1      41.974 -17.938   5.762  1.00  0.00     0.163 HD
HETATM   30  O   UNL     1      44.983 -16.882   5.699  1.00  0.00    -0.268 OA
BRANCH  28  31
HETATM   31  C   UNL     1      42.541 -16.397   7.099  1.00  0.00     0.084 A 
HETATM   32  C   UNL     1      43.060 -14.989   7.006  1.00  0.00     0.027 A 
HETATM   33  C   UNL     1      41.582 -15.246   6.962  1.00  0.00     0.027 A 
ENDBRANCH  28  31
ENDBRANCH  22  27
ENDBRANCH   2  21
TORSDOF 8
ENDMDL
MODEL 2
REMARK VINA RESULT:      -8.4      2.364      8.171
REMARK  8 active torsions:
REMARK  status: ('A' for Active; 'I' for Inactive)
REMARK    1  A    between atoms: O_2  and  C_3 
REMARK    2  A    between atoms: C_6  and  C_7 
REMARK    3  A    between atoms: C_11  and  S_12 
REMARK    4  A    between atoms: S_12  and  C_13 
REMARK    5  A    between atoms: C_13  and  C_14 
REMARK       I    between atoms: C_14  and  N_15 
REMARK    6  A    between atoms: N_15  and  C_16 
REMARK    7  A    between atoms: C_17  and  C_18 
REMARK       I    between atoms: C_18  and  N_19 
REMARK    8  A    between atoms: N_19  and  C_20 
ROOT
HETATM    1  C   UNL     1      41.586 -10.914   5.929  1.00  0.00     0.231 C 
HETATM    2  N   UNL     1      42.367 -11.357   6.975  1.00  0.00    -0.326 N 
HETATM    3  O   UNL     1      41.930 -10.010   5.163  1.00  0.00    -0.272 OA
HETATM    4  H   UNL     1      42.167 -12.303   7.292  1.00  0.00     0.169 HD
ENDROOT
BRANCH   1   5
HETATM    5  C   UNL     1      40.202 -11.545   5.814  1.00  0.00     0.185 C 
BRANCH   5   6
HETATM    6  S   UNL     1      39.751 -12.091   4.131  1.00  0.00    -0.081 SA
BRANCH   6   7
HETATM    7  C   UNL     1      41.111 -13.070   3.757  1.00  0.00     0.185 A 
HETATM    8  N   UNL     1      42.231 -12.627   3.136  1.00  0.00    -0.253 N 
HETATM    9  N   UNL     1      43.117 -13.633   2.978  1.00  0.00    -0.152 NA
HETATM   10  H   UNL     1      42.453 -11.698   2.798  1.00  0.00     0.191 HD
HETATM   11  C   UNL     1      42.467 -14.671   3.537  1.00  0.00     0.182 A 
HETATM   12  N   UNL     1      41.234 -14.334   4.052  1.00  0.00    -0.201 NA
BRANCH  11  13
HETATM   13  C   UNL     1      42.964 -16.039   3.627  1.00  0.00     0.014 A 
HETATM   14  C   UNL     1      43.595 -16.515   4.780  1.00  0.00     0.018 A 
HETATM   15  C   UNL     1      44.050 -17.839   4.838  1.00  0.00     0.037 A 
HETATM   16  C   UNL     1      43.882 -18.704   3.754  1.00  0.00     0.068 A 
HETATM   17  C   UNL     1      43.269 -18.231   2.596  1.00  0.00     0.037 A 
HETATM   18  C   UNL     1      42.814 -16.909   2.535  1.00  0.00     0.018 A 
BRANCH  16  19
HETATM   19  O   UNL     1      44.360 -19.971   3.945  1.00  0.00    -0.356 OA
HETATM   20  C   UNL     1      44.122 -20.555   5.221  1.00  0.00     0.210 C 
ENDBRANCH  16  19
ENDBRANCH  11  13
ENDBRANCH   6   7
ENDBRANCH   5   6
ENDBRANCH   1   5
BRANCH   2  21
HETATM   21  C   UNL     1      43.652 -10.859   7.263  1.00  0.00     0.050 A 
HETATM   22  C   UNL     1      43.916  -9.888   8.244  1.00  0.00     0.058 A 
HETATM   23  C   UNL     1      45.241  -9.504   8.509  1.00  0.00     0.019 A 
HETATM   24  C   UNL     1      46.297 -10.074   7.800  1.00  0.00     0.001 A 
HETATM   25  C   UNL     1      46.040 -11.062   6.853  1.00  0.00     0.002 A 
HETATM   26  C   UNL     1      44.726 -11.467   6.601  1.00  0.00     0.030 A 
BRANCH  22  27
HETATM   27  C   UNL     1      42.909  -9.426   9.226  1.00  0.00     0.254 C 
HETATM   28  N   UNL     1      43.298  -9.427  10.544  1.00  0.00    -0.352 N 
HETATM   29  H   UNL     1      44.276  -9.636  10.754  1.00  0.00     0.163 HD
HETATM   30  O   UNL     1      41.791  -9.114   8.825  1.00  0.00    -0.268 OA
BRANCH  28  31
HETATM   31  C   UNL     1      42.452  -8.971  11.600  1.00  0.00     0.084 A 
HETATM   32  C   UNL     1      42.459  -9.668  12.931  1.00  0.00     0.027 A 
HETATM   33  C   UNL     1      43.037  -8.288  12.806  1.00  0.00     0.027 A 
ENDBRANCH  28  31
ENDBRANCH  22  27
ENDBRANCH   2  21
TORSDOF 8
ENDMDL
MODEL 3
REMARK VINA RESULT:      -8.3      2.591      4.509
REMARK  8 active torsions:
REMARK  status: ('A' for Active; 'I' for Inactive)
REMARK    1  A    between atoms: O_2  and  C_3 
REMARK    2  A    between atoms: C_6  and  C_7 
REMARK    3  A    between atoms: C_11  and  S_12 
REMARK    4  A    between atoms: S_12  and  C_13 
REMARK    5  A    between atoms: C_13  and  C_14 
REMARK       I    between atoms: C_14  and  N_15 
REMARK    6  A    between atoms: N_15  and  C_16 
REMARK    7  A    between atoms: C_17  and  C_18 
REMARK       I    between atoms: C_18  and  N_19 
REMARK    8  A    between atoms: N_19  and  C_20 
ROOT
HETATM    1  C   UNL     1      42.066 -14.222   5.378  1.00  0.00     0.231 C 
HETATM    2  N   UNL     1      43.246 -14.759   4.908  1.00  0.00    -0.326 N 
HETATM    3  O   UNL     1      40.975 -14.790   5.275  1.00  0.00    -0.272 OA
HETATM    4  H   UNL     1      44.088 -14.405   5.354  1.00  0.00     0.169 HD
ENDROOT
BRANCH   1   5
HETATM    5  C   UNL     1      42.158 -12.817   5.965  1.00  0.00     0.185 C 
BRANCH   5   6
HETATM    6  S   UNL     1      43.634 -11.873   5.451  1.00  0.00    -0.081 SA
BRANCH   6   7
HETATM    7  C   UNL     1      44.187 -11.323   6.981  1.00  0.00     0.185 A 
HETATM    8  N   UNL     1      45.482 -11.334   7.380  1.00  0.00    -0.253 N 
HETATM    9  N   UNL     1      45.597 -10.845   8.633  1.00  0.00    -0.152 NA
HETATM   10  H   UNL     1      46.304 -11.652   6.881  1.00  0.00     0.191 HD
HETATM   11  C   UNL     1      44.321 -10.547   8.938  1.00  0.00     0.182 A 
HETATM   12  N   UNL     1      43.436 -10.808   7.914  1.00  0.00    -0.201 NA
BRANCH  11  13
HETATM   13  C   UNL     1      43.854  -9.992  10.203  1.00  0.00     0.014 A 
HETATM   14  C   UNL     1      43.738  -8.613  10.402  1.00  0.00     0.018 A 
HETATM   15  C   UNL     1      43.275  -8.115  11.626  1.00  0.00     0.037 A 
HETATM   16  C   UNL     1      42.919  -8.979  12.665  1.00  0.00     0.068 A 
HETATM   17  C   UNL     1      43.047 -10.353  12.479  1.00  0.00     0.037 A 
HETATM   18  C   UNL     1      43.511 -10.854  11.258  1.00  0.00     0.018 A 
BRANCH  16  19
HETATM   19  O   UNL     1      42.472  -8.364  13.801  1.00  0.00    -0.356 OA
HETATM   20  C   UNL     1      41.244  -8.841  14.342  1.00  0.00     0.210 C 
ENDBRANCH  16  19
ENDBRANCH  11  13
ENDBRANCH   6   7
ENDBRANCH   5   6
ENDBRANCH   1   5
BRANCH   2  21
HETATM   21  C   UNL     1      43.345 -16.022   4.295  1.00  0.00     0.050 A 
HETATM   22  C   UNL     1      43.000 -16.276   2.957  1.00  0.00     0.058 A 
HETATM   23  C   UNL     1      43.200 -17.555   2.413  1.00  0.00     0.019 A 
HETATM   24  C   UNL     1      43.733 -18.580   3.194  1.00  0.00     0.001 A 
HETATM   25  C   UNL     1      44.109 -18.321   4.510  1.00  0.00     0.002 A 
HETATM   26  C   UNL     1      43.935 -17.044   5.051  1.00  0.00     0.030 A 
BRANCH  22  27
HETATM   27  C   UNL     1      42.687 -15.209   1.980  1.00  0.00     0.254 C 
HETATM   28  N   UNL     1      41.503 -15.338   1.295  1.00  0.00    -0.352 N 
HETATM   29  H   UNL     1      40.867 -16.088   1.575  1.00  0.00     0.163 HD
HETATM   30  O   UNL     1      43.503 -14.308   1.806  1.00  0.00    -0.268 OA
BRANCH  28  31
HETATM   31  C   UNL     1      41.046 -14.368   0.352  1.00  0.00     0.084 A 
HETATM   32  C   UNL     1      39.806 -14.623  -0.457  1.00  0.00     0.027 A 
HETATM   33  C   UNL     1      39.796 -13.574   0.617  1.00  0.00     0.027 A 
ENDBRANCH  28  31
ENDBRANCH  22  27
ENDBRANCH   2  21
TORSDOF 8
ENDMDL
MODEL 4
REMARK VINA RESULT:      -8.1      4.236      8.817
REMARK  8 active torsions:
REMARK  status: ('A' for Active; 'I' for Inactive)
REMARK    1  A    between atoms: O_2  and  C_3 
REMARK    2  A    between atoms: C_6  and  C_7 
REMARK    3  A    between atoms: C_11  and  S_12 
REMARK    4  A    between atoms: S_12  and  C_13 
REMARK    5  A    between atoms: C_13  and  C_14 
REMARK       I    between atoms: C_14  and  N_15 
REMARK    6  A    between atoms: N_15  and  C_16 
REMARK    7  A    between atoms: C_17  and  C_18 
REMARK       I    between atoms: C_18  and  N_19 
REMARK    8  A    between atoms: N_19  and  C_20 
ROOT
HETATM    1  C   UNL     1      41.610 -10.713   2.558  1.00  0.00     0.231 C 
HETATM    2  N   UNL     1      40.710 -10.265   1.614  1.00  0.00    -0.326 N 
HETATM    3  O   UNL     1      42.813 -10.867   2.327  1.00  0.00    -0.272 OA
HETATM    4  H   UNL     1      39.867  -9.838   1.991  1.00  0.00     0.169 HD
ENDROOT
BRANCH   1   5
HETATM    5  C   UNL     1      41.022 -11.107   3.909  1.00  0.00     0.185 C 
BRANCH   5   6
HETATM    6  S   UNL     1      39.382 -11.904   3.822  1.00  0.00    -0.081 SA
BRANCH   6   7
HETATM    7  C   UNL     1      39.840 -13.487   3.341  1.00  0.00     0.185 A 
HETATM    8  N   UNL     1      39.185 -14.232   2.419  1.00  0.00    -0.253 N 
HETATM    9  N   UNL     1      39.783 -15.431   2.264  1.00  0.00    -0.152 NA
HETATM   10  H   UNL     1      38.355 -14.005   1.883  1.00  0.00     0.191 HD
HETATM   11  C   UNL     1      40.812 -15.347   3.128  1.00  0.00     0.182 A 
HETATM   12  N   UNL     1      40.880 -14.137   3.783  1.00  0.00    -0.201 NA
BRANCH  11  13
HETATM   13  C   UNL     1      41.795 -16.393   3.387  1.00  0.00     0.014 A 
HETATM   14  C   UNL     1      42.246 -17.243   2.372  1.00  0.00     0.018 A 
HETATM   15  C   UNL     1      43.201 -18.228   2.652  1.00  0.00     0.037 A 
HETATM   16  C   UNL     1      43.720 -18.379   3.941  1.00  0.00     0.068 A 
HETATM   17  C   UNL     1      43.263 -17.547   4.960  1.00  0.00     0.037 A 
HETATM   18  C   UNL     1      42.309 -16.561   4.683  1.00  0.00     0.018 A 
BRANCH  16  19
HETATM   19  O   UNL     1      44.653 -19.371   4.076  1.00  0.00    -0.356 OA
HETATM   20  C   UNL     1      44.324 -20.437   4.960  1.00  0.00     0.210 C 
ENDBRANCH  16  19
ENDBRANCH  11  13
ENDBRANCH   6   7
ENDBRANCH   5   6
ENDBRANCH   1   5
BRANCH   2  21
HETATM   21  C   UNL     1      41.064  -9.900   0.301  1.00  0.00     0.050 A 
HETATM   22  C   UNL     1      41.027 -10.777  -0.796  1.00  0.00     0.058 A 
HETATM   23  C   UNL     1      41.330 -10.303  -2.082  1.00  0.00     0.019 A 
HETATM   24  C   UNL     1      41.677  -8.967  -2.279  1.00  0.00     0.001 A 
HETATM   25  C   UNL     1      41.680  -8.088  -1.199  1.00  0.00     0.002 A 
HETATM   26  C   UNL     1      41.355  -8.547   0.080  1.00  0.00     0.030 A 
BRANCH  22  27
HETATM   27  C   UNL     1      40.418 -12.125  -0.740  1.00  0.00     0.254 C 
HETATM   28  N   UNL     1      39.470 -12.406  -1.695  1.00  0.00    -0.352 N 
HETATM   29  H   UNL     1      39.324 -11.722  -2.440  1.00  0.00     0.163 HD
HETATM   30  O   UNL     1      40.753 -12.890   0.161  1.00  0.00    -0.268 OA
BRANCH  28  31
HETATM   31  C   UNL     1      38.826 -13.677  -1.794  1.00  0.00     0.084 A 
HETATM   32  C   UNL     1      37.569 -13.827  -2.604  1.00  0.00     0.027 A 
HETATM   33  C   UNL     1      38.849 -14.445  -3.087  1.00  0.00     0.027 A 
ENDBRANCH  28  31
ENDBRANCH  22  27
ENDBRANCH   2  21
TORSDOF 8
ENDMDL
MODEL 5
REMARK VINA RESULT:      -7.8      2.860      5.108
REMARK  8 active torsions:
REMARK  status: ('A' for Active; 'I' for Inactive)
REMARK    1  A    between atoms: O_2  and  C_3 
REMARK    2  A    between atoms: C_6  and  C_7 
REMARK    3  A    between atoms: C_11  and  S_12 
REMARK    4  A    between atoms: S_12  and  C_13 
REMARK    5  A    between atoms: C_13  and  C_14 
REMARK       I    between atoms: C_14  and  N_15 
REMARK    6  A    between atoms: N_15  and  C_16 
REMARK    7  A    between atoms: C_17  and  C_18 
REMARK       I    between atoms: C_18  and  N_19 
REMARK    8  A    between atoms: N_19  and  C_20 
ROOT
HETATM    1  C   UNL     1      42.564 -14.125   5.906  1.00  0.00     0.231 C 
HETATM    2  N   UNL     1      42.821 -14.224   4.555  1.00  0.00    -0.326 N 
HETATM    3  O   UNL     1      41.477 -14.418   6.412  1.00  0.00    -0.272 OA
HETATM    4  H   UNL     1      43.804 -14.313   4.309  1.00  0.00     0.169 HD
ENDROOT
BRANCH   1   5
HETATM    5  C   UNL     1      43.683 -13.535   6.758  1.00  0.00     0.185 C 
BRANCH   5   6
HETATM    6  S   UNL     1      44.361 -11.957   6.138  1.00  0.00    -0.081 SA
BRANCH   6   7
HETATM    7  C   UNL     1      44.492 -11.085   7.611  1.00  0.00     0.185 A 
HETATM    8  N   UNL     1      45.660 -10.809   8.241  1.00  0.00    -0.253 N 
HETATM    9  N   UNL     1      45.435 -10.116   9.377  1.00  0.00    -0.152 NA
HETATM   10  H   UNL     1      46.606 -11.056   7.976  1.00  0.00     0.191 HD
HETATM   11  C   UNL     1      44.094  -9.998   9.374  1.00  0.00     0.182 A 
HETATM   12  N   UNL     1      43.495 -10.567   8.272  1.00  0.00    -0.201 NA
BRANCH  11  13
HETATM   13  C   UNL     1      43.294  -9.339  10.401  1.00  0.00     0.014 A 
HETATM   14  C   UNL     1      41.916  -9.161  10.255  1.00  0.00     0.018 A 
HETATM   15  C   UNL     1      41.176  -8.535  11.266  1.00  0.00     0.037 A 
HETATM   16  C   UNL     1      41.796  -8.081  12.434  1.00  0.00     0.068 A 
HETATM   17  C   UNL     1      43.172  -8.241  12.579  1.00  0.00     0.037 A 
HETATM   18  C   UNL     1      43.913  -8.866  11.570  1.00  0.00     0.018 A 
BRANCH  16  19
HETATM   19  O   UNL     1      40.958  -7.499  13.345  1.00  0.00    -0.356 OA
HETATM   20  C   UNL     1      39.969  -6.617  12.826  1.00  0.00     0.210 C 
ENDBRANCH  16  19
ENDBRANCH  11  13
ENDBRANCH   6   7
ENDBRANCH   5   6
ENDBRANCH   1   5
BRANCH   2  21
HETATM   21  C   UNL     1      41.893 -14.701   3.611  1.00  0.00     0.050 A 
HETATM   22  C   UNL     1      42.031 -15.916   2.918  1.00  0.00     0.058 A 
HETATM   23  C   UNL     1      41.016 -16.343   2.046  1.00  0.00     0.019 A 
HETATM   24  C   UNL     1      39.875 -15.566   1.856  1.00  0.00     0.001 A 
HETATM   25  C   UNL     1      39.720 -14.379   2.567  1.00  0.00     0.002 A 
HETATM   26  C   UNL     1      40.715 -13.960   3.456  1.00  0.00     0.030 A 
BRANCH  22  27
HETATM   27  C   UNL     1      43.057 -16.930   3.248  1.00  0.00     0.254 C 
HETATM   28  N   UNL     1      42.969 -18.127   2.579  1.00  0.00    -0.352 N 
HETATM   29  H   UNL     1      42.282 -18.205   1.826  1.00  0.00     0.163 HD
HETATM   30  O   UNL     1      43.889 -16.671   4.114  1.00  0.00    -0.268 OA
BRANCH  28  31
HETATM   31  C   UNL     1      43.911 -19.185   2.760  1.00  0.00     0.084 A 
HETATM   32  C   UNL     1      43.457 -20.523   3.272  1.00  0.00     0.027 A 
HETATM   33  C   UNL     1      43.902 -20.380   1.845  1.00  0.00     0.027 A 
ENDBRANCH  28  31
ENDBRANCH  22  27
ENDBRANCH   2  21
TORSDOF 8
ENDMDL
MODEL 6
REMARK VINA RESULT:      -7.7      3.219      6.328
REMARK  8 active torsions:
REMARK  status: ('A' for Active; 'I' for Inactive)
REMARK    1  A    between atoms: O_2  and  C_3 
REMARK    2  A    between atoms: C_6  and  C_7 
REMARK    3  A    between atoms: C_11  and  S_12 
REMARK    4  A    between atoms: S_12  and  C_13 
REMARK    5  A    between atoms: C_13  and  C_14 
REMARK       I    between atoms: C_14  and  N_15 
REMARK    6  A    between atoms: N_15  and  C_16 
REMARK    7  A    between atoms: C_17  and  C_18 
REMARK       I    between atoms: C_18  and  N_19 
REMARK    8  A    between atoms: N_19  and  C_20 
ROOT
HETATM    1  C   UNL     1      39.537 -11.613   2.869  1.00  0.00     0.231 C 
HETATM    2  N   UNL     1      40.445 -12.120   1.962  1.00  0.00    -0.326 N 
HETATM    3  O   UNL     1      38.317 -11.759   2.757  1.00  0.00    -0.272 OA
HETATM    4  H   UNL     1      41.384 -12.260   2.326  1.00  0.00     0.169 HD
ENDROOT
BRANCH   1   5
HETATM    5  C   UNL     1      40.119 -10.766   3.995  1.00  0.00     0.185 C 
BRANCH   5   6
HETATM    6  S   UNL     1      41.867 -10.291   3.766  1.00  0.00    -0.081 SA
BRANCH   6   7
HETATM    7  C   UNL     1      42.630 -11.449   4.778  1.00  0.00     0.185 A 
HETATM    8  N   UNL     1      43.615 -11.167   5.664  1.00  0.00    -0.253 N 
HETATM    9  N   UNL     1      44.013 -12.286   6.305  1.00  0.00    -0.152 NA
HETATM   10  H   UNL     1      44.055 -10.278   5.873  1.00  0.00     0.191 HD
HETATM   11  C   UNL     1      43.215 -13.223   5.759  1.00  0.00     0.182 A 
HETATM   12  N   UNL     1      42.331 -12.717   4.831  1.00  0.00    -0.201 NA
BRANCH  11  13
HETATM   13  C   UNL     1      43.230 -14.646   6.078  1.00  0.00     0.014 A 
HETATM   14  C   UNL     1      42.058 -15.407   6.086  1.00  0.00     0.018 A 
HETATM   15  C   UNL     1      42.109 -16.775   6.385  1.00  0.00     0.037 A 
HETATM   16  C   UNL     1      43.324 -17.401   6.676  1.00  0.00     0.068 A 
HETATM   17  C   UNL     1      44.493 -16.645   6.686  1.00  0.00     0.037 A 
HETATM   18  C   UNL     1      44.445 -15.278   6.388  1.00  0.00     0.018 A 
BRANCH  16  19
HETATM   19  O   UNL     1      43.236 -18.740   6.939  1.00  0.00    -0.356 OA
HETATM   20  C   UNL     1      43.594 -19.621   5.879  1.00  0.00     0.210 C 
ENDBRANCH  16  19
ENDBRANCH  11  13
ENDBRANCH   6   7
ENDBRANCH   5   6
ENDBRANCH   1   5
BRANCH   2  21
HETATM   21  C   UNL     1      40.088 -12.885   0.836  1.00  0.00     0.050 A 
HETATM   22  C   UNL     1      40.244 -14.279   0.751  1.00  0.00     0.058 A 
HETATM   23  C   UNL     1      39.793 -14.965  -0.389  1.00  0.00     0.019 A 
HETATM   24  C   UNL     1      39.197 -14.272  -1.441  1.00  0.00     0.001 A 
HETATM   25  C   UNL     1      39.009 -12.895  -1.344  1.00  0.00     0.002 A 
HETATM   26  C   UNL     1      39.433 -12.209  -0.202  1.00  0.00     0.030 A 
BRANCH  22  27
HETATM   27  C   UNL     1      40.609 -15.129   1.905  1.00  0.00     0.254 C 
HETATM   28  N   UNL     1      41.562 -16.093   1.676  1.00  0.00    -0.352 N 
HETATM   29  H   UNL     1      42.035 -16.092   0.769  1.00  0.00     0.163 HD
HETATM   30  O   UNL     1      40.025 -14.962   2.972  1.00  0.00    -0.268 OA
BRANCH  28  31
HETATM   31  C   UNL     1      42.046 -16.961   2.701  1.00  0.00     0.084 A 
HETATM   32  C   UNL     1      42.807 -18.206   2.342  1.00  0.00     0.027 A 
HETATM   33  C   UNL     1      43.520 -17.054   2.990  1.00  0.00     0.027 A 
ENDBRANCH  28  31
ENDBRANCH  22  27
ENDBRANCH   2  21
TORSDOF 8
ENDMDL
MODEL 7
REMARK VINA RESULT:      -7.6      5.202      9.105
REMARK  8 active torsions:
REMARK  status: ('A' for Active; 'I' for Inactive)
REMARK    1  A    between atoms: O_2  and  C_3 
REMARK    2  A    between atoms: C_6  and  C_7 
REMARK    3  A    between atoms: C_11  and  S_12 
REMARK    4  A    between atoms: S_12  and  C_13 
REMARK    5  A    between atoms: C_13  and  C_14 
REMARK       I    between atoms: C_14  and  N_15 
REMARK    6  A    between atoms: N_15  and  C_16 
REMARK    7  A    between atoms: C_17  and  C_18 
REMARK       I    between atoms: C_18  and  N_19 
REMARK    8  A    between atoms: N_19  and  C_20 
ROOT
HETATM    1  C   UNL     1      40.674 -11.741  -0.107  1.00  0.00     0.231 C 
HETATM    2  N   UNL     1      39.548 -12.532  -0.011  1.00  0.00    -0.326 N 
HETATM    3  O   UNL     1      41.347 -11.643  -1.137  1.00  0.00    -0.272 OA
HETATM    4  H   UNL     1      38.893 -12.263   0.719  1.00  0.00     0.169 HD
ENDROOT
BRANCH   1   5
HETATM    5  C   UNL     1      41.113 -11.045   1.177  1.00  0.00     0.185 C 
BRANCH   5   6
HETATM    6  S   UNL     1      40.140 -11.491   2.656  1.00  0.00    -0.081 SA
BRANCH   6   7
HETATM    7  C   UNL     1      41.174 -12.671   3.354  1.00  0.00     0.185 A 
HETATM    8  N   UNL     1      41.937 -12.470   4.456  1.00  0.00    -0.253 N 
HETATM    9  N   UNL     1      42.643 -13.581   4.754  1.00  0.00    -0.152 NA
HETATM   10  H   UNL     1      42.032 -11.640   5.028  1.00  0.00     0.191 HD
HETATM   11  C   UNL     1      42.254 -14.431   3.785  1.00  0.00     0.182 A 
HETATM   12  N   UNL     1      41.321 -13.893   2.925  1.00  0.00    -0.201 NA
BRANCH  11  13
HETATM   13  C   UNL     1      42.728 -15.799   3.610  1.00  0.00     0.014 A 
HETATM   14  C   UNL     1      43.570 -16.409   4.545  1.00  0.00     0.018 A 
HETATM   15  C   UNL     1      43.996 -17.729   4.353  1.00  0.00     0.037 A 
HETATM   16  C   UNL     1      43.591 -18.459   3.232  1.00  0.00     0.068 A 
HETATM   17  C   UNL     1      42.765 -17.852   2.289  1.00  0.00     0.037 A 
HETATM   18  C   UNL     1      42.338 -16.533   2.478  1.00  0.00     0.018 A 
BRANCH  16  19
HETATM   19  O   UNL     1      44.068 -19.739   3.171  1.00  0.00    -0.356 OA
HETATM   20  C   UNL     1      43.771 -20.473   1.989  1.00  0.00     0.210 C 
ENDBRANCH  16  19
ENDBRANCH  11  13
ENDBRANCH   6   7
ENDBRANCH   5   6
ENDBRANCH   1   5
BRANCH   2  21
HETATM   21  C   UNL     1      39.022 -13.283  -1.079  1.00  0.00     0.050 A 
HETATM   22  C   UNL     1      38.139 -12.767  -2.043  1.00  0.00     0.058 A 
HETATM   23  C   UNL     1      37.722 -13.575  -3.113  1.00  0.00     0.019 A 
HETATM   24  C   UNL     1      38.172 -14.889  -3.223  1.00  0.00     0.001 A 
HETATM   25  C   UNL     1      39.074 -15.392  -2.289  1.00  0.00     0.002 A 
HETATM   26  C   UNL     1      39.512 -14.586  -1.234  1.00  0.00     0.030 A 
BRANCH  22  27
HETATM   27  C   UNL     1      37.822 -11.327  -2.169  1.00  0.00     0.254 C 
HETATM   28  N   UNL     1      38.063 -10.754  -3.395  1.00  0.00    -0.352 N 
HETATM   29  H   UNL     1      38.336 -11.369  -4.165  1.00  0.00     0.163 HD
HETATM   30  O   UNL     1      37.409 -10.723  -1.183  1.00  0.00    -0.268 OA
BRANCH  28  31
HETATM   31  C   UNL     1      37.768  -9.387  -3.681  1.00  0.00     0.084 A 
HETATM   32  C   UNL     1      38.828  -8.486  -4.249  1.00  0.00     0.027 A 
HETATM   33  C   UNL     1      37.669  -8.908  -5.104  1.00  0.00     0.027 A 
ENDBRANCH  28  31
ENDBRANCH  22  27
ENDBRANCH   2  21
TORSDOF 8
ENDMDL
MODEL 8
REMARK VINA RESULT:      -7.4      5.004      8.857
REMARK  8 active torsions:
REMARK  status: ('A' for Active; 'I' for Inactive)
REMARK    1  A    between atoms: O_2  and  C_3 
REMARK    2  A    between atoms: C_6  and  C_7 
REMARK    3  A    between atoms: C_11  and  S_12 
REMARK    4  A    between atoms: S_12  and  C_13 
REMARK    5  A    between atoms: C_13  and  C_14 
REMARK       I    between atoms: C_14  and  N_15 
REMARK    6  A    between atoms: N_15  and  C_16 
REMARK    7  A    between atoms: C_17  and  C_18 
REMARK       I    between atoms: C_18  and  N_19 
REMARK    8  A    between atoms: N_19  and  C_20 
ROOT
HETATM    1  C   UNL     1      40.951 -11.578   0.243  1.00  0.00     0.231 C 
HETATM    2  N   UNL     1      39.846 -12.396   0.357  1.00  0.00    -0.326 N 
HETATM    3  O   UNL     1      41.468 -11.287  -0.839  1.00  0.00    -0.272 OA
HETATM    4  H   UNL     1      39.305 -12.273   1.210  1.00  0.00     0.169 HD
ENDROOT
BRANCH   1   5
HETATM    5  C   UNL     1      41.574 -11.110   1.553  1.00  0.00     0.185 C 
BRANCH   5   6
HETATM    6  S   UNL     1      40.596 -11.500   3.045  1.00  0.00    -0.081 SA
BRANCH   6   7
HETATM    7  C   UNL     1      41.502 -12.819   3.664  1.00  0.00     0.185 A 
HETATM    8  N   UNL     1      42.211 -12.792   4.818  1.00  0.00    -0.253 N 
HETATM    9  N   UNL     1      42.819 -13.977   5.032  1.00  0.00    -0.152 NA
HETATM   10  H   UNL     1      42.331 -12.034   5.480  1.00  0.00     0.191 HD
HETATM   11  C   UNL     1      42.429 -14.691   3.959  1.00  0.00     0.182 A 
HETATM   12  N   UNL     1      41.588 -13.999   3.116  1.00  0.00    -0.201 NA
BRANCH  11  13
HETATM   13  C   UNL     1      42.815 -16.067   3.664  1.00  0.00     0.014 A 
HETATM   14  C   UNL     1      42.442 -16.693   2.472  1.00  0.00     0.018 A 
HETATM   15  C   UNL     1      42.841 -18.011   2.214  1.00  0.00     0.037 A 
HETATM   16  C   UNL     1      43.615 -18.720   3.137  1.00  0.00     0.068 A 
HETATM   17  C   UNL     1      43.976 -18.107   4.334  1.00  0.00     0.037 A 
HETATM   18  C   UNL     1      43.579 -16.791   4.593  1.00  0.00     0.018 A 
BRANCH  16  19
HETATM   19  O   UNL     1      43.945 -19.992   2.758  1.00  0.00    -0.356 OA
HETATM   20  C   UNL     1      43.948 -20.980   3.783  1.00  0.00     0.210 C 
ENDBRANCH  16  19
ENDBRANCH  11  13
ENDBRANCH   6   7
ENDBRANCH   5   6
ENDBRANCH   1   5
BRANCH   2  21
HETATM   21  C   UNL     1      39.168 -12.958  -0.740  1.00  0.00     0.050 A 
HETATM   22  C   UNL     1      38.120 -12.321  -1.427  1.00  0.00     0.058 A 
HETATM   23  C   UNL     1      37.551 -12.932  -2.556  1.00  0.00     0.019 A 
HETATM   24  C   UNL     1      38.011 -14.171  -2.997  1.00  0.00     0.001 A 
HETATM   25  C   UNL     1      39.072 -14.788  -2.339  1.00  0.00     0.002 A 
HETATM   26  C   UNL     1      39.661 -14.175  -1.230  1.00  0.00     0.030 A 
BRANCH  22  27
HETATM   27  C   UNL     1      37.747 -10.906  -1.211  1.00  0.00     0.254 C 
HETATM   28  N   UNL     1      36.461 -10.673  -0.784  1.00  0.00    -0.352 N 
HETATM   29  H   UNL     1      35.885 -11.480  -0.538  1.00  0.00     0.163 HD
HETATM   30  O   UNL     1      38.572 -10.031  -1.459  1.00  0.00    -0.268 OA
BRANCH  28  31
HETATM   31  C   UNL     1      35.969  -9.364  -0.493  1.00  0.00     0.084 A 
HETATM   32  C   UNL     1      34.525  -9.027  -0.736  1.00  0.00     0.027 A 
HETATM   33  C   UNL     1      35.040  -9.139   0.669  1.00  0.00     0.027 A 
ENDBRANCH  28  31
ENDBRANCH  22  27
ENDBRANCH   2  21
TORSDOF 8
ENDMDL
MODEL 9
REMARK VINA RESULT:      -7.4      3.271      5.319
REMARK  8 active torsions:
REMARK  status: ('A' for Active; 'I' for Inactive)
REMARK    1  A    between atoms: O_2  and  C_3 
REMARK    2  A    between atoms: C_6  and  C_7 
REMARK    3  A    between atoms: C_11  and  S_12 
REMARK    4  A    between atoms: S_12  and  C_13 
REMARK    5  A    between atoms: C_13  and  C_14 
REMARK       I    between atoms: C_14  and  N_15 
REMARK    6  A    between atoms: N_15  and  C_16 
REMARK    7  A    between atoms: C_17  and  C_18 
REMARK       I    between atoms: C_18  and  N_19 
REMARK    8  A    between atoms: N_19  and  C_20 
ROOT
HETATM    1  C   UNL     1      41.505 -12.387   5.277  1.00  0.00     0.231 C 
HETATM    2  N   UNL     1      40.407 -12.907   4.624  1.00  0.00    -0.326 N 
HETATM    3  O   UNL     1      42.655 -12.796   5.096  1.00  0.00    -0.272 OA
HETATM    4  H   UNL     1      39.605 -12.283   4.567  1.00  0.00     0.169 HD
ENDROOT
BRANCH   1   5
HETATM    5  C   UNL     1      41.215 -11.321   6.328  1.00  0.00     0.185 C 
BRANCH   5   6
HETATM    6  S   UNL     1      42.493 -10.024   6.468  1.00  0.00    -0.081 SA
BRANCH   6   7
HETATM    7  C   UNL     1      42.900 -10.180   8.129  1.00  0.00     0.185 A 
HETATM    8  N   UNL     1      43.787 -11.077   8.623  1.00  0.00    -0.253 N 
HETATM    9  N   UNL     1      43.887 -10.959   9.964  1.00  0.00    -0.152 NA
HETATM   10  H   UNL     1      44.333 -11.775   8.133  1.00  0.00     0.191 HD
HETATM   11  C   UNL     1      43.026  -9.956  10.223  1.00  0.00     0.182 A 
HETATM   12  N   UNL     1      42.428  -9.441   9.093  1.00  0.00    -0.201 NA
BRANCH  11  13
HETATM   13  C   UNL     1      42.720  -9.416  11.542  1.00  0.00     0.014 A 
HETATM   14  C   UNL     1      41.620  -9.864  12.280  1.00  0.00     0.018 A 
HETATM   15  C   UNL     1      41.361  -9.332  13.550  1.00  0.00     0.037 A 
HETATM   16  C   UNL     1      42.192  -8.353  14.102  1.00  0.00     0.068 A 
HETATM   17  C   UNL     1      43.280  -7.891  13.365  1.00  0.00     0.037 A 
HETATM   18  C   UNL     1      43.540  -8.420  12.096  1.00  0.00     0.018 A 
BRANCH  16  19
HETATM   19  O   UNL     1      41.834  -7.929  15.352  1.00  0.00    -0.356 OA
HETATM   20  C   UNL     1      40.780  -6.975  15.422  1.00  0.00     0.210 C 
ENDBRANCH  16  19
ENDBRANCH  11  13
ENDBRANCH   6   7
ENDBRANCH   5   6
ENDBRANCH   1   5
BRANCH   2  21
HETATM   21  C   UNL     1      40.477 -13.928   3.658  1.00  0.00     0.050 A 
HETATM   22  C   UNL     1      40.810 -15.262   3.946  1.00  0.00     0.058 A 
HETATM   23  C   UNL     1      40.785 -16.226   2.925  1.00  0.00     0.019 A 
HETATM   24  C   UNL     1      40.438 -15.868   1.624  1.00  0.00     0.001 A 
HETATM   25  C   UNL     1      40.074 -14.553   1.343  1.00  0.00     0.002 A 
HETATM   26  C   UNL     1      40.072 -13.594   2.358  1.00  0.00     0.030 A 
BRANCH  22  27
HETATM   27  C   UNL     1      40.925 -15.793   5.323  1.00  0.00     0.254 C 
HETATM   28  N   UNL     1      42.200 -15.927   5.820  1.00  0.00    -0.352 N 
HETATM   29  H   UNL     1      42.972 -15.555   5.264  1.00  0.00     0.163 HD
HETATM   30  O   UNL     1      39.903 -16.119   5.920  1.00  0.00    -0.268 OA
BRANCH  28  31
HETATM   31  C   UNL     1      42.468 -16.386   7.145  1.00  0.00     0.084 A 
HETATM   32  C   UNL     1      43.853 -16.824   7.529  1.00  0.00     0.027 A 
HETATM   33  C   UNL     1      43.288 -15.552   8.091  1.00  0.00     0.027 A 
ENDBRANCH  28  31
ENDBRANCH  22  27
ENDBRANCH   2  21
TORSDOF 8
ENDMDL
MODEL 10
REMARK VINA RESULT:      -7.3      3.047      5.326
REMARK  8 active torsions:
REMARK  status: ('A' for Active; 'I' for Inactive)
REMARK    1  A    between atoms: O_2  and  C_3 
REMARK    2  A    between atoms: C_6  and  C_7 
REMARK    3  A    between atoms: C_11  and  S_12 
REMARK    4  A    between atoms: S_12  and  C_13 
REMARK    5  A    between atoms: C_13  and  C_14 
REMARK       I    between atoms: C_14  and  N_15 
REMARK    6  A    between atoms: N_15  and  C_16 
REMARK    7  A    between atoms: C_17  and  C_18 
REMARK       I    between atoms: C_18  and  N_19 
REMARK    8  A    between atoms: N_19  and  C_20 
ROOT
HETATM    1  C   UNL     1      41.450 -12.765   4.393  1.00  0.00     0.231 C 
HETATM    2  N   UNL     1      40.946 -14.001   4.047  1.00  0.00    -0.326 N 
HETATM    3  O   UNL     1      42.635 -12.451   4.243  1.00  0.00    -0.272 OA
HETATM    4  H   UNL     1      39.944 -14.024   3.870  1.00  0.00     0.169 HD
ENDROOT
BRANCH   1   5
HETATM    5  C   UNL     1      40.473 -11.810   5.070  1.00  0.00     0.185 C 
BRANCH   5   6
HETATM    6  S   UNL     1      41.011 -10.065   5.099  1.00  0.00    -0.081 SA
BRANCH   6   7
HETATM    7  C   UNL     1      41.938 -10.060   6.544  1.00  0.00     0.185 A 
HETATM    8  N   UNL     1      43.186 -10.576   6.660  1.00  0.00    -0.253 N 
HETATM    9  N   UNL     1      43.647 -10.426   7.919  1.00  0.00    -0.152 NA
HETATM   10  H   UNL     1      43.758 -11.033   5.961  1.00  0.00     0.191 HD
HETATM   11  C   UNL     1      42.620  -9.799   8.523  1.00  0.00     0.182 A 
HETATM   12  N   UNL     1      41.564  -9.537   7.678  1.00  0.00    -0.201 NA
BRANCH  11  13
HETATM   13  C   UNL     1      42.570  -9.402   9.926  1.00  0.00     0.014 A 
HETATM   14  C   UNL     1      41.379  -9.438  10.656  1.00  0.00     0.018 A 
HETATM   15  C   UNL     1      41.369  -9.061  12.005  1.00  0.00     0.037 A 
HETATM   16  C   UNL     1      42.541  -8.647  12.644  1.00  0.00     0.068 A 
HETATM   17  C   UNL     1      43.728  -8.594  11.918  1.00  0.00     0.037 A 
HETATM   18  C   UNL     1      43.741  -8.969  10.570  1.00  0.00     0.018 A 
BRANCH  16  19
HETATM   19  O   UNL     1      42.395  -8.318  13.964  1.00  0.00    -0.356 OA
HETATM   20  C   UNL     1      43.044  -7.128  14.398  1.00  0.00     0.210 C 
ENDBRANCH  16  19
ENDBRANCH  11  13
ENDBRANCH   6   7
ENDBRANCH   5   6
ENDBRANCH   1   5
BRANCH   2  21
HETATM   21  C   UNL     1      41.710 -15.025   3.455  1.00  0.00     0.050 A 
HETATM   22  C   UNL     1      41.780 -15.253   2.071  1.00  0.00     0.058 A 
HETATM   23  C   UNL     1      42.626 -16.256   1.569  1.00  0.00     0.019 A 
HETATM   24  C   UNL     1      43.393 -17.032   2.436  1.00  0.00     0.001 A 
HETATM   25  C   UNL     1      43.351 -16.784   3.806  1.00  0.00     0.002 A 
HETATM   26  C   UNL     1      42.531 -15.772   4.310  1.00  0.00     0.030 A 
BRANCH  22  27
HETATM   27  C   UNL     1      41.225 -14.323   1.062  1.00  0.00     0.254 C 
HETATM   28  N   UNL     1      40.272 -14.837   0.216  1.00  0.00    -0.352 N 
HETATM   29  H   UNL     1      39.928 -15.782   0.401  1.00  0.00     0.163 HD
HETATM   30  O   UNL     1      41.666 -13.177   1.008  1.00  0.00    -0.268 OA
BRANCH  28  31
HETATM   31  C   UNL     1      39.617 -14.051  -0.780  1.00  0.00     0.084 A 
HETATM   32  C   UNL     1      40.240 -13.873  -2.135  1.00  0.00     0.027 A 
HETATM   33  C   UNL     1      39.000 -14.705  -1.985  1.00  0.00     0.027 A 
ENDBRANCH  28  31
ENDBRANCH  22  27
ENDBRANCH   2  21
TORSDOF 8
ENDMDL
