MODEL 1
REMARK VINA RESULT:      -8.3      0.000      0.000
REMARK  4 active torsions:
REMARK  status: ('A' for Active; 'I' for Inactive)
REMARK    1  A    between atoms: N_2  and  C_4 
REMARK    2  A    between atoms: N_2  and  C_16 
REMARK    3  A    between atoms: C_4  and  C_5 
REMARK    4  A    between atoms: C_16  and  C_17 
ROOT
HETATM    1  C   UNL     1      43.635 -12.807   6.329  1.00  0.00     0.270 C 
HETATM    2  N   UNL     1      42.923 -14.062   5.912  1.00  0.00    -0.064 N 
HETATM    3  H   UNL     1      42.959 -14.082   4.876  1.00  0.00     0.280 HD
ENDROOT
BRANCH   2   4
HETATM    4  C   UNL     1      43.640 -15.327   6.352  1.00  0.00     0.312 C 
BRANCH   4   5
HETATM    5  C   UNL     1      43.622 -16.398   5.269  1.00  0.00     0.133 A 
HETATM    6  N   UNL     1      43.830 -17.634   5.601  1.00  0.00    -0.233 NA
HETATM    7  C   UNL     1      43.793 -18.600   4.573  1.00  0.00     0.074 A 
HETATM    8  C   UNL     1      43.542 -18.268   3.237  1.00  0.00     0.061 A 
HETATM    9  C   UNL     1      44.005 -19.942   4.896  1.00  0.00     0.032 A 
HETATM   10  C   UNL     1      43.319 -16.848   2.923  1.00  0.00     0.259 A 
HETATM   11  C   UNL     1      43.499 -19.241   2.235  1.00  0.00     0.019 A 
HETATM   12  O   UNL     1      43.088 -16.442   1.794  1.00  0.00    -0.267 OA
HETATM   13  N   UNL     1      43.376 -15.986   3.990  1.00  0.00    -0.309 N 
HETATM   14  H   UNL     1      43.231 -15.017   3.736  1.00  0.00     0.170 HD
HETATM   15  C   UNL     1      43.712 -20.575   2.573  1.00  0.00     0.001 A 
HETATM   16  C   UNL     1      43.965 -20.925   3.900  1.00  0.00     0.002 A 
ENDBRANCH   4   5
ENDBRANCH   2   4
BRANCH   2  17
HETATM   17  C   UNL     1      41.464 -14.080   6.287  1.00  0.00     0.276 C 
BRANCH  17  18
HETATM   18  C   UNL     1      40.621 -13.095   5.525  1.00  0.00     0.003 A 
HETATM   19  C   UNL     1      40.260 -13.338   4.190  1.00  0.00     0.088 A 
HETATM   20  C   UNL     1      39.510 -12.405   3.466  1.00  0.00     0.001 A 
HETATM   21  O   UNL     1      40.710 -14.506   3.626  1.00  0.00    -0.325 OA
HETATM   22  C   UNL     1      39.161 -12.680   2.034  1.00  0.00     0.212 C 
HETATM   23  C   UNL     1      39.073 -11.233   4.097  1.00  0.00     0.036 A 
HETATM   24  O   UNL     1      40.064 -13.642   1.504  1.00  0.00    -0.362 OA
HETATM   25  C   UNL     1      40.105 -14.779   2.352  1.00  0.00     0.345 C 
HETATM   26  C   UNL     1      39.411 -10.993   5.426  1.00  0.00     0.035 A 
HETATM   27 CL   UNL     1      38.890  -9.547   6.195  1.00  0.00    -0.084 Cl
HETATM   28  C   UNL     1      40.182 -11.911   6.140  1.00  0.00     0.035 A 
ENDBRANCH  17  18
ENDBRANCH   2  17
TORSDOF 4
ENDMDL
MODEL 2
REMARK VINA RESULT:      -8.2      2.361      3.832
REMARK  4 active torsions:
REMARK  status: ('A' for Active; 'I' for Inactive)
REMARK    1  A    between atoms: N_2  and  C_4 
REMARK    2  A    between atoms: N_2  and  C_16 
REMARK    3  A    between atoms: C_4  and  C_5 
REMARK    4  A    between atoms: C_16  and  C_17 
ROOT
HETATM    1  C   UNL     1      40.507 -14.471   0.898  1.00  0.00     0.270 C 
HETATM    2  N   UNL     1      41.414 -14.491   2.096  1.00  0.00    -0.064 N 
HETATM    3  H   UNL     1      41.035 -15.218   2.731  1.00  0.00     0.280 HD
ENDROOT
BRANCH   2   4
HETATM    4  C   UNL     1      42.822 -14.956   1.768  1.00  0.00     0.312 C 
BRANCH   4   5
HETATM    5  C   UNL     1      43.191 -16.231   2.516  1.00  0.00     0.133 A 
HETATM    6  N   UNL     1      43.042 -17.375   1.923  1.00  0.00    -0.233 NA
HETATM    7  C   UNL     1      43.405 -18.533   2.642  1.00  0.00     0.074 A 
HETATM    8  C   UNL     1      43.911 -18.482   3.946  1.00  0.00     0.061 A 
HETATM    9  C   UNL     1      43.266 -19.781   2.032  1.00  0.00     0.032 A 
HETATM   10  C   UNL     1      44.051 -17.155   4.565  1.00  0.00     0.259 A 
HETATM   11  C   UNL     1      44.275 -19.640   4.638  1.00  0.00     0.019 A 
HETATM   12  O   UNL     1      44.484 -16.988   5.696  1.00  0.00    -0.267 OA
HETATM   13  N   UNL     1      43.670 -16.090   3.786  1.00  0.00    -0.309 N 
HETATM   14  H   UNL     1      43.768 -15.195   4.249  1.00  0.00     0.170 HD
HETATM   15  C   UNL     1      44.131 -20.877   4.015  1.00  0.00     0.001 A 
HETATM   16  C   UNL     1      43.627 -20.948   2.716  1.00  0.00     0.002 A 
ENDBRANCH   4   5
ENDBRANCH   2   4
BRANCH   2  17
HETATM   17  C   UNL     1      41.410 -13.202   2.875  1.00  0.00     0.276 C 
BRANCH  17  18
HETATM   18  C   UNL     1      42.069 -13.296   4.223  1.00  0.00     0.003 A 
HETATM   19  C   UNL     1      41.697 -14.294   5.138  1.00  0.00     0.088 A 
HETATM   20  C   UNL     1      42.280 -14.360   6.408  1.00  0.00     0.001 A 
HETATM   21  O   UNL     1      40.715 -15.168   4.741  1.00  0.00    -0.325 OA
HETATM   22  C   UNL     1      41.844 -15.421   7.374  1.00  0.00     0.212 C 
HETATM   23  C   UNL     1      43.282 -13.445   6.755  1.00  0.00     0.036 A 
HETATM   24  O   UNL     1      40.558 -15.900   7.000  1.00  0.00    -0.362 OA
HETATM   25  C   UNL     1      40.567 -16.283   5.634  1.00  0.00     0.345 C 
HETATM   26  C   UNL     1      43.670 -12.463   5.847  1.00  0.00     0.035 A 
HETATM   27 CL   UNL     1      44.888 -11.330   6.278  1.00  0.00    -0.084 Cl
HETATM   28  C   UNL     1      43.070 -12.381   4.590  1.00  0.00     0.035 A 
ENDBRANCH  17  18
ENDBRANCH   2  17
TORSDOF 4
ENDMDL
MODEL 3
REMARK VINA RESULT:      -8.1      1.996      2.578
REMARK  4 active torsions:
REMARK  status: ('A' for Active; 'I' for Inactive)
REMARK    1  A    between atoms: N_2  and  C_4 
REMARK    2  A    between atoms: N_2  and  C_16 
REMARK    3  A    between atoms: C_4  and  C_5 
REMARK    4  A    between atoms: C_16  and  C_17 
ROOT
HETATM    1  C   UNL     1      43.866 -12.875   6.410  1.00  0.00     0.270 C 
HETATM    2  N   UNL     1      43.144 -14.102   5.935  1.00  0.00    -0.064 N 
HETATM    3  H   UNL     1      43.284 -14.140   4.909  1.00  0.00     0.280 HD
ENDROOT
BRANCH   2   4
HETATM    4  C   UNL     1      43.753 -15.392   6.460  1.00  0.00     0.312 C 
BRANCH   4   5
HETATM    5  C   UNL     1      43.740 -16.496   5.411  1.00  0.00     0.133 A 
HETATM    6  N   UNL     1      43.892 -17.727   5.789  1.00  0.00    -0.233 NA
HETATM    7  C   UNL     1      43.862 -18.724   4.791  1.00  0.00     0.074 A 
HETATM    8  C   UNL     1      43.675 -18.427   3.436  1.00  0.00     0.061 A 
HETATM    9  C   UNL     1      44.015 -20.061   5.164  1.00  0.00     0.032 A 
HETATM   10  C   UNL     1      43.514 -17.012   3.070  1.00  0.00     0.259 A 
HETATM   11  C   UNL     1      43.638 -19.430   2.464  1.00  0.00     0.019 A 
HETATM   12  O   UNL     1      43.342 -16.634   1.920  1.00  0.00    -0.267 OA
HETATM   13  N   UNL     1      43.559 -16.118   4.111  1.00  0.00    -0.309 N 
HETATM   14  H   UNL     1      43.458 -15.153   3.821  1.00  0.00     0.170 HD
HETATM   15  C   UNL     1      43.791 -20.759   2.852  1.00  0.00     0.001 A 
HETATM   16  C   UNL     1      43.979 -21.074   4.198  1.00  0.00     0.002 A 
ENDBRANCH   4   5
ENDBRANCH   2   4
BRANCH   2  17
HETATM   17  C   UNL     1      41.655 -14.049   6.159  1.00  0.00     0.276 C 
BRANCH  17  18
HETATM   18  C   UNL     1      40.857 -13.755   4.919  1.00  0.00     0.003 A 
HETATM   19  C   UNL     1      40.243 -12.506   4.737  1.00  0.00     0.088 A 
HETATM   20  C   UNL     1      39.466 -12.243   3.603  1.00  0.00     0.001 A 
HETATM   21  O   UNL     1      40.409 -11.579   5.736  1.00  0.00    -0.325 OA
HETATM   22  C   UNL     1      38.802 -10.908   3.448  1.00  0.00     0.212 C 
HETATM   23  C   UNL     1      39.338 -13.225   2.613  1.00  0.00     0.036 A 
HETATM   24  O   UNL     1      38.686 -10.287   4.723  1.00  0.00    -0.362 OA
HETATM   25  C   UNL     1      39.952 -10.269   5.364  1.00  0.00     0.345 C 
HETATM   26  C   UNL     1      39.958 -14.461   2.777  1.00  0.00     0.035 A 
HETATM   27 CL   UNL     1      39.787 -15.673   1.571  1.00  0.00    -0.084 Cl
HETATM   28  C   UNL     1      40.710 -14.733   3.921  1.00  0.00     0.035 A 
ENDBRANCH  17  18
ENDBRANCH   2  17
TORSDOF 4
ENDMDL
MODEL 4
REMARK VINA RESULT:      -8.1      2.004      2.485
REMARK  4 active torsions:
REMARK  status: ('A' for Active; 'I' for Inactive)
REMARK    1  A    between atoms: N_2  and  C_4 
REMARK    2  A    between atoms: N_2  and  C_16 
REMARK    3  A    between atoms: C_4  and  C_5 
REMARK    4  A    between atoms: C_16  and  C_17 
ROOT
HETATM    1  C   UNL     1      43.992 -12.038   5.178  1.00  0.00     0.270 C 
HETATM    2  N   UNL     1      42.993 -13.054   4.706  1.00  0.00    -0.064 N 
HETATM    3  H   UNL     1      43.358 -13.422   3.808  1.00  0.00     0.280 HD
ENDROOT
BRANCH   2   4
HETATM    4  C   UNL     1      42.904 -14.268   5.616  1.00  0.00     0.312 C 
BRANCH   4   5
HETATM    5  C   UNL     1      43.149 -15.567   4.859  1.00  0.00     0.133 A 
HETATM    6  N   UNL     1      43.370 -16.655   5.529  1.00  0.00    -0.233 NA
HETATM    7  C   UNL     1      43.580 -17.841   4.795  1.00  0.00     0.074 A 
HETATM    8  C   UNL     1      43.556 -17.874   3.396  1.00  0.00     0.061 A 
HETATM    9  C   UNL     1      43.813 -19.032   5.485  1.00  0.00     0.032 A 
HETATM   10  C   UNL     1      43.306 -16.607   2.694  1.00  0.00     0.259 A 
HETATM   11  C   UNL     1      43.757 -19.062   2.687  1.00  0.00     0.019 A 
HETATM   12  O   UNL     1      43.260 -16.516   1.476  1.00  0.00    -0.267 OA
HETATM   13  N   UNL     1      43.115 -15.509   3.495  1.00  0.00    -0.309 N 
HETATM   14  H   UNL     1      42.959 -14.652   2.978  1.00  0.00     0.170 HD
HETATM   15  C   UNL     1      43.987 -20.242   3.390  1.00  0.00     0.001 A 
HETATM   16  C   UNL     1      44.016 -20.228   4.785  1.00  0.00     0.002 A 
ENDBRANCH   4   5
ENDBRANCH   2   4
BRANCH   2  17
HETATM   17  C   UNL     1      41.637 -12.471   4.406  1.00  0.00     0.276 C 
BRANCH  17  18
HETATM   18  C   UNL     1      41.338 -12.332   2.939  1.00  0.00     0.003 A 
HETATM   19  C   UNL     1      40.759 -13.389   2.219  1.00  0.00     0.088 A 
HETATM   20  C   UNL     1      40.517 -13.277   0.845  1.00  0.00     0.001 A 
HETATM   21  O   UNL     1      40.484 -14.540   2.915  1.00  0.00    -0.325 OA
HETATM   22  C   UNL     1      39.922 -14.432   0.097  1.00  0.00     0.212 C 
HETATM   23  C   UNL     1      40.812 -12.076   0.189  1.00  0.00     0.036 A 
HETATM   24  O   UNL     1      40.141 -15.632   0.828  1.00  0.00    -0.362 OA
HETATM   25  C   UNL     1      39.688 -15.470   2.163  1.00  0.00     0.345 C 
HETATM   26  C   UNL     1      41.370 -11.016   0.900  1.00  0.00     0.035 A 
HETATM   27 CL   UNL     1      41.749  -9.547   0.092  1.00  0.00    -0.084 Cl
HETATM   28  C   UNL     1      41.636 -11.137   2.264  1.00  0.00     0.035 A 
ENDBRANCH  17  18
ENDBRANCH   2  17
TORSDOF 4
ENDMDL
MODEL 5
REMARK VINA RESULT:      -8.0      3.201      7.226
REMARK  4 active torsions:
REMARK  status: ('A' for Active; 'I' for Inactive)
REMARK    1  A    between atoms: N_2  and  C_4 
REMARK    2  A    between atoms: N_2  and  C_16 
REMARK    3  A    between atoms: C_4  and  C_5 
REMARK    4  A    between atoms: C_16  and  C_17 
ROOT
HETATM    1  C   UNL     1      43.083 -15.556   8.006  1.00  0.00     0.270 C 
HETATM    2  N   UNL     1      42.143 -14.864   7.060  1.00  0.00    -0.064 N 
HETATM    3  H   UNL     1      41.583 -14.210   7.638  1.00  0.00     0.280 HD
ENDROOT
BRANCH   2   4
HETATM    4  C   UNL     1      42.858 -13.980   6.053  1.00  0.00     0.312 C 
BRANCH   4   5
HETATM    5  C   UNL     1      43.177 -12.605   6.626  1.00  0.00     0.133 A 
HETATM    6  N   UNL     1      44.404 -12.319   6.934  1.00  0.00    -0.233 NA
HETATM    7  C   UNL     1      44.663 -11.032   7.450  1.00  0.00     0.074 A 
HETATM    8  C   UNL     1      43.655 -10.077   7.634  1.00  0.00     0.061 A 
HETATM    9  C   UNL     1      45.974 -10.688   7.785  1.00  0.00     0.032 A 
HETATM   10  C   UNL     1      42.284 -10.464   7.270  1.00  0.00     0.259 A 
HETATM   11  C   UNL     1      43.934  -8.804   8.137  1.00  0.00     0.019 A 
HETATM   12  O   UNL     1      41.326  -9.714   7.384  1.00  0.00    -0.267 OA
HETATM   13  N   UNL     1      42.134 -11.737   6.778  1.00  0.00    -0.309 N 
HETATM   14  H   UNL     1      41.175 -11.973   6.551  1.00  0.00     0.170 HD
HETATM   15  C   UNL     1      45.247  -8.476   8.465  1.00  0.00     0.001 A 
HETATM   16  C   UNL     1      46.265  -9.415   8.291  1.00  0.00     0.002 A 
ENDBRANCH   4   5
ENDBRANCH   2   4
BRANCH   2  17
HETATM   17  C   UNL     1      41.161 -15.795   6.399  1.00  0.00     0.276 C 
BRANCH  17  18
HETATM   18  C   UNL     1      41.505 -16.145   4.978  1.00  0.00     0.003 A 
HETATM   19  C   UNL     1      42.484 -17.110   4.692  1.00  0.00     0.088 A 
HETATM   20  C   UNL     1      42.836 -17.409   3.371  1.00  0.00     0.001 A 
HETATM   21  O   UNL     1      43.100 -17.710   5.763  1.00  0.00    -0.325 OA
HETATM   22  C   UNL     1      43.903 -18.427   3.096  1.00  0.00     0.212 C 
HETATM   23  C   UNL     1      42.169 -16.771   2.318  1.00  0.00     0.036 A 
HETATM   24  O   UNL     1      44.720 -18.577   4.251  1.00  0.00    -0.362 OA
HETATM   25  C   UNL     1      43.906 -18.837   5.383  1.00  0.00     0.345 C 
HETATM   26  C   UNL     1      41.184 -15.825   2.593  1.00  0.00     0.035 A 
HETATM   27 CL   UNL     1      40.377 -15.028   1.302  1.00  0.00    -0.084 Cl
HETATM   28  C   UNL     1      40.852 -15.507   3.911  1.00  0.00     0.035 A 
ENDBRANCH  17  18
ENDBRANCH   2  17
TORSDOF 4
ENDMDL
MODEL 6
REMARK VINA RESULT:      -7.9      2.777      4.092
REMARK  4 active torsions:
REMARK  status: ('A' for Active; 'I' for Inactive)
REMARK    1  A    between atoms: N_2  and  C_4 
REMARK    2  A    between atoms: N_2  and  C_16 
REMARK    3  A    between atoms: C_4  and  C_5 
REMARK    4  A    between atoms: C_16  and  C_17 
ROOT
HETATM    1  C   UNL     1      40.569 -15.036   3.350  1.00  0.00     0.270 C 
HETATM    2  N   UNL     1      41.367 -14.333   2.291  1.00  0.00    -0.064 N 
HETATM    3  H   UNL     1      41.227 -13.318   2.451  1.00  0.00     0.280 HD
ENDROOT
BRANCH   2   4
HETATM    4  C   UNL     1      42.865 -14.547   2.434  1.00  0.00     0.312 C 
BRANCH   4   5
HETATM    5  C   UNL     1      43.190 -15.904   3.048  1.00  0.00     0.133 A 
HETATM    6  N   UNL     1      43.079 -16.969   2.317  1.00  0.00    -0.233 NA
HETATM    7  C   UNL     1      43.401 -18.205   2.916  1.00  0.00     0.074 A 
HETATM    8  C   UNL     1      43.829 -18.310   4.244  1.00  0.00     0.061 A 
HETATM    9  C   UNL     1      43.300 -19.372   2.156  1.00  0.00     0.032 A 
HETATM   10  C   UNL     1      43.929 -17.066   5.022  1.00  0.00     0.259 A 
HETATM   11  C   UNL     1      44.153 -19.543   4.816  1.00  0.00     0.019 A 
HETATM   12  O   UNL     1      44.293 -17.035   6.188  1.00  0.00    -0.267 OA
HETATM   13  N   UNL     1      43.593 -15.915   4.352  1.00  0.00    -0.309 N 
HETATM   14  H   UNL     1      43.662 -15.081   4.922  1.00  0.00     0.170 HD
HETATM   15  C   UNL     1      44.048 -20.698   4.044  1.00  0.00     0.001 A 
HETATM   16  C   UNL     1      43.622 -20.613   2.718  1.00  0.00     0.002 A 
ENDBRANCH   4   5
ENDBRANCH   2   4
BRANCH   2  17
HETATM   17  C   UNL     1      40.887 -14.612   0.891  1.00  0.00     0.276 C 
BRANCH  17  18
HETATM   18  C   UNL     1      39.903 -13.604   0.366  1.00  0.00     0.003 A 
HETATM   19  C   UNL     1      39.302 -13.772  -0.892  1.00  0.00     0.088 A 
HETATM   20  C   UNL     1      38.416 -12.816  -1.401  1.00  0.00     0.001 A 
HETATM   21  O   UNL     1      39.655 -14.890  -1.607  1.00  0.00    -0.325 OA
HETATM   22  C   UNL     1      37.810 -13.010  -2.759  1.00  0.00     0.212 C 
HETATM   23  C   UNL     1      38.088 -11.698  -0.624  1.00  0.00     0.036 A 
HETATM   24  O   UNL     1      38.612 -13.913  -3.510  1.00  0.00    -0.362 OA
HETATM   25  C   UNL     1      38.827 -15.099  -2.761  1.00  0.00     0.345 C 
HETATM   26  C   UNL     1      38.665 -11.532   0.632  1.00  0.00     0.035 A 
HETATM   27 CL   UNL     1      38.276 -10.152   1.580  1.00  0.00    -0.084 Cl
HETATM   28  C   UNL     1      39.569 -12.473   1.128  1.00  0.00     0.035 A 
ENDBRANCH  17  18
ENDBRANCH   2  17
TORSDOF 4
ENDMDL
MODEL 7
REMARK VINA RESULT:      -7.8      3.450      7.097
REMARK  4 active torsions:
REMARK  status: ('A' for Active; 'I' for Inactive)
REMARK    1  A    between atoms: N_2  and  C_4 
REMARK    2  A    between atoms: N_2  and  C_16 
REMARK    3  A    between atoms: C_4  and  C_5 
REMARK    4  A    between atoms: C_16  and  C_17 
ROOT
HETATM    1  C   UNL     1      43.128 -15.686   8.121  1.00  0.00     0.270 C 
HETATM    2  N   UNL     1      42.326 -14.874   7.146  1.00  0.00    -0.064 N 
HETATM    3  H   UNL     1      41.780 -14.199   7.713  1.00  0.00     0.280 HD
ENDROOT
BRANCH   2   4
HETATM    4  C   UNL     1      43.188 -14.012   6.238  1.00  0.00     0.312 C 
BRANCH   4   5
HETATM    5  C   UNL     1      43.320 -12.588   6.762  1.00  0.00     0.133 A 
HETATM    6  N   UNL     1      44.418 -12.233   7.353  1.00  0.00    -0.233 NA
HETATM    7  C   UNL     1      44.509 -10.902   7.814  1.00  0.00     0.074 A 
HETATM    8  C   UNL     1      43.472  -9.977   7.651  1.00  0.00     0.061 A 
HETATM    9  C   UNL     1      45.680 -10.484   8.448  1.00  0.00     0.032 A 
HETATM   10  C   UNL     1      42.251 -10.442   6.977  1.00  0.00     0.259 A 
HETATM   11  C   UNL     1      43.586  -8.660   8.105  1.00  0.00     0.019 A 
HETATM   12  O   UNL     1      41.282  -9.722   6.777  1.00  0.00    -0.267 OA
HETATM   13  N   UNL     1      42.258 -11.752   6.567  1.00  0.00    -0.309 N 
HETATM   14  H   UNL     1      41.397 -12.041   6.119  1.00  0.00     0.170 HD
HETATM   15  C   UNL     1      44.761  -8.258   8.736  1.00  0.00     0.001 A 
HETATM   16  C   UNL     1      45.806  -9.168   8.907  1.00  0.00     0.002 A 
ENDBRANCH   4   5
ENDBRANCH   2   4
BRANCH   2  17
HETATM   17  C   UNL     1      41.321 -15.685   6.369  1.00  0.00     0.276 C 
BRANCH  17  18
HETATM   18  C   UNL     1      41.801 -16.123   5.013  1.00  0.00     0.003 A 
HETATM   19  C   UNL     1      41.283 -15.543   3.844  1.00  0.00     0.088 A 
HETATM   20  C   UNL     1      41.698 -15.977   2.580  1.00  0.00     0.001 A 
HETATM   21  O   UNL     1      40.329 -14.568   4.002  1.00  0.00    -0.325 OA
HETATM   22  C   UNL     1      41.107 -15.357   1.349  1.00  0.00     0.212 C 
HETATM   23  C   UNL     1      42.679 -16.971   2.480  1.00  0.00     0.036 A 
HETATM   24  O   UNL     1      39.863 -14.750   1.676  1.00  0.00    -0.362 OA
HETATM   25  C   UNL     1      40.031 -13.875   2.780  1.00  0.00     0.345 C 
HETATM   26  C   UNL     1      43.211 -17.539   3.635  1.00  0.00     0.035 A 
HETATM   27 CL   UNL     1      44.403 -18.771   3.513  1.00  0.00    -0.084 Cl
HETATM   28  C   UNL     1      42.778 -17.125   4.895  1.00  0.00     0.035 A 
ENDBRANCH  17  18
ENDBRANCH   2  17
TORSDOF 4
ENDMDL
MODEL 8
REMARK VINA RESULT:      -7.8      4.152      8.096
REMARK  4 active torsions:
REMARK  status: ('A' for Active; 'I' for Inactive)
REMARK    1  A    between atoms: N_2  and  C_4 
REMARK    2  A    between atoms: N_2  and  C_16 
REMARK    3  A    between atoms: C_4  and  C_5 
REMARK    4  A    between atoms: C_16  and  C_17 
ROOT
HETATM    1  C   UNL     1      41.764 -12.935   1.907  1.00  0.00     0.270 C 
HETATM    2  N   UNL     1      41.641 -14.429   1.991  1.00  0.00    -0.064 N 
HETATM    3  H   UNL     1      41.432 -14.645   2.984  1.00  0.00     0.280 HD
ENDROOT
BRANCH   2   4
HETATM    4  C   UNL     1      40.452 -14.973   1.216  1.00  0.00     0.312 C 
BRANCH   4   5
HETATM    5  C   UNL     1      40.016 -14.026   0.105  1.00  0.00     0.133 A 
HETATM    6  N   UNL     1      39.126 -13.120   0.362  1.00  0.00    -0.233 NA
HETATM    7  C   UNL     1      38.756 -12.253  -0.688  1.00  0.00     0.074 A 
HETATM    8  C   UNL     1      39.312 -12.342  -1.969  1.00  0.00     0.061 A 
HETATM    9  C   UNL     1      37.805 -11.260  -0.444  1.00  0.00     0.032 A 
HETATM   10  C   UNL     1      40.313 -13.394  -2.199  1.00  0.00     0.259 A 
HETATM   11  C   UNL     1      38.940 -11.467  -2.993  1.00  0.00     0.019 A 
HETATM   12  O   UNL     1      40.868 -13.565  -3.275  1.00  0.00    -0.267 OA
HETATM   13  N   UNL     1      40.605 -14.187  -1.117  1.00  0.00    -0.309 N 
HETATM   14  H   UNL     1      41.288 -14.908  -1.315  1.00  0.00     0.170 HD
HETATM   15  C   UNL     1      37.991 -10.481  -2.733  1.00  0.00     0.001 A 
HETATM   16  C   UNL     1      37.424 -10.378  -1.462  1.00  0.00     0.002 A 
ENDBRANCH   4   5
ENDBRANCH   2   4
BRANCH   2  17
HETATM   17  C   UNL     1      42.916 -15.159   1.657  1.00  0.00     0.276 C 
BRANCH  17  18
HETATM   18  C   UNL     1      43.203 -16.335   2.548  1.00  0.00     0.003 A 
HETATM   19  C   UNL     1      43.383 -16.164   3.930  1.00  0.00     0.088 A 
HETATM   20  C   UNL     1      43.690 -17.251   4.756  1.00  0.00     0.001 A 
HETATM   21  O   UNL     1      43.281 -14.885   4.418  1.00  0.00    -0.325 OA
HETATM   22  C   UNL     1      43.901 -17.034   6.225  1.00  0.00     0.212 C 
HETATM   23  C   UNL     1      43.774 -18.535   4.203  1.00  0.00     0.036 A 
HETATM   24  O   UNL     1      44.221 -15.668   6.459  1.00  0.00    -0.362 OA
HETATM   25  C   UNL     1      43.244 -14.836   5.853  1.00  0.00     0.345 C 
HETATM   26  C   UNL     1      43.581 -18.716   2.836  1.00  0.00     0.035 A 
HETATM   27 CL   UNL     1      43.701 -20.289   2.154  1.00  0.00    -0.084 Cl
HETATM   28  C   UNL     1      43.300 -17.628   2.008  1.00  0.00     0.035 A 
ENDBRANCH  17  18
ENDBRANCH   2  17
TORSDOF 4
ENDMDL
MODEL 9
REMARK VINA RESULT:      -7.7      3.224      6.343
REMARK  4 active torsions:
REMARK  status: ('A' for Active; 'I' for Inactive)
REMARK    1  A    between atoms: N_2  and  C_4 
REMARK    2  A    between atoms: N_2  and  C_16 
REMARK    3  A    between atoms: C_4  and  C_5 
REMARK    4  A    between atoms: C_16  and  C_17 
ROOT
HETATM    1  C   UNL     1      40.439 -12.035   5.228  1.00  0.00     0.270 C 
HETATM    2  N   UNL     1      41.195 -12.561   4.042  1.00  0.00    -0.064 N 
HETATM    3  H   UNL     1      40.770 -13.479   3.814  1.00  0.00     0.280 HD
ENDROOT
BRANCH   2   4
HETATM    4  C   UNL     1      41.000 -11.719   2.792  1.00  0.00     0.312 C 
BRANCH   4   5
HETATM    5  C   UNL     1      40.544 -12.559   1.605  1.00  0.00     0.133 A 
HETATM    6  N   UNL     1      40.394 -11.989   0.450  1.00  0.00    -0.233 NA
HETATM    7  C   UNL     1      39.984 -12.801  -0.629  1.00  0.00     0.074 A 
HETATM    8  C   UNL     1      39.741 -14.172  -0.489  1.00  0.00     0.061 A 
HETATM    9  C   UNL     1      39.820 -12.222  -1.888  1.00  0.00     0.032 A 
HETATM   10  C   UNL     1      39.923 -14.758   0.848  1.00  0.00     0.259 A 
HETATM   11  C   UNL     1      39.345 -14.961  -1.572  1.00  0.00     0.019 A 
HETATM   12  O   UNL     1      39.743 -15.943   1.088  1.00  0.00    -0.267 OA
HETATM   13  N   UNL     1      40.323 -13.887   1.831  1.00  0.00    -0.309 N 
HETATM   14  H   UNL     1      40.426 -14.322   2.740  1.00  0.00     0.170 HD
HETATM   15  C   UNL     1      39.187 -14.368  -2.822  1.00  0.00     0.001 A 
HETATM   16  C   UNL     1      39.423 -13.002  -2.981  1.00  0.00     0.002 A 
ENDBRANCH   4   5
ENDBRANCH   2   4
BRANCH   2  17
HETATM   17  C   UNL     1      42.651 -12.825   4.324  1.00  0.00     0.276 C 
BRANCH  17  18
HETATM   18  C   UNL     1      42.947 -14.233   4.760  1.00  0.00     0.003 A 
HETATM   19  C   UNL     1      43.100 -15.262   3.817  1.00  0.00     0.088 A 
HETATM   20  C   UNL     1      43.336 -16.581   4.221  1.00  0.00     0.001 A 
HETATM   21  O   UNL     1      42.968 -14.919   2.494  1.00  0.00    -0.325 OA
HETATM   22  C   UNL     1      43.470 -17.662   3.191  1.00  0.00     0.212 C 
HETATM   23  C   UNL     1      43.468 -16.870   5.585  1.00  0.00     0.036 A 
HETATM   24  O   UNL     1      42.858 -17.239   1.979  1.00  0.00    -0.362 OA
HETATM   25  C   UNL     1      43.369 -15.971   1.602  1.00  0.00     0.345 C 
HETATM   26  C   UNL     1      43.335 -15.853   6.526  1.00  0.00     0.035 A 
HETATM   27 CL   UNL     1      43.480 -16.210   8.201  1.00  0.00    -0.084 Cl
HETATM   28  C   UNL     1      43.074 -14.542   6.124  1.00  0.00     0.035 A 
ENDBRANCH  17  18
ENDBRANCH   2  17
TORSDOF 4
ENDMDL
MODEL 10
REMARK VINA RESULT:      -7.7      2.654      4.169
REMARK  4 active torsions:
REMARK  status: ('A' for Active; 'I' for Inactive)
REMARK    1  A    between atoms: N_2  and  C_4 
REMARK    2  A    between atoms: N_2  and  C_16 
REMARK    3  A    between atoms: C_4  and  C_5 
REMARK    4  A    between atoms: C_16  and  C_17 
ROOT
HETATM    1  C   UNL     1      39.796 -12.627   4.400  1.00  0.00     0.270 C 
HETATM    2  N   UNL     1      41.238 -12.670   3.982  1.00  0.00    -0.064 N 
HETATM    3  H   UNL     1      41.761 -13.054   4.791  1.00  0.00     0.280 HD
ENDROOT
BRANCH   2   4
HETATM    4  C   UNL     1      41.499 -13.648   2.849  1.00  0.00     0.312 C 
BRANCH   4   5
HETATM    5  C   UNL     1      42.202 -14.909   3.335  1.00  0.00     0.133 A 
HETATM    6  N   UNL     1      42.222 -15.955   2.570  1.00  0.00    -0.233 NA
HETATM    7  C   UNL     1      42.894 -17.100   3.048  1.00  0.00     0.074 A 
HETATM    8  C   UNL     1      43.525 -17.136   4.297  1.00  0.00     0.061 A 
HETATM    9  C   UNL     1      42.942 -18.242   2.246  1.00  0.00     0.032 A 
HETATM   10  C   UNL     1      43.463 -15.919   5.121  1.00  0.00     0.259 A 
HETATM   11  C   UNL     1      44.194 -18.276   4.749  1.00  0.00     0.019 A 
HETATM   12  O   UNL     1      43.979 -15.833   6.225  1.00  0.00    -0.267 OA
HETATM   13  N   UNL     1      42.786 -14.859   4.569  1.00  0.00    -0.309 N 
HETATM   14  H   UNL     1      42.752 -14.044   5.168  1.00  0.00     0.170 HD
HETATM   15  C   UNL     1      44.233 -19.407   3.936  1.00  0.00     0.001 A 
HETATM   16  C   UNL     1      43.608 -19.391   2.689  1.00  0.00     0.002 A 
ENDBRANCH   4   5
ENDBRANCH   2   4
BRANCH   2  17
HETATM   17  C   UNL     1      41.824 -11.311   3.703  1.00  0.00     0.276 C 
BRANCH  17  18
HETATM   18  C   UNL     1      42.046 -10.473   4.931  1.00  0.00     0.003 A 
HETATM   19  C   UNL     1      42.912 -10.903   5.949  1.00  0.00     0.088 A 
HETATM   20  C   UNL     1      43.089 -10.144   7.112  1.00  0.00     0.001 A 
HETATM   21  O   UNL     1      43.537 -12.112   5.767  1.00  0.00    -0.325 OA
HETATM   22  C   UNL     1      44.000 -10.642   8.194  1.00  0.00     0.212 C 
HETATM   23  C   UNL     1      42.430  -8.915   7.240  1.00  0.00     0.036 A 
HETATM   24  O   UNL     1      44.170 -12.048   8.060  1.00  0.00    -0.362 OA
HETATM   25  C   UNL     1      44.569 -12.358   6.734  1.00  0.00     0.345 C 
HETATM   26  C   UNL     1      41.583  -8.473   6.227  1.00  0.00     0.035 A 
HETATM   27 CL   UNL     1      40.761  -6.973   6.391  1.00  0.00    -0.084 Cl
HETATM   28  C   UNL     1      41.386  -9.242   5.080  1.00  0.00     0.035 A 
ENDBRANCH  17  18
ENDBRANCH   2  17
TORSDOF 4
ENDMDL
