MODEL 1
REMARK VINA RESULT:      -8.1      0.000      0.000
REMARK  5 active torsions:
REMARK  status: ('A' for Active; 'I' for Inactive)
REMARK    1  A    between atoms: C_2  and  N_3 
REMARK    2  A    between atoms: C_2  and  C_19 
REMARK       I    between atoms: N_3  and  C_4 
REMARK    3  A    between atoms: C_4  and  C_5 
REMARK    4  A    between atoms: C_7  and  O_8 
REMARK    5  A    between atoms: O_8  and  C_9 
ROOT
HETATM    1  C   UNL     1      41.151 -14.694   2.466  1.00  0.00     0.146 A 
HETATM    2  O   UNL     1      42.423 -15.204   2.487  1.00  0.00    -0.282 OA
HETATM    3  C   UNL     1      42.443 -16.249   3.357  1.00  0.00     0.191 A 
HETATM    4  C   UNL     1      41.193 -16.424   3.909  1.00  0.00     0.067 A 
HETATM    5  C   UNL     1      40.362 -15.427   3.337  1.00  0.00     0.048 A 
ENDROOT
BRANCH   1   6
HETATM    6  C   UNL     1      40.894 -13.556   1.599  1.00  0.00     0.276 C 
HETATM    7  N   UNL     1      39.597 -13.464   1.125  1.00  0.00    -0.347 N 
HETATM    8  H   UNL     1      38.971 -14.240   1.270  1.00  0.00     0.163 HD
HETATM    9  O   UNL     1      41.746 -12.723   1.297  1.00  0.00    -0.265 OA
BRANCH   7  10
HETATM   10  C   UNL     1      39.205 -12.457   0.155  1.00  0.00     0.114 C 
HETATM   11  C   UNL     1      38.151 -11.527   0.759  1.00  0.00     0.037 C 
BRANCH  10  12
HETATM   12  C   UNL     1      38.743 -13.132  -1.122  1.00  0.00    -0.033 A 
HETATM   13  C   UNL     1      39.405 -14.280  -1.576  1.00  0.00     0.028 A 
HETATM   14  C   UNL     1      38.963 -14.895  -2.736  1.00  0.00     0.116 A 
HETATM   15  N   UNL     1      37.913 -14.460  -3.464  1.00  0.00    -0.273 NA
HETATM   16  C   UNL     1      37.274 -13.364  -3.005  1.00  0.00     0.116 A 
HETATM   17  C   UNL     1      37.641 -12.679  -1.856  1.00  0.00     0.028 A 
ENDBRANCH  10  12
ENDBRANCH   7  10
ENDBRANCH   1   6
BRANCH   3  18
HETATM   18  O   UNL     1      43.635 -16.830   3.469  1.00  0.00    -0.286 OA
BRANCH  18  19
HETATM   19  C   UNL     1      43.698 -18.181   3.704  1.00  0.00     0.100 A 
HETATM   20  C   UNL     1      43.912 -18.666   4.997  1.00  0.00     0.068 A 
HETATM   21 CL   UNL     1      44.038 -17.604   6.350  1.00  0.00    -0.081 Cl
HETATM   22  C   UNL     1      44.017 -20.042   5.214  1.00  0.00     0.026 A 
HETATM   23  C   UNL     1      43.920 -20.929   4.139  1.00  0.00     0.002 A 
HETATM   24  C   UNL     1      43.724 -20.442   2.846  1.00  0.00     0.003 A 
HETATM   25  C   UNL     1      43.621 -19.068   2.626  1.00  0.00     0.039 A 
ENDBRANCH  18  19
ENDBRANCH   3  18
TORSDOF 5
ENDMDL
MODEL 2
REMARK VINA RESULT:      -8.1      5.414      7.267
REMARK  5 active torsions:
REMARK  status: ('A' for Active; 'I' for Inactive)
REMARK    1  A    between atoms: C_2  and  N_3 
REMARK    2  A    between atoms: C_2  and  C_19 
REMARK       I    between atoms: N_3  and  C_4 
REMARK    3  A    between atoms: C_4  and  C_5 
REMARK    4  A    between atoms: C_7  and  O_8 
REMARK    5  A    between atoms: O_8  and  C_9 
ROOT
HETATM    1  C   UNL     1      42.429 -14.996   6.302  1.00  0.00     0.146 A 
HETATM    2  O   UNL     1      43.390 -15.449   5.435  1.00  0.00    -0.282 OA
HETATM    3  C   UNL     1      43.616 -16.761   5.706  1.00  0.00     0.191 A 
HETATM    4  C   UNL     1      42.813 -17.171   6.748  1.00  0.00     0.067 A 
HETATM    5  C   UNL     1      42.050 -16.040   7.131  1.00  0.00     0.048 A 
ENDROOT
BRANCH   1   6
HETATM    6  C   UNL     1      42.027 -13.603   6.199  1.00  0.00     0.276 C 
HETATM    7  N   UNL     1      43.070 -12.693   6.220  1.00  0.00    -0.347 N 
HETATM    8  H   UNL     1      43.994 -13.017   6.455  1.00  0.00     0.163 HD
HETATM    9  O   UNL     1      40.859 -13.236   6.097  1.00  0.00    -0.265 OA
BRANCH   7  10
HETATM   10  C   UNL     1      42.834 -11.260   6.247  1.00  0.00     0.114 C 
HETATM   11  C   UNL     1      42.713 -10.720   4.820  1.00  0.00     0.037 C 
BRANCH  10  12
HETATM   12  C   UNL     1      43.925 -10.579   7.051  1.00  0.00    -0.033 A 
HETATM   13  C   UNL     1      45.235 -11.071   6.995  1.00  0.00     0.028 A 
HETATM   14  C   UNL     1      46.226 -10.431   7.722  1.00  0.00     0.116 A 
HETATM   15  N   UNL     1      46.009  -9.340   8.486  1.00  0.00    -0.273 NA
HETATM   16  C   UNL     1      44.746  -8.865   8.516  1.00  0.00     0.116 A 
HETATM   17  C   UNL     1      43.688  -9.437   7.824  1.00  0.00     0.028 A 
ENDBRANCH  10  12
ENDBRANCH   7  10
ENDBRANCH   1   6
BRANCH   3  18
HETATM   18  O   UNL     1      44.540 -17.317   4.926  1.00  0.00    -0.286 OA
BRANCH  18  19
HETATM   19  C   UNL     1      44.194 -18.395   4.148  1.00  0.00     0.100 A 
HETATM   20  C   UNL     1      43.633 -18.202   2.882  1.00  0.00     0.068 A 
HETATM   21 CL   UNL     1      43.412 -16.625   2.222  1.00  0.00    -0.081 Cl
HETATM   22  C   UNL     1      43.247 -19.308   2.120  1.00  0.00     0.026 A 
HETATM   23  C   UNL     1      43.412 -20.599   2.626  1.00  0.00     0.002 A 
HETATM   24  C   UNL     1      43.956 -20.788   3.897  1.00  0.00     0.003 A 
HETATM   25  C   UNL     1      44.341 -19.686   4.662  1.00  0.00     0.039 A 
ENDBRANCH  18  19
ENDBRANCH   3  18
TORSDOF 5
ENDMDL
MODEL 3
REMARK VINA RESULT:      -8.0      3.896      6.100
REMARK  5 active torsions:
REMARK  status: ('A' for Active; 'I' for Inactive)
REMARK    1  A    between atoms: C_2  and  N_3 
REMARK    2  A    between atoms: C_2  and  C_19 
REMARK       I    between atoms: N_3  and  C_4 
REMARK    3  A    between atoms: C_4  and  C_5 
REMARK    4  A    between atoms: C_7  and  O_8 
REMARK    5  A    between atoms: O_8  and  C_9 
ROOT
HETATM    1  C   UNL     1      41.175 -14.563   3.653  1.00  0.00     0.146 A 
HETATM    2  O   UNL     1      42.433 -15.109   3.650  1.00  0.00    -0.282 OA
HETATM    3  C   UNL     1      42.406 -16.221   2.869  1.00  0.00     0.191 A 
HETATM    4  C   UNL     1      41.138 -16.411   2.365  1.00  0.00     0.067 A 
HETATM    5  C   UNL     1      40.347 -15.346   2.866  1.00  0.00     0.048 A 
ENDROOT
BRANCH   1   6
HETATM    6  C   UNL     1      40.965 -13.355   4.435  1.00  0.00     0.276 C 
HETATM    7  N   UNL     1      41.922 -12.371   4.256  1.00  0.00    -0.347 N 
HETATM    8  H   UNL     1      42.757 -12.594   3.740  1.00  0.00     0.163 HD
HETATM    9  O   UNL     1      40.019 -13.197   5.202  1.00  0.00    -0.265 OA
BRANCH   7  10
HETATM   10  C   UNL     1      41.926 -11.155   5.049  1.00  0.00     0.114 C 
HETATM   11  C   UNL     1      41.968  -9.930   4.134  1.00  0.00     0.037 C 
BRANCH  10  12
HETATM   12  C   UNL     1      43.074 -11.197   6.040  1.00  0.00    -0.033 A 
HETATM   13  C   UNL     1      44.339 -11.622   5.616  1.00  0.00     0.028 A 
HETATM   14  C   UNL     1      45.382 -11.641   6.528  1.00  0.00     0.116 A 
HETATM   15  N   UNL     1      45.259 -11.262   7.817  1.00  0.00    -0.273 NA
HETATM   16  C   UNL     1      44.040 -10.837   8.207  1.00  0.00     0.116 A 
HETATM   17  C   UNL     1      42.935 -10.783   7.370  1.00  0.00     0.028 A 
ENDBRANCH  10  12
ENDBRANCH   7  10
ENDBRANCH   1   6
BRANCH   3  18
HETATM   18  O   UNL     1      43.577 -16.848   2.789  1.00  0.00    -0.286 OA
BRANCH  18  19
HETATM   19  C   UNL     1      43.668 -18.149   3.218  1.00  0.00     0.100 A 
HETATM   20  C   UNL     1      44.061 -18.436   4.528  1.00  0.00     0.068 A 
HETATM   21 CL   UNL     1      44.381 -17.184   5.670  1.00  0.00    -0.081 Cl
HETATM   22  C   UNL     1      44.191 -19.765   4.938  1.00  0.00     0.026 A 
HETATM   23  C   UNL     1      43.939 -20.803   4.037  1.00  0.00     0.002 A 
HETATM   24  C   UNL     1      43.564 -20.514   2.724  1.00  0.00     0.003 A 
HETATM   25  C   UNL     1      43.436 -19.187   2.311  1.00  0.00     0.039 A 
ENDBRANCH  18  19
ENDBRANCH   3  18
TORSDOF 5
ENDMDL
MODEL 4
REMARK VINA RESULT:      -7.9      6.841      9.246
REMARK  5 active torsions:
REMARK  status: ('A' for Active; 'I' for Inactive)
REMARK    1  A    between atoms: C_2  and  N_3 
REMARK    2  A    between atoms: C_2  and  C_19 
REMARK       I    between atoms: N_3  and  C_4 
REMARK    3  A    between atoms: C_4  and  C_5 
REMARK    4  A    between atoms: C_7  and  O_8 
REMARK    5  A    between atoms: O_8  and  C_9 
ROOT
HETATM    1  C   UNL     1      43.986 -12.348   6.586  1.00  0.00     0.146 A 
HETATM    2  O   UNL     1      44.062 -11.900   7.880  1.00  0.00    -0.282 OA
HETATM    3  C   UNL     1      45.177 -11.133   7.995  1.00  0.00     0.191 A 
HETATM    4  C   UNL     1      45.837 -11.078   6.787  1.00  0.00     0.067 A 
HETATM    5  C   UNL     1      45.073 -11.857   5.881  1.00  0.00     0.048 A 
ENDROOT
BRANCH   1   6
HETATM    6  C   UNL     1      42.863 -13.200   6.230  1.00  0.00     0.276 C 
HETATM    7  N   UNL     1      43.176 -14.538   6.065  1.00  0.00    -0.347 N 
HETATM    8  H   UNL     1      44.146 -14.811   6.045  1.00  0.00     0.163 HD
HETATM    9  O   UNL     1      41.715 -12.788   6.082  1.00  0.00    -0.265 OA
BRANCH   7  10
HETATM   10  C   UNL     1      42.197 -15.501   5.593  1.00  0.00     0.114 C 
HETATM   11  C   UNL     1      41.432 -16.096   6.777  1.00  0.00     0.037 C 
BRANCH  10  12
HETATM   12  C   UNL     1      42.883 -16.549   4.739  1.00  0.00    -0.033 A 
HETATM   13  C   UNL     1      43.798 -17.431   5.328  1.00  0.00     0.028 A 
HETATM   14  C   UNL     1      44.407 -18.394   4.539  1.00  0.00     0.116 A 
HETATM   15  N   UNL     1      44.164 -18.546   3.220  1.00  0.00    -0.273 NA
HETATM   16  C   UNL     1      43.268 -17.703   2.670  1.00  0.00     0.116 A 
HETATM   17  C   UNL     1      42.608 -16.707   3.376  1.00  0.00     0.028 A 
ENDBRANCH  10  12
ENDBRANCH   7  10
ENDBRANCH   1   6
BRANCH   3  18
HETATM   18  O   UNL     1      45.364 -10.640   9.217  1.00  0.00    -0.286 OA
BRANCH  18  19
HETATM   19  C   UNL     1      44.627  -9.552   9.617  1.00  0.00     0.100 A 
HETATM   20  C   UNL     1      43.841  -9.616  10.770  1.00  0.00     0.068 A 
HETATM   21 CL   UNL     1      43.812 -11.023  11.767  1.00  0.00    -0.081 Cl
HETATM   22  C   UNL     1      43.063  -8.516  11.141  1.00  0.00     0.026 A 
HETATM   23  C   UNL     1      43.064  -7.362  10.354  1.00  0.00     0.002 A 
HETATM   24  C   UNL     1      43.837  -7.306   9.193  1.00  0.00     0.003 A 
HETATM   25  C   UNL     1      44.613  -8.404   8.819  1.00  0.00     0.039 A 
ENDBRANCH  18  19
ENDBRANCH   3  18
TORSDOF 5
ENDMDL
MODEL 5
REMARK VINA RESULT:      -7.6      1.881      2.325
REMARK  5 active torsions:
REMARK  status: ('A' for Active; 'I' for Inactive)
REMARK    1  A    between atoms: C_2  and  N_3 
REMARK    2  A    between atoms: C_2  and  C_19 
REMARK       I    between atoms: N_3  and  C_4 
REMARK    3  A    between atoms: C_4  and  C_5 
REMARK    4  A    between atoms: C_7  and  O_8 
REMARK    5  A    between atoms: O_8  and  C_9 
ROOT
HETATM    1  C   UNL     1      42.124 -12.606   3.085  1.00  0.00     0.146 A 
HETATM    2  O   UNL     1      41.547 -13.844   3.206  1.00  0.00    -0.282 OA
HETATM    3  C   UNL     1      42.165 -14.498   4.225  1.00  0.00     0.191 A 
HETATM    4  C   UNL     1      43.146 -13.699   4.770  1.00  0.00     0.067 A 
HETATM    5  C   UNL     1      43.120 -12.483   4.040  1.00  0.00     0.048 A 
ENDROOT
BRANCH   1   6
HETATM    6  C   UNL     1      41.621 -11.725   2.044  1.00  0.00     0.276 C 
HETATM    7  N   UNL     1      40.410 -12.107   1.492  1.00  0.00    -0.347 N 
HETATM    8  H   UNL     1      40.038 -13.015   1.718  1.00  0.00     0.163 HD
HETATM    9  O   UNL     1      42.205 -10.712   1.667  1.00  0.00    -0.265 OA
BRANCH   7  10
HETATM   10  C   UNL     1      39.829 -11.405   0.361  1.00  0.00     0.114 C 
HETATM   11  C   UNL     1      38.339 -11.157   0.605  1.00  0.00     0.037 C 
BRANCH  10  12
HETATM   12  C   UNL     1      40.103 -12.178  -0.914  1.00  0.00    -0.033 A 
HETATM   13  C   UNL     1      40.961 -11.637  -1.880  1.00  0.00     0.028 A 
HETATM   14  C   UNL     1      41.216 -12.361  -3.034  1.00  0.00     0.116 A 
HETATM   15  N   UNL     1      40.689 -13.577  -3.288  1.00  0.00    -0.273 NA
HETATM   16  C   UNL     1      39.880 -14.094  -2.341  1.00  0.00     0.116 A 
HETATM   17  C   UNL     1      39.565 -13.447  -1.155  1.00  0.00     0.028 A 
ENDBRANCH  10  12
ENDBRANCH   7  10
ENDBRANCH   1   6
BRANCH   3  18
HETATM   18  O   UNL     1      41.692 -15.723   4.440  1.00  0.00    -0.286 OA
BRANCH  18  19
HETATM   19  C   UNL     1      42.431 -16.804   4.028  1.00  0.00     0.100 A 
HETATM   20  C   UNL     1      43.295 -17.451   4.916  1.00  0.00     0.068 A 
HETATM   21 CL   UNL     1      43.421 -16.968   6.567  1.00  0.00    -0.081 Cl
HETATM   22  C   UNL     1      44.073 -18.523   4.471  1.00  0.00     0.026 A 
HETATM   23  C   UNL     1      43.994 -18.939   3.139  1.00  0.00     0.002 A 
HETATM   24  C   UNL     1      43.144 -18.280   2.249  1.00  0.00     0.003 A 
HETATM   25  C   UNL     1      42.368 -17.208   2.691  1.00  0.00     0.039 A 
ENDBRANCH  18  19
ENDBRANCH   3  18
TORSDOF 5
ENDMDL
MODEL 6
REMARK VINA RESULT:      -7.5      5.726      8.212
REMARK  5 active torsions:
REMARK  status: ('A' for Active; 'I' for Inactive)
REMARK    1  A    between atoms: C_2  and  N_3 
REMARK    2  A    between atoms: C_2  and  C_19 
REMARK       I    between atoms: N_3  and  C_4 
REMARK    3  A    between atoms: C_4  and  C_5 
REMARK    4  A    between atoms: C_7  and  O_8 
REMARK    5  A    between atoms: O_8  and  C_9 
ROOT
HETATM    1  C   UNL     1      43.228 -13.630   5.151  1.00  0.00     0.146 A 
HETATM    2  O   UNL     1      43.345 -12.265   5.205  1.00  0.00    -0.282 OA
HETATM    3  C   UNL     1      43.557 -11.912   6.501  1.00  0.00     0.191 A 
HETATM    4  C   UNL     1      43.574 -13.036   7.297  1.00  0.00     0.067 A 
HETATM    5  C   UNL     1      43.363 -14.140   6.432  1.00  0.00     0.048 A 
ENDROOT
BRANCH   1   6
HETATM    6  C   UNL     1      42.990 -14.236   3.852  1.00  0.00     0.276 C 
HETATM    7  N   UNL     1      42.595 -15.563   3.891  1.00  0.00    -0.347 N 
HETATM    8  H   UNL     1      42.646 -16.059   4.766  1.00  0.00     0.163 HD
HETATM    9  O   UNL     1      43.120 -13.638   2.786  1.00  0.00    -0.265 OA
BRANCH   7  10
HETATM   10  C   UNL     1      42.434 -16.350   2.681  1.00  0.00     0.114 C 
HETATM   11  C   UNL     1      40.968 -16.343   2.242  1.00  0.00     0.037 C 
BRANCH  10  12
HETATM   12  C   UNL     1      42.984 -17.745   2.904  1.00  0.00    -0.033 A 
HETATM   13  C   UNL     1      43.645 -18.046   4.102  1.00  0.00     0.028 A 
HETATM   14  C   UNL     1      44.128 -19.329   4.299  1.00  0.00     0.116 A 
HETATM   15  N   UNL     1      43.994 -20.328   3.401  1.00  0.00    -0.273 NA
HETATM   16  C   UNL     1      43.340 -20.029   2.260  1.00  0.00     0.116 A 
HETATM   17  C   UNL     1      42.821 -18.776   1.971  1.00  0.00     0.028 A 
ENDBRANCH  10  12
ENDBRANCH   7  10
ENDBRANCH   1   6
BRANCH   3  18
HETATM   18  O   UNL     1      43.685 -10.600   6.684  1.00  0.00    -0.286 OA
BRANCH  18  19
HETATM   19  C   UNL     1      43.924 -10.124   7.950  1.00  0.00     0.100 A 
HETATM   20  C   UNL     1      45.224 -10.095   8.462  1.00  0.00     0.068 A 
HETATM   21 CL   UNL     1      46.579 -10.588   7.515  1.00  0.00    -0.081 Cl
HETATM   22  C   UNL     1      45.446  -9.649   9.767  1.00  0.00     0.026 A 
HETATM   23  C   UNL     1      44.370  -9.244  10.560  1.00  0.00     0.002 A 
HETATM   24  C   UNL     1      43.070  -9.290  10.053  1.00  0.00     0.003 A 
HETATM   25  C   UNL     1      42.845  -9.738   8.751  1.00  0.00     0.039 A 
ENDBRANCH  18  19
ENDBRANCH   3  18
TORSDOF 5
ENDMDL
MODEL 7
REMARK VINA RESULT:      -7.5      4.063      5.717
REMARK  5 active torsions:
REMARK  status: ('A' for Active; 'I' for Inactive)
REMARK    1  A    between atoms: C_2  and  N_3 
REMARK    2  A    between atoms: C_2  and  C_19 
REMARK       I    between atoms: N_3  and  C_4 
REMARK    3  A    between atoms: C_4  and  C_5 
REMARK    4  A    between atoms: C_7  and  O_8 
REMARK    5  A    between atoms: O_8  and  C_9 
ROOT
HETATM    1  C   UNL     1      42.373 -14.593   3.191  1.00  0.00     0.146 A 
HETATM    2  O   UNL     1      43.392 -15.503   3.069  1.00  0.00    -0.282 OA
HETATM    3  C   UNL     1      42.856 -16.680   2.654  1.00  0.00     0.191 A 
HETATM    4  C   UNL     1      41.492 -16.551   2.507  1.00  0.00     0.067 A 
HETATM    5  C   UNL     1      41.181 -15.211   2.850  1.00  0.00     0.048 A 
ENDROOT
BRANCH   1   6
HETATM    6  C   UNL     1      42.714 -13.251   3.633  1.00  0.00     0.276 C 
HETATM    7  N   UNL     1      42.570 -13.030   4.991  1.00  0.00    -0.347 N 
HETATM    8  H   UNL     1      42.106 -13.728   5.551  1.00  0.00     0.163 HD
HETATM    9  O   UNL     1      43.105 -12.364   2.877  1.00  0.00    -0.265 OA
BRANCH   7  10
HETATM   10  C   UNL     1      42.753 -11.713   5.577  1.00  0.00     0.114 C 
HETATM   11  C   UNL     1      43.839 -11.763   6.653  1.00  0.00     0.037 C 
BRANCH  10  12
HETATM   12  C   UNL     1      41.425 -11.196   6.094  1.00  0.00    -0.033 A 
HETATM   13  C   UNL     1      40.248 -11.895   5.798  1.00  0.00     0.028 A 
HETATM   14  C   UNL     1      39.042 -11.420   6.290  1.00  0.00     0.116 A 
HETATM   15  N   UNL     1      38.928 -10.315   7.056  1.00  0.00    -0.273 NA
HETATM   16  C   UNL     1      40.072  -9.662   7.349  1.00  0.00     0.116 A 
HETATM   17  C   UNL     1      41.324 -10.058   6.903  1.00  0.00     0.028 A 
ENDBRANCH  10  12
ENDBRANCH   7  10
ENDBRANCH   1   6
BRANCH   3  18
HETATM   18  O   UNL     1      43.753 -17.652   2.501  1.00  0.00    -0.286 OA
BRANCH  18  19
HETATM   19  C   UNL     1      43.815 -18.655   3.438  1.00  0.00     0.100 A 
HETATM   20  C   UNL     1      43.770 -19.995   3.044  1.00  0.00     0.068 A 
HETATM   21 CL   UNL     1      43.701 -20.446   1.380  1.00  0.00    -0.081 Cl
HETATM   22  C   UNL     1      43.791 -21.003   4.011  1.00  0.00     0.026 A 
HETATM   23  C   UNL     1      43.846 -20.671   5.366  1.00  0.00     0.002 A 
HETATM   24  C   UNL     1      43.873 -19.332   5.759  1.00  0.00     0.003 A 
HETATM   25  C   UNL     1      43.850 -18.322   4.795  1.00  0.00     0.039 A 
ENDBRANCH  18  19
ENDBRANCH   3  18
TORSDOF 5
ENDMDL
MODEL 8
REMARK VINA RESULT:      -7.4      6.316      8.510
REMARK  5 active torsions:
REMARK  status: ('A' for Active; 'I' for Inactive)
REMARK    1  A    between atoms: C_2  and  N_3 
REMARK    2  A    between atoms: C_2  and  C_19 
REMARK       I    between atoms: N_3  and  C_4 
REMARK    3  A    between atoms: C_4  and  C_5 
REMARK    4  A    between atoms: C_7  and  O_8 
REMARK    5  A    between atoms: O_8  and  C_9 
ROOT
HETATM    1  C   UNL     1      43.223 -13.828   6.799  1.00  0.00     0.146 A 
HETATM    2  O   UNL     1      42.708 -14.393   5.660  1.00  0.00    -0.282 OA
HETATM    3  C   UNL     1      42.262 -15.638   5.974  1.00  0.00     0.191 A 
HETATM    4  C   UNL     1      42.485 -15.895   7.309  1.00  0.00     0.067 A 
HETATM    5  C   UNL     1      43.101 -14.733   7.840  1.00  0.00     0.048 A 
ENDROOT
BRANCH   1   6
HETATM    6  C   UNL     1      43.768 -12.484   6.699  1.00  0.00     0.276 C 
HETATM    7  N   UNL     1      43.994 -11.855   7.911  1.00  0.00    -0.347 N 
HETATM    8  H   UNL     1      43.637 -12.279   8.752  1.00  0.00     0.163 HD
HETATM    9  O   UNL     1      44.020 -11.928   5.632  1.00  0.00    -0.265 OA
BRANCH   7  10
HETATM   10  C   UNL     1      44.422 -10.469   7.986  1.00  0.00     0.114 C 
HETATM   11  C   UNL     1      45.949 -10.393   8.046  1.00  0.00     0.037 C 
BRANCH  10  12
HETATM   12  C   UNL     1      43.744  -9.789   9.161  1.00  0.00    -0.033 A 
HETATM   13  C   UNL     1      44.456  -9.595  10.352  1.00  0.00     0.028 A 
HETATM   14  C   UNL     1      43.831  -8.959  11.412  1.00  0.00     0.116 A 
HETATM   15  N   UNL     1      42.563  -8.498  11.368  1.00  0.00    -0.273 NA
HETATM   16  C   UNL     1      41.895  -8.676  10.209  1.00  0.00     0.116 A 
HETATM   17  C   UNL     1      42.435  -9.301   9.094  1.00  0.00     0.028 A 
ENDBRANCH  10  12
ENDBRANCH   7  10
ENDBRANCH   1   6
BRANCH   3  18
HETATM   18  O   UNL     1      41.739 -16.295   4.942  1.00  0.00    -0.286 OA
BRANCH  18  19
HETATM   19  C   UNL     1      42.548 -17.118   4.196  1.00  0.00     0.100 A 
HETATM   20  C   UNL     1      42.325 -17.276   2.826  1.00  0.00     0.068 A 
HETATM   21 CL   UNL     1      41.081 -16.407   2.006  1.00  0.00    -0.081 Cl
HETATM   22  C   UNL     1      43.128 -18.150   2.089  1.00  0.00     0.026 A 
HETATM   23  C   UNL     1      44.144 -18.870   2.723  1.00  0.00     0.002 A 
HETATM   24  C   UNL     1      44.354 -18.723   4.095  1.00  0.00     0.003 A 
HETATM   25  C   UNL     1      43.551 -17.853   4.834  1.00  0.00     0.039 A 
ENDBRANCH  18  19
ENDBRANCH   3  18
TORSDOF 5
ENDMDL
MODEL 9
REMARK VINA RESULT:      -7.3      3.440      8.388
REMARK  5 active torsions:
REMARK  status: ('A' for Active; 'I' for Inactive)
REMARK    1  A    between atoms: C_2  and  N_3 
REMARK    2  A    between atoms: C_2  and  C_19 
REMARK       I    between atoms: N_3  and  C_4 
REMARK    3  A    between atoms: C_4  and  C_5 
REMARK    4  A    between atoms: C_7  and  O_8 
REMARK    5  A    between atoms: O_8  and  C_9 
ROOT
HETATM    1  C   UNL     1      41.799 -14.889   3.150  1.00  0.00     0.146 A 
HETATM    2  O   UNL     1      40.548 -14.649   2.640  1.00  0.00    -0.282 OA
HETATM    3  C   UNL     1      40.678 -13.783   1.601  1.00  0.00     0.191 A 
HETATM    4  C   UNL     1      42.004 -13.450   1.429  1.00  0.00     0.067 A 
HETATM    5  C   UNL     1      42.724 -14.160   2.422  1.00  0.00     0.048 A 
ENDROOT
BRANCH   1   6
HETATM    6  C   UNL     1      41.903 -15.793   4.284  1.00  0.00     0.276 C 
HETATM    7  N   UNL     1      43.197 -16.065   4.695  1.00  0.00    -0.347 N 
HETATM    8  H   UNL     1      43.964 -15.764   4.116  1.00  0.00     0.163 HD
HETATM    9  O   UNL     1      40.933 -16.289   4.853  1.00  0.00    -0.265 OA
BRANCH   7  10
HETATM   10  C   UNL     1      43.481 -17.039   5.734  1.00  0.00     0.114 C 
HETATM   11  C   UNL     1      44.689 -16.591   6.559  1.00  0.00     0.037 C 
BRANCH  10  12
HETATM   12  C   UNL     1      43.660 -18.411   5.112  1.00  0.00    -0.033 A 
HETATM   13  C   UNL     1      43.838 -18.524   3.727  1.00  0.00     0.028 A 
HETATM   14  C   UNL     1      44.016 -19.781   3.173  1.00  0.00     0.116 A 
HETATM   15  N   UNL     1      44.038 -20.922   3.893  1.00  0.00    -0.273 NA
HETATM   16  C   UNL     1      43.884 -20.797   5.227  1.00  0.00     0.116 A 
HETATM   17  C   UNL     1      43.699 -19.584   5.874  1.00  0.00     0.028 A 
ENDBRANCH  10  12
ENDBRANCH   7  10
ENDBRANCH   1   6
BRANCH   3  18
HETATM   18  O   UNL     1      39.523 -13.467   1.021  1.00  0.00    -0.286 OA
BRANCH  18  19
HETATM   19  C   UNL     1      39.476 -13.344  -0.346  1.00  0.00     0.100 A 
HETATM   20  C   UNL     1      39.354 -12.084  -0.939  1.00  0.00     0.068 A 
HETATM   21 CL   UNL     1      39.323 -10.640   0.003  1.00  0.00    -0.081 Cl
HETATM   22  C   UNL     1      39.263 -11.978  -2.330  1.00  0.00     0.026 A 
HETATM   23  C   UNL     1      39.283 -13.128  -3.122  1.00  0.00     0.002 A 
HETATM   24  C   UNL     1      39.388 -14.387  -2.527  1.00  0.00     0.003 A 
HETATM   25  C   UNL     1      39.476 -14.496  -1.138  1.00  0.00     0.039 A 
ENDBRANCH  18  19
ENDBRANCH   3  18
TORSDOF 5
ENDMDL
MODEL 10
REMARK VINA RESULT:      -7.2      7.075      9.389
REMARK  5 active torsions:
REMARK  status: ('A' for Active; 'I' for Inactive)
REMARK    1  A    between atoms: C_2  and  N_3 
REMARK    2  A    between atoms: C_2  and  C_19 
REMARK       I    between atoms: N_3  and  C_4 
REMARK    3  A    between atoms: C_4  and  C_5 
REMARK    4  A    between atoms: C_7  and  O_8 
REMARK    5  A    between atoms: O_8  and  C_9 
ROOT
HETATM    1  C   UNL     1      43.079 -11.751   6.565  1.00  0.00     0.146 A 
HETATM    2  O   UNL     1      42.296 -12.007   5.469  1.00  0.00    -0.282 OA
HETATM    3  C   UNL     1      42.436 -13.321   5.150  1.00  0.00     0.191 A 
HETATM    4  C   UNL     1      43.309 -13.927   6.026  1.00  0.00     0.067 A 
HETATM    5  C   UNL     1      43.722 -12.921   6.936  1.00  0.00     0.048 A 
ENDROOT
BRANCH   1   6
HETATM    6  C   UNL     1      43.090 -10.394   7.086  1.00  0.00     0.276 C 
HETATM    7  N   UNL     1      43.928 -10.191   8.168  1.00  0.00    -0.347 N 
HETATM    8  H   UNL     1      44.345 -10.991   8.617  1.00  0.00     0.163 HD
HETATM    9  O   UNL     1      42.417  -9.479   6.617  1.00  0.00    -0.265 OA
BRANCH   7  10
HETATM   10  C   UNL     1      43.967  -8.926   8.881  1.00  0.00     0.114 C 
HETATM   11  C   UNL     1      45.350  -8.287   8.744  1.00  0.00     0.037 C 
BRANCH  10  12
HETATM   12  C   UNL     1      43.550  -9.141  10.323  1.00  0.00    -0.033 A 
HETATM   13  C   UNL     1      43.187  -8.040  11.109  1.00  0.00     0.028 A 
HETATM   14  C   UNL     1      42.793  -8.251  12.421  1.00  0.00     0.116 A 
HETATM   15  N   UNL     1      42.726  -9.470  12.997  1.00  0.00    -0.273 NA
HETATM   16  C   UNL     1      43.060 -10.522  12.223  1.00  0.00     0.116 A 
HETATM   17  C   UNL     1      43.467 -10.413  10.901  1.00  0.00     0.028 A 
ENDBRANCH  10  12
ENDBRANCH   7  10
ENDBRANCH   1   6
BRANCH   3  18
HETATM   18  O   UNL     1      41.722 -13.694   4.091  1.00  0.00    -0.286 OA
BRANCH  18  19
HETATM   19  C   UNL     1      42.151 -14.760   3.339  1.00  0.00     0.100 A 
HETATM   20  C   UNL     1      41.696 -16.051   3.619  1.00  0.00     0.068 A 
HETATM   21 CL   UNL     1      40.540 -16.353   4.863  1.00  0.00    -0.081 Cl
HETATM   22  C   UNL     1      42.175 -17.132   2.874  1.00  0.00     0.026 A 
HETATM   23  C   UNL     1      43.112 -16.922   1.860  1.00  0.00     0.002 A 
HETATM   24  C   UNL     1      43.578 -15.634   1.593  1.00  0.00     0.003 A 
HETATM   25  C   UNL     1      43.104 -14.553   2.338  1.00  0.00     0.039 A 
ENDBRANCH  18  19
ENDBRANCH   3  18
TORSDOF 5
ENDMDL
