MODEL 1
REMARK VINA RESULT:      -9.4      0.000      0.000
REMARK  8 active torsions:
REMARK  status: ('A' for Active; 'I' for Inactive)
REMARK    1  A    between atoms: C_4  and  C_5 
REMARK       I    between atoms: C_5  and  N_6 
REMARK    2  A    between atoms: N_6  and  C_7 
REMARK    3  A    between atoms: C_7  and  C_8 
REMARK    4  A    between atoms: C_8  and  C_9 
REMARK       I    between atoms: C_9  and  N_10 
REMARK    5  A    between atoms: N_10  and  N_11 
REMARK       I    between atoms: N_11  and  C_12 
REMARK    6  A    between atoms: C_12  and  C_13 
REMARK    7  A    between atoms: N_15  and  C_16 
REMARK    8  A    between atoms: C_24  and  O_25 
ROOT
HETATM    1  N   UNL     1      43.413 -12.812   7.381  1.00  0.00    -0.262 N 
HETATM    2  C   UNL     1      44.446 -11.919   7.150  1.00  0.00     0.293 C 
HETATM    3  O   UNL     1      45.114 -11.954   6.117  1.00  0.00    -0.264 OA
HETATM    4  H   UNL     1      42.769 -12.643   8.154  1.00  0.00     0.190 HD
ENDROOT
BRANCH   1   5
HETATM    5  N   UNL     1      43.001 -13.656   6.339  1.00  0.00    -0.267 N 
HETATM    6  C   UNL     1      41.875 -13.292   5.624  1.00  0.00     0.237 C 
HETATM    7  O   UNL     1      41.127 -12.382   5.971  1.00  0.00    -0.272 OA
HETATM    8  H   UNL     1      43.742 -14.207   5.906  1.00  0.00     0.190 HD
BRANCH   6   9
HETATM    9  C   UNL     1      41.626 -14.180   4.426  1.00  0.00     0.124 C 
BRANCH   9  10
HETATM   10  C   UNL     1      42.936 -14.586   3.765  1.00  0.00     0.132 C 
BRANCH  10  11
HETATM   11  N   UNL     1      43.052 -16.024   3.593  1.00  0.00    -0.356 N 
HETATM   12  C   UNL     1      43.682 -16.821   4.526  1.00  0.00     0.251 C 
HETATM   13  O   UNL     1      44.124 -16.391   5.586  1.00  0.00    -0.268 OA
HETATM   14  H   UNL     1      42.570 -16.449   2.813  1.00  0.00     0.162 HD
BRANCH  12  15
HETATM   15  C   UNL     1      43.775 -18.273   4.206  1.00  0.00     0.032 A 
HETATM   16  C   UNL     1      44.003 -19.238   5.196  1.00  0.00     0.017 A 
HETATM   17  C   UNL     1      44.071 -20.591   4.852  1.00  0.00     0.001 A 
HETATM   18  C   UNL     1      43.903 -20.984   3.524  1.00  0.00     0.000 A 
HETATM   19  C   UNL     1      43.659 -20.029   2.538  1.00  0.00     0.001 A 
HETATM   20  C   UNL     1      43.591 -18.677   2.877  1.00  0.00     0.017 A 
ENDBRANCH  12  15
ENDBRANCH  10  11
ENDBRANCH   9  10
ENDBRANCH   6   9
ENDBRANCH   1   5
BRANCH   2  21
HETATM   21  C   UNL     1      44.642 -10.955   8.240  1.00  0.00     0.181 A 
HETATM   22  N   UNL     1      43.781 -10.872   9.276  1.00  0.00    -0.159 NA
HETATM   23  N   UNL     1      44.287  -9.905  10.090  1.00  0.00    -0.242 N 
HETATM   24  C   UNL     1      45.438  -9.353   9.569  1.00  0.00     0.158 A 
HETATM   25  C   UNL     1      45.681 -10.013   8.396  1.00  0.00     0.119 A 
BRANCH  23  26
HETATM   26  C   UNL     1      43.642  -9.577  11.318  1.00  0.00     0.058 A 
HETATM   27  C   UNL     1      43.776  -8.283  11.847  1.00  0.00     0.033 A 
HETATM   28  C   UNL     1      43.142  -7.937  13.044  1.00  0.00     0.026 A 
HETATM   29  C   UNL     1      42.372  -8.882  13.718  1.00  0.00     0.034 A 
HETATM   30 CL   UNL     1      41.588  -8.458  15.188  1.00  0.00    -0.084 Cl
HETATM   31  C   UNL     1      42.232 -10.170  13.205  1.00  0.00     0.026 A 
HETATM   32  C   UNL     1      42.865 -10.521  12.007  1.00  0.00     0.033 A 
ENDBRANCH  23  26
BRANCH  25  33
HETATM   33  O   UNL     1      46.724  -9.769   7.591  1.00  0.00    -0.357 OA
HETATM   34  H   UNL     1      46.743  -8.838   7.310  1.00  0.00     0.218 HD
ENDBRANCH  25  33
ENDBRANCH   2  21
TORSDOF 8
ENDMDL
MODEL 2
REMARK VINA RESULT:      -8.9      0.955      1.545
REMARK  8 active torsions:
REMARK  status: ('A' for Active; 'I' for Inactive)
REMARK    1  A    between atoms: C_4  and  C_5 
REMARK       I    between atoms: C_5  and  N_6 
REMARK    2  A    between atoms: N_6  and  C_7 
REMARK    3  A    between atoms: C_7  and  C_8 
REMARK    4  A    between atoms: C_8  and  C_9 
REMARK       I    between atoms: C_9  and  N_10 
REMARK    5  A    between atoms: N_10  and  N_11 
REMARK       I    between atoms: N_11  and  C_12 
REMARK    6  A    between atoms: C_12  and  C_13 
REMARK    7  A    between atoms: N_15  and  C_16 
REMARK    8  A    between atoms: C_24  and  O_25 
ROOT
HETATM    1  N   UNL     1      43.509 -12.319   7.041  1.00  0.00    -0.262 N 
HETATM    2  C   UNL     1      44.649 -11.535   6.976  1.00  0.00     0.293 C 
HETATM    3  O   UNL     1      45.481 -11.672   6.081  1.00  0.00    -0.264 OA
HETATM    4  H   UNL     1      42.758 -12.060   7.683  1.00  0.00     0.190 HD
ENDROOT
BRANCH   1   5
HETATM    5  N   UNL     1      43.205 -13.163   5.963  1.00  0.00    -0.267 N 
HETATM    6  C   UNL     1      41.895 -13.201   5.525  1.00  0.00     0.237 C 
HETATM    7  O   UNL     1      40.967 -12.683   6.142  1.00  0.00    -0.272 OA
HETATM    8  H   UNL     1      43.978 -13.346   5.322  1.00  0.00     0.190 HD
BRANCH   6   9
HETATM    9  C   UNL     1      41.719 -14.009   4.260  1.00  0.00     0.124 C 
BRANCH   9  10
HETATM   10  C   UNL     1      43.067 -14.420   3.682  1.00  0.00     0.132 C 
BRANCH  10  11
HETATM   11  N   UNL     1      43.328 -15.841   3.828  1.00  0.00    -0.356 N 
HETATM   12  C   UNL     1      43.133 -16.728   2.790  1.00  0.00     0.251 C 
HETATM   13  O   UNL     1      42.794 -16.380   1.664  1.00  0.00    -0.268 OA
HETATM   14  H   UNL     1      43.756 -16.160   4.686  1.00  0.00     0.162 HD
BRANCH  12  15
HETATM   15  C   UNL     1      43.392 -18.166   3.085  1.00  0.00     0.032 A 
HETATM   16  C   UNL     1      43.229 -19.163   2.115  1.00  0.00     0.017 A 
HETATM   17  C   UNL     1      43.495 -20.498   2.433  1.00  0.00     0.001 A 
HETATM   18  C   UNL     1      43.932 -20.838   3.714  1.00  0.00     0.000 A 
HETATM   19  C   UNL     1      44.112 -19.847   4.677  1.00  0.00     0.001 A 
HETATM   20  C   UNL     1      43.847 -18.512   4.364  1.00  0.00     0.017 A 
ENDBRANCH  12  15
ENDBRANCH  10  11
ENDBRANCH   9  10
ENDBRANCH   6   9
ENDBRANCH   1   5
BRANCH   2  21
HETATM   21  C   UNL     1      44.744 -10.549   8.060  1.00  0.00     0.181 A 
HETATM   22  N   UNL     1      43.874 -10.545   9.093  1.00  0.00    -0.159 NA
HETATM   23  N   UNL     1      44.279  -9.527   9.902  1.00  0.00    -0.242 N 
HETATM   24  C   UNL     1      45.371  -8.867   9.382  1.00  0.00     0.158 A 
HETATM   25  C   UNL     1      45.683  -9.508   8.215  1.00  0.00     0.119 A 
BRANCH  23  26
HETATM   26  C   UNL     1      43.598  -9.257  11.126  1.00  0.00     0.058 A 
HETATM   27  C   UNL     1      43.243 -10.322  11.969  1.00  0.00     0.033 A 
HETATM   28  C   UNL     1      42.585 -10.079  13.180  1.00  0.00     0.026 A 
HETATM   29  C   UNL     1      42.280  -8.772  13.551  1.00  0.00     0.034 A 
HETATM   30 CL   UNL     1      41.475  -8.470  15.040  1.00  0.00    -0.084 Cl
HETATM   31  C   UNL     1      42.625  -7.706  12.722  1.00  0.00     0.026 A 
HETATM   32  C   UNL     1      43.284  -7.944  11.510  1.00  0.00     0.033 A 
ENDBRANCH  23  26
BRANCH  25  33
HETATM   33  O   UNL     1      46.701  -9.167   7.411  1.00  0.00    -0.357 OA
HETATM   34  H   UNL     1      47.314  -9.911   7.283  1.00  0.00     0.218 HD
ENDBRANCH  25  33
ENDBRANCH   2  21
TORSDOF 8
ENDMDL
MODEL 3
REMARK VINA RESULT:      -8.8      3.738     10.681
REMARK  8 active torsions:
REMARK  status: ('A' for Active; 'I' for Inactive)
REMARK    1  A    between atoms: C_4  and  C_5 
REMARK       I    between atoms: C_5  and  N_6 
REMARK    2  A    between atoms: N_6  and  C_7 
REMARK    3  A    between atoms: C_7  and  C_8 
REMARK    4  A    between atoms: C_8  and  C_9 
REMARK       I    between atoms: C_9  and  N_10 
REMARK    5  A    between atoms: N_10  and  N_11 
REMARK       I    between atoms: N_11  and  C_12 
REMARK    6  A    between atoms: C_12  and  C_13 
REMARK    7  A    between atoms: N_15  and  C_16 
REMARK    8  A    between atoms: C_24  and  O_25 
ROOT
HETATM    1  N   UNL     1      42.459 -11.461   7.056  1.00  0.00    -0.262 N 
HETATM    2  C   UNL     1      42.752 -11.942   5.791  1.00  0.00     0.293 C 
HETATM    3  O   UNL     1      43.389 -11.277   4.975  1.00  0.00    -0.264 OA
HETATM    4  H   UNL     1      42.093 -12.100   7.763  1.00  0.00     0.190 HD
ENDROOT
BRANCH   1   5
HETATM    5  N   UNL     1      43.057 -10.266   7.482  1.00  0.00    -0.267 N 
HETATM    6  C   UNL     1      44.263 -10.353   8.152  1.00  0.00     0.237 C 
HETATM    7  O   UNL     1      44.734 -11.416   8.549  1.00  0.00    -0.272 OA
HETATM    8  H   UNL     1      42.823  -9.441   6.929  1.00  0.00     0.190 HD
BRANCH   6   9
HETATM    9  C   UNL     1      44.892  -9.003   8.410  1.00  0.00     0.124 C 
BRANCH   9  10
HETATM   10  C   UNL     1      43.837  -7.969   8.780  1.00  0.00     0.132 C 
BRANCH  10  11
HETATM   11  N   UNL     1      43.569  -7.930  10.207  1.00  0.00    -0.356 N 
HETATM   12  C   UNL     1      42.477  -8.564  10.761  1.00  0.00     0.251 C 
HETATM   13  O   UNL     1      41.700  -9.254  10.110  1.00  0.00    -0.268 OA
HETATM   14  H   UNL     1      44.262  -7.506  10.809  1.00  0.00     0.162 HD
BRANCH  12  15
HETATM   15  C   UNL     1      42.291  -8.406  12.232  1.00  0.00     0.032 A 
HETATM   16  C   UNL     1      43.090  -7.542  12.991  1.00  0.00     0.017 A 
HETATM   17  C   UNL     1      42.873  -7.416  14.366  1.00  0.00     0.001 A 
HETATM   18  C   UNL     1      41.854  -8.143  14.983  1.00  0.00     0.000 A 
HETATM   19  C   UNL     1      41.046  -8.992  14.228  1.00  0.00     0.001 A 
HETATM   20  C   UNL     1      41.260  -9.121  12.854  1.00  0.00     0.017 A 
ENDBRANCH  12  15
ENDBRANCH  10  11
ENDBRANCH   9  10
ENDBRANCH   6   9
ENDBRANCH   1   5
BRANCH   2  21
HETATM   21  C   UNL     1      42.236 -13.294   5.545  1.00  0.00     0.181 A 
HETATM   22  N   UNL     1      42.926 -14.194   4.812  1.00  0.00    -0.159 NA
HETATM   23  N   UNL     1      42.166 -15.324   4.819  1.00  0.00    -0.242 N 
HETATM   24  C   UNL     1      40.992 -15.144   5.517  1.00  0.00     0.158 A 
HETATM   25  C   UNL     1      41.022 -13.861   5.990  1.00  0.00     0.119 A 
BRANCH  23  26
HETATM   26  C   UNL     1      42.618 -16.507   4.163  1.00  0.00     0.058 A 
HETATM   27  C   UNL     1      42.107 -16.834   2.896  1.00  0.00     0.033 A 
HETATM   28  C   UNL     1      42.545 -17.984   2.231  1.00  0.00     0.026 A 
HETATM   29  C   UNL     1      43.494 -18.810   2.828  1.00  0.00     0.034 A 
HETATM   30 CL   UNL     1      44.037 -20.222   2.009  1.00  0.00    -0.084 Cl
HETATM   31  C   UNL     1      44.007 -18.498   4.085  1.00  0.00     0.026 A 
HETATM   32  C   UNL     1      43.572 -17.349   4.755  1.00  0.00     0.033 A 
ENDBRANCH  23  26
BRANCH  25  33
HETATM   33  O   UNL     1      40.055 -13.303   6.731  1.00  0.00    -0.357 OA
HETATM   34  H   UNL     1      39.259 -13.861   6.750  1.00  0.00     0.218 HD
ENDBRANCH  25  33
ENDBRANCH   2  21
TORSDOF 8
ENDMDL
MODEL 4
REMARK VINA RESULT:      -8.8      1.875      2.289
REMARK  8 active torsions:
REMARK  status: ('A' for Active; 'I' for Inactive)
REMARK    1  A    between atoms: C_4  and  C_5 
REMARK       I    between atoms: C_5  and  N_6 
REMARK    2  A    between atoms: N_6  and  C_7 
REMARK    3  A    between atoms: C_7  and  C_8 
REMARK    4  A    between atoms: C_8  and  C_9 
REMARK       I    between atoms: C_9  and  N_10 
REMARK    5  A    between atoms: N_10  and  N_11 
REMARK       I    between atoms: N_11  and  C_12 
REMARK    6  A    between atoms: C_12  and  C_13 
REMARK    7  A    between atoms: N_15  and  C_16 
REMARK    8  A    between atoms: C_24  and  O_25 
ROOT
HETATM    1  N   UNL     1      42.200 -11.824   5.539  1.00  0.00    -0.262 N 
HETATM    2  C   UNL     1      43.467 -11.288   5.386  1.00  0.00     0.293 C 
HETATM    3  O   UNL     1      43.983 -11.148   4.278  1.00  0.00    -0.264 OA
HETATM    4  H   UNL     1      41.733 -11.758   6.444  1.00  0.00     0.190 HD
ENDROOT
BRANCH   1   5
HETATM    5  N   UNL     1      41.414 -12.044   4.397  1.00  0.00    -0.267 N 
HETATM    6  C   UNL     1      40.433 -13.015   4.469  1.00  0.00     0.237 C 
HETATM    7  O   UNL     1      40.341 -13.806   5.404  1.00  0.00    -0.272 OA
HETATM    8  H   UNL     1      41.313 -11.240   3.777  1.00  0.00     0.190 HD
BRANCH   6   9
HETATM    9  C   UNL     1      39.545 -13.045   3.246  1.00  0.00     0.124 C 
BRANCH   9  10
HETATM   10  C   UNL     1      39.861 -14.250   2.370  1.00  0.00     0.132 C 
BRANCH  10  11
HETATM   11  N   UNL     1      40.824 -15.149   2.983  1.00  0.00    -0.356 N 
HETATM   12  C   UNL     1      41.843 -15.730   2.258  1.00  0.00     0.251 C 
HETATM   13  O   UNL     1      42.050 -15.483   1.075  1.00  0.00    -0.268 OA
HETATM   14  H   UNL     1      40.793 -15.265   3.987  1.00  0.00     0.162 HD
BRANCH  12  15
HETATM   15  C   UNL     1      42.734 -16.670   2.996  1.00  0.00     0.032 A 
HETATM   16  C   UNL     1      43.132 -16.429   4.318  1.00  0.00     0.017 A 
HETATM   17  C   UNL     1      43.958 -17.344   4.976  1.00  0.00     0.001 A 
HETATM   18  C   UNL     1      44.381 -18.502   4.322  1.00  0.00     0.000 A 
HETATM   19  C   UNL     1      43.974 -18.753   3.013  1.00  0.00     0.001 A 
HETATM   20  C   UNL     1      43.148 -17.842   2.352  1.00  0.00     0.017 A 
ENDBRANCH  12  15
ENDBRANCH  10  11
ENDBRANCH   9  10
ENDBRANCH   6   9
ENDBRANCH   1   5
BRANCH   2  21
HETATM   21  C   UNL     1      44.101 -10.913   6.656  1.00  0.00     0.181 A 
HETATM   22  N   UNL     1      43.374 -10.519   7.723  1.00  0.00    -0.159 NA
HETATM   23  N   UNL     1      44.280 -10.281   8.710  1.00  0.00    -0.242 N 
HETATM   24  C   UNL     1      45.572 -10.486   8.275  1.00  0.00     0.158 A 
HETATM   25  C   UNL     1      45.476 -10.894   6.974  1.00  0.00     0.119 A 
BRANCH  23  26
HETATM   26  C   UNL     1      43.851  -9.880  10.009  1.00  0.00     0.058 A 
HETATM   27  C   UNL     1      43.676  -8.514  10.289  1.00  0.00     0.033 A 
HETATM   28  C   UNL     1      43.244  -8.100  11.554  1.00  0.00     0.026 A 
HETATM   29  C   UNL     1      42.987  -9.047  12.542  1.00  0.00     0.034 A 
HETATM   30 CL   UNL     1      42.452  -8.539  14.096  1.00  0.00    -0.084 Cl
HETATM   31  C   UNL     1      43.159 -10.404  12.278  1.00  0.00     0.026 A 
HETATM   32  C   UNL     1      43.590 -10.824  11.014  1.00  0.00     0.033 A 
ENDBRANCH  23  26
BRANCH  25  33
HETATM   33  O   UNL     1      46.524 -11.204   6.197  1.00  0.00    -0.357 OA
HETATM   34  H   UNL     1      47.010 -11.969   6.549  1.00  0.00     0.218 HD
ENDBRANCH  25  33
ENDBRANCH   2  21
TORSDOF 8
ENDMDL
MODEL 5
REMARK VINA RESULT:      -8.6      4.140     10.306
REMARK  8 active torsions:
REMARK  status: ('A' for Active; 'I' for Inactive)
REMARK    1  A    between atoms: C_4  and  C_5 
REMARK       I    between atoms: C_5  and  N_6 
REMARK    2  A    between atoms: N_6  and  C_7 
REMARK    3  A    between atoms: C_7  and  C_8 
REMARK    4  A    between atoms: C_8  and  C_9 
REMARK       I    between atoms: C_9  and  N_10 
REMARK    5  A    between atoms: N_10  and  N_11 
REMARK       I    between atoms: N_11  and  C_12 
REMARK    6  A    between atoms: C_12  and  C_13 
REMARK    7  A    between atoms: N_15  and  C_16 
REMARK    8  A    between atoms: C_24  and  O_25 
ROOT
HETATM    1  N   UNL     1      41.378 -11.771   6.740  1.00  0.00    -0.262 N 
HETATM    2  C   UNL     1      41.753 -12.316   5.524  1.00  0.00     0.293 C 
HETATM    3  O   UNL     1      41.536 -11.738   4.459  1.00  0.00    -0.264 OA
HETATM    4  H   UNL     1      41.732 -12.183   7.604  1.00  0.00     0.190 HD
ENDROOT
BRANCH   1   5
HETATM    5  N   UNL     1      40.906 -10.450   6.774  1.00  0.00    -0.267 N 
HETATM    6  C   UNL     1      39.647 -10.232   7.302  1.00  0.00     0.237 C 
HETATM    7  O   UNL     1      38.864 -11.141   7.566  1.00  0.00    -0.272 OA
HETATM    8  H   UNL     1      41.627  -9.730   6.823  1.00  0.00     0.190 HD
BRANCH   6   9
HETATM    9  C   UNL     1      39.314  -8.764   7.444  1.00  0.00     0.124 C 
BRANCH   9  10
HETATM   10  C   UNL     1      40.550  -7.957   7.818  1.00  0.00     0.132 C 
BRANCH  10  11
HETATM   11  N   UNL     1      40.818  -7.975   9.245  1.00  0.00    -0.356 N 
HETATM   12  C   UNL     1      41.800  -8.774   9.793  1.00  0.00     0.251 C 
HETATM   13  O   UNL     1      42.553  -9.469   9.118  1.00  0.00    -0.268 OA
HETATM   14  H   UNL     1      40.332  -7.307   9.828  1.00  0.00     0.162 HD
BRANCH  12  15
HETATM   15  C   UNL     1      41.941  -8.735  11.276  1.00  0.00     0.032 A 
HETATM   16  C   UNL     1      41.034  -9.384  12.124  1.00  0.00     0.017 A 
HETATM   17  C   UNL     1      41.212  -9.330  13.509  1.00  0.00     0.001 A 
HETATM   18  C   UNL     1      42.296  -8.638  14.049  1.00  0.00     0.000 A 
HETATM   19  C   UNL     1      43.210  -8.004  13.208  1.00  0.00     0.001 A 
HETATM   20  C   UNL     1      43.036  -8.055  11.824  1.00  0.00     0.017 A 
ENDBRANCH  12  15
ENDBRANCH  10  11
ENDBRANCH   9  10
ENDBRANCH   6   9
ENDBRANCH   1   5
BRANCH   2  21
HETATM   21  C   UNL     1      42.422 -13.617   5.646  1.00  0.00     0.181 A 
HETATM   22  N   UNL     1      42.358 -14.542   4.665  1.00  0.00    -0.159 NA
HETATM   23  N   UNL     1      43.104 -15.592   5.109  1.00  0.00    -0.242 N 
HETATM   24  C   UNL     1      43.612 -15.358   6.369  1.00  0.00     0.158 A 
HETATM   25  C   UNL     1      43.193 -14.105   6.722  1.00  0.00     0.119 A 
BRANCH  23  26
HETATM   26  C   UNL     1      43.289 -16.747   4.295  1.00  0.00     0.058 A 
HETATM   27  C   UNL     1      44.046 -17.825   4.784  1.00  0.00     0.033 A 
HETATM   28  C   UNL     1      44.230 -18.972   4.006  1.00  0.00     0.026 A 
HETATM   29  C   UNL     1      43.661 -19.048   2.738  1.00  0.00     0.034 A 
HETATM   30 CL   UNL     1      43.884 -20.460   1.782  1.00  0.00    -0.084 Cl
HETATM   31  C   UNL     1      42.910 -17.986   2.240  1.00  0.00     0.026 A 
HETATM   32  C   UNL     1      42.722 -16.835   3.014  1.00  0.00     0.033 A 
ENDBRANCH  23  26
BRANCH  25  33
HETATM   33  O   UNL     1      43.490 -13.506   7.884  1.00  0.00    -0.357 OA
HETATM   34  H   UNL     1      43.026 -13.928   8.628  1.00  0.00     0.218 HD
ENDBRANCH  25  33
ENDBRANCH   2  21
TORSDOF 8
ENDMDL
MODEL 6
REMARK VINA RESULT:      -8.2      4.249      9.702
REMARK  8 active torsions:
REMARK  status: ('A' for Active; 'I' for Inactive)
REMARK    1  A    between atoms: C_4  and  C_5 
REMARK       I    between atoms: C_5  and  N_6 
REMARK    2  A    between atoms: N_6  and  C_7 
REMARK    3  A    between atoms: C_7  and  C_8 
REMARK    4  A    between atoms: C_8  and  C_9 
REMARK       I    between atoms: C_9  and  N_10 
REMARK    5  A    between atoms: N_10  and  N_11 
REMARK       I    between atoms: N_11  and  C_12 
REMARK    6  A    between atoms: C_12  and  C_13 
REMARK    7  A    between atoms: N_15  and  C_16 
REMARK    8  A    between atoms: C_24  and  O_25 
ROOT
HETATM    1  N   UNL     1      40.999 -11.947   5.556  1.00  0.00    -0.262 N 
HETATM    2  C   UNL     1      42.355 -12.133   5.341  1.00  0.00     0.293 C 
HETATM    3  O   UNL     1      43.094 -11.205   5.017  1.00  0.00    -0.264 OA
HETATM    4  H   UNL     1      40.455 -12.690   5.996  1.00  0.00     0.190 HD
ENDROOT
BRANCH   1   5
HETATM    5  N   UNL     1      40.491 -10.640   5.583  1.00  0.00    -0.267 N 
HETATM    6  C   UNL     1      39.580 -10.325   6.574  1.00  0.00     0.237 C 
HETATM    7  O   UNL     1      39.064 -11.169   7.303  1.00  0.00    -0.272 OA
HETATM    8  H   UNL     1      41.103  -9.926   5.187  1.00  0.00     0.190 HD
BRANCH   6   9
HETATM    9  C   UNL     1      39.233  -8.854   6.609  1.00  0.00     0.124 C 
BRANCH   9  10
HETATM   10  C   UNL     1      39.498  -8.262   7.986  1.00  0.00     0.132 C 
BRANCH  10  11
HETATM   11  N   UNL     1      40.731  -8.751   8.577  1.00  0.00    -0.356 N 
HETATM   12  C   UNL     1      41.938  -8.112   8.380  1.00  0.00     0.251 C 
HETATM   13  O   UNL     1      42.047  -7.062   7.757  1.00  0.00    -0.268 OA
HETATM   14  H   UNL     1      40.673  -9.524   9.226  1.00  0.00     0.162 HD
BRANCH  12  15
HETATM   15  C   UNL     1      43.135  -8.744   9.003  1.00  0.00     0.032 A 
HETATM   16  C   UNL     1      44.433  -8.485   8.544  1.00  0.00     0.017 A 
HETATM   17  C   UNL     1      45.529  -9.091   9.167  1.00  0.00     0.001 A 
HETATM   18  C   UNL     1      45.332  -9.947  10.250  1.00  0.00     0.000 A 
HETATM   19  C   UNL     1      44.043 -10.195  10.720  1.00  0.00     0.001 A 
HETATM   20  C   UNL     1      42.946  -9.592  10.102  1.00  0.00     0.017 A 
ENDBRANCH  12  15
ENDBRANCH  10  11
ENDBRANCH   9  10
ENDBRANCH   6   9
ENDBRANCH   1   5
BRANCH   2  21
HETATM   21  C   UNL     1      42.795 -13.520   5.543  1.00  0.00     0.181 A 
HETATM   22  N   UNL     1      42.769 -14.425   4.541  1.00  0.00    -0.159 NA
HETATM   23  N   UNL     1      43.264 -15.573   5.080  1.00  0.00    -0.242 N 
HETATM   24  C   UNL     1      43.572 -15.418   6.414  1.00  0.00     0.158 A 
HETATM   25  C   UNL     1      43.285 -14.117   6.723  1.00  0.00     0.119 A 
BRANCH  23  26
HETATM   26  C   UNL     1      43.418 -16.743   4.279  1.00  0.00     0.058 A 
HETATM   27  C   UNL     1      44.161 -17.828   4.775  1.00  0.00     0.033 A 
HETATM   28  C   UNL     1      44.314 -18.989   4.011  1.00  0.00     0.026 A 
HETATM   29  C   UNL     1      43.729 -19.072   2.750  1.00  0.00     0.034 A 
HETATM   30 CL   UNL     1      43.914 -20.500   1.811  1.00  0.00    -0.084 Cl
HETATM   31  C   UNL     1      42.993 -18.002   2.246  1.00  0.00     0.026 A 
HETATM   32  C   UNL     1      42.835 -16.837   3.006  1.00  0.00     0.033 A 
ENDBRANCH  23  26
BRANCH  25  33
HETATM   33  O   UNL     1      43.458 -13.570   7.934  1.00  0.00    -0.357 OA
HETATM   34  H   UNL     1      44.089 -12.831   7.900  1.00  0.00     0.218 HD
ENDBRANCH  25  33
ENDBRANCH   2  21
TORSDOF 8
ENDMDL
MODEL 7
REMARK VINA RESULT:      -8.2      5.756      9.236
REMARK  8 active torsions:
REMARK  status: ('A' for Active; 'I' for Inactive)
REMARK    1  A    between atoms: C_4  and  C_5 
REMARK       I    between atoms: C_5  and  N_6 
REMARK    2  A    between atoms: N_6  and  C_7 
REMARK    3  A    between atoms: C_7  and  C_8 
REMARK    4  A    between atoms: C_8  and  C_9 
REMARK       I    between atoms: C_9  and  N_10 
REMARK    5  A    between atoms: N_10  and  N_11 
REMARK       I    between atoms: N_11  and  C_12 
REMARK    6  A    between atoms: C_12  and  C_13 
REMARK    7  A    between atoms: N_15  and  C_16 
REMARK    8  A    between atoms: C_24  and  O_25 
ROOT
HETATM    1  N   UNL     1      40.673 -12.400   4.083  1.00  0.00    -0.262 N 
HETATM    2  C   UNL     1      41.435 -12.382   5.239  1.00  0.00     0.293 C 
HETATM    3  O   UNL     1      41.420 -11.425   6.012  1.00  0.00    -0.264 OA
HETATM    4  H   UNL     1      40.569 -13.273   3.564  1.00  0.00     0.190 HD
ENDROOT
BRANCH   1   5
HETATM    5  N   UNL     1      39.727 -11.384   3.879  1.00  0.00    -0.267 N 
HETATM    6  C   UNL     1      39.668 -10.802   2.627  1.00  0.00     0.237 C 
HETATM    7  O   UNL     1      40.512 -10.997   1.757  1.00  0.00    -0.272 OA
HETATM    8  H   UNL     1      38.899 -11.435   4.473  1.00  0.00     0.190 HD
BRANCH   6   9
HETATM    9  C   UNL     1      38.505  -9.848   2.476  1.00  0.00     0.124 C 
BRANCH   9  10
HETATM   10  C   UNL     1      37.372 -10.486   1.684  1.00  0.00     0.132 C 
BRANCH  10  11
HETATM   11  N   UNL     1      37.832 -11.555   0.814  1.00  0.00    -0.356 N 
HETATM   12  C   UNL     1      37.653 -11.511  -0.553  1.00  0.00     0.251 C 
HETATM   13  O   UNL     1      37.161 -10.550  -1.134  1.00  0.00    -0.268 OA
HETATM   14  H   UNL     1      38.381 -12.298   1.224  1.00  0.00     0.162 HD
BRANCH  12  15
HETATM   15  C   UNL     1      38.128 -12.694  -1.325  1.00  0.00     0.032 A 
HETATM   16  C   UNL     1      39.226 -13.458  -0.909  1.00  0.00     0.017 A 
HETATM   17  C   UNL     1      39.629 -14.567  -1.658  1.00  0.00     0.001 A 
HETATM   18  C   UNL     1      38.935 -14.919  -2.815  1.00  0.00     0.000 A 
HETATM   19  C   UNL     1      37.832 -14.171  -3.224  1.00  0.00     0.001 A 
HETATM   20  C   UNL     1      37.425 -13.063  -2.479  1.00  0.00     0.017 A 
ENDBRANCH  12  15
ENDBRANCH  10  11
ENDBRANCH   9  10
ENDBRANCH   6   9
ENDBRANCH   1   5
BRANCH   2  21
HETATM   21  C   UNL     1      42.232 -13.600   5.434  1.00  0.00     0.181 A 
HETATM   22  N   UNL     1      42.199 -14.618   4.548  1.00  0.00    -0.159 NA
HETATM   23  N   UNL     1      43.067 -15.548   5.034  1.00  0.00    -0.242 N 
HETATM   24  C   UNL     1      43.625 -15.147   6.229  1.00  0.00     0.158 A 
HETATM   25  C   UNL     1      43.109 -13.909   6.495  1.00  0.00     0.119 A 
BRANCH  23  26
HETATM   26  C   UNL     1      43.313 -16.756   4.318  1.00  0.00     0.058 A 
HETATM   27  C   UNL     1      42.721 -16.947   3.059  1.00  0.00     0.033 A 
HETATM   28  C   UNL     1      42.959 -18.120   2.335  1.00  0.00     0.026 A 
HETATM   29  C   UNL     1      43.787 -19.106   2.865  1.00  0.00     0.034 A 
HETATM   30 CL   UNL     1      44.083 -20.547   1.975  1.00  0.00    -0.084 Cl
HETATM   31  C   UNL     1      44.379 -18.929   4.114  1.00  0.00     0.026 A 
HETATM   32  C   UNL     1      44.145 -17.758   4.843  1.00  0.00     0.033 A 
ENDBRANCH  23  26
BRANCH  25  33
HETATM   33  O   UNL     1      43.417 -13.176   7.574  1.00  0.00    -0.357 OA
HETATM   34  H   UNL     1      42.699 -12.558   7.797  1.00  0.00     0.218 HD
ENDBRANCH  25  33
ENDBRANCH   2  21
TORSDOF 8
ENDMDL
MODEL 8
REMARK VINA RESULT:      -7.9      4.265     10.426
REMARK  8 active torsions:
REMARK  status: ('A' for Active; 'I' for Inactive)
REMARK    1  A    between atoms: C_4  and  C_5 
REMARK       I    between atoms: C_5  and  N_6 
REMARK    2  A    between atoms: N_6  and  C_7 
REMARK    3  A    between atoms: C_7  and  C_8 
REMARK    4  A    between atoms: C_8  and  C_9 
REMARK       I    between atoms: C_9  and  N_10 
REMARK    5  A    between atoms: N_10  and  N_11 
REMARK       I    between atoms: N_11  and  C_12 
REMARK    6  A    between atoms: C_12  and  C_13 
REMARK    7  A    between atoms: N_15  and  C_16 
REMARK    8  A    between atoms: C_24  and  O_25 
ROOT
HETATM    1  N   UNL     1      41.019 -11.409   6.421  1.00  0.00    -0.262 N 
HETATM    2  C   UNL     1      41.593 -10.891   5.272  1.00  0.00     0.293 C 
HETATM    3  O   UNL     1      41.629  -9.681   5.054  1.00  0.00    -0.264 OA
HETATM    4  H   UNL     1      41.166 -12.392   6.656  1.00  0.00     0.190 HD
ENDROOT
BRANCH   1   5
HETATM    5  N   UNL     1      40.633 -10.528   7.442  1.00  0.00    -0.267 N 
HETATM    6  C   UNL     1      39.289 -10.460   7.758  1.00  0.00     0.237 C 
HETATM    7  O   UNL     1      38.413 -10.985   7.076  1.00  0.00    -0.272 OA
HETATM    8  H   UNL     1      41.347 -10.336   8.144  1.00  0.00     0.190 HD
BRANCH   6   9
HETATM    9  C   UNL     1      39.014  -9.612   8.979  1.00  0.00     0.124 C 
BRANCH   9  10
HETATM   10  C   UNL     1      39.025 -10.456  10.246  1.00  0.00     0.132 C 
BRANCH  10  11
HETATM   11  N   UNL     1      39.627  -9.764  11.373  1.00  0.00    -0.356 N 
HETATM   12  C   UNL     1      40.986  -9.541  11.450  1.00  0.00     0.251 C 
HETATM   13  O   UNL     1      41.768  -9.846  10.555  1.00  0.00    -0.268 OA
HETATM   14  H   UNL     1      39.012  -9.355  12.063  1.00  0.00     0.162 HD
BRANCH  12  15
HETATM   15  C   UNL     1      41.480  -8.862  12.681  1.00  0.00     0.032 A 
HETATM   16  C   UNL     1      40.909  -9.099  13.938  1.00  0.00     0.017 A 
HETATM   17  C   UNL     1      41.413  -8.450  15.069  1.00  0.00     0.001 A 
HETATM   18  C   UNL     1      42.490  -7.571  14.948  1.00  0.00     0.000 A 
HETATM   19  C   UNL     1      43.072  -7.345  13.702  1.00  0.00     0.001 A 
HETATM   20  C   UNL     1      42.572  -7.992  12.570  1.00  0.00     0.017 A 
ENDBRANCH  12  15
ENDBRANCH  10  11
ENDBRANCH   9  10
ENDBRANCH   6   9
ENDBRANCH   1   5
BRANCH   2  21
HETATM   21  C   UNL     1      42.141 -11.918   4.377  1.00  0.00     0.181 A 
HETATM   22  N   UNL     1      42.305 -13.196   4.780  1.00  0.00    -0.159 NA
HETATM   23  N   UNL     1      42.802 -13.856   3.698  1.00  0.00    -0.242 N 
HETATM   24  C   UNL     1      42.985 -13.009   2.626  1.00  0.00     0.158 A 
HETATM   25  C   UNL     1      42.565 -11.775   3.039  1.00  0.00     0.119 A 
BRANCH  23  26
HETATM   26  C   UNL     1      43.061 -15.257   3.756  1.00  0.00     0.058 A 
HETATM   27  C   UNL     1      43.120 -16.000   2.566  1.00  0.00     0.033 A 
HETATM   28  C   UNL     1      43.385 -17.373   2.600  1.00  0.00     0.026 A 
HETATM   29  C   UNL     1      43.591 -18.008   3.822  1.00  0.00     0.034 A 
HETATM   30 CL   UNL     1      43.920 -19.696   3.866  1.00  0.00    -0.084 Cl
HETATM   31  C   UNL     1      43.532 -17.283   5.010  1.00  0.00     0.026 A 
HETATM   32  C   UNL     1      43.268 -15.909   4.982  1.00  0.00     0.033 A 
ENDBRANCH  23  26
BRANCH  25  33
HETATM   33  O   UNL     1      42.576 -10.675   2.273  1.00  0.00    -0.357 OA
HETATM   34  H   UNL     1      43.473 -10.309   2.193  1.00  0.00     0.218 HD
ENDBRANCH  25  33
ENDBRANCH   2  21
TORSDOF 8
ENDMDL
MODEL 9
REMARK VINA RESULT:      -7.8      2.431      2.592
REMARK  8 active torsions:
REMARK  status: ('A' for Active; 'I' for Inactive)
REMARK    1  A    between atoms: C_4  and  C_5 
REMARK       I    between atoms: C_5  and  N_6 
REMARK    2  A    between atoms: N_6  and  C_7 
REMARK    3  A    between atoms: C_7  and  C_8 
REMARK    4  A    between atoms: C_8  and  C_9 
REMARK       I    between atoms: C_9  and  N_10 
REMARK    5  A    between atoms: N_10  and  N_11 
REMARK       I    between atoms: N_11  and  C_12 
REMARK    6  A    between atoms: C_12  and  C_13 
REMARK    7  A    between atoms: N_15  and  C_16 
REMARK    8  A    between atoms: C_24  and  O_25 
ROOT
HETATM    1  N   UNL     1      42.892 -11.262   6.683  1.00  0.00    -0.262 N 
HETATM    2  C   UNL     1      43.937 -10.760   7.441  1.00  0.00     0.293 C 
HETATM    3  O   UNL     1      45.094 -10.747   7.024  1.00  0.00    -0.264 OA
HETATM    4  H   UNL     1      41.930 -11.093   6.980  1.00  0.00     0.190 HD
ENDROOT
BRANCH   1   5
HETATM    5  N   UNL     1      43.129 -11.597   5.341  1.00  0.00    -0.267 N 
HETATM    6  C   UNL     1      43.106 -12.936   4.999  1.00  0.00     0.237 C 
HETATM    7  O   UNL     1      43.075 -13.839   5.830  1.00  0.00    -0.272 OA
HETATM    8  H   UNL     1      42.878 -10.877   4.662  1.00  0.00     0.190 HD
BRANCH   6   9
HETATM    9  C   UNL     1      43.203 -13.164   3.508  1.00  0.00     0.124 C 
BRANCH   9  10
HETATM   10  C   UNL     1      42.218 -14.232   3.052  1.00  0.00     0.132 C 
BRANCH  10  11
HETATM   11  N   UNL     1      42.625 -15.570   3.443  1.00  0.00    -0.356 N 
HETATM   12  C   UNL     1      43.081 -16.492   2.524  1.00  0.00     0.251 C 
HETATM   13  O   UNL     1      43.239 -16.232   1.336  1.00  0.00    -0.268 OA
HETATM   14  H   UNL     1      42.662 -15.786   4.430  1.00  0.00     0.162 HD
BRANCH  12  15
HETATM   15  C   UNL     1      43.421 -17.844   3.049  1.00  0.00     0.032 A 
HETATM   16  C   UNL     1      43.811 -18.046   4.380  1.00  0.00     0.017 A 
HETATM   17  C   UNL     1      44.108 -19.334   4.833  1.00  0.00     0.001 A 
HETATM   18  C   UNL     1      44.011 -20.421   3.965  1.00  0.00     0.000 A 
HETATM   19  C   UNL     1      43.608 -20.227   2.644  1.00  0.00     0.001 A 
HETATM   20  C   UNL     1      43.309 -18.942   2.187  1.00  0.00     0.017 A 
ENDBRANCH  12  15
ENDBRANCH  10  11
ENDBRANCH   9  10
ENDBRANCH   6   9
ENDBRANCH   1   5
BRANCH   2  21
HETATM   21  C   UNL     1      43.517 -10.255   8.755  1.00  0.00     0.181 A 
HETATM   22  N   UNL     1      42.323  -9.650   8.933  1.00  0.00    -0.159 NA
HETATM   23  N   UNL     1      42.268  -9.344  10.259  1.00  0.00    -0.242 N 
HETATM   24  C   UNL     1      43.421  -9.718  10.915  1.00  0.00     0.158 A 
HETATM   25  C   UNL     1      44.223 -10.303   9.975  1.00  0.00     0.119 A 
BRANCH  23  26
HETATM   26  C   UNL     1      41.112  -8.722  10.814  1.00  0.00     0.058 A 
HETATM   27  C   UNL     1      40.000  -8.470   9.992  1.00  0.00     0.033 A 
HETATM   28  C   UNL     1      38.851  -7.871  10.519  1.00  0.00     0.026 A 
HETATM   29  C   UNL     1      38.808  -7.521  11.866  1.00  0.00     0.034 A 
HETATM   30 CL   UNL     1      37.395  -6.788  12.516  1.00  0.00    -0.084 Cl
HETATM   31  C   UNL     1      39.904  -7.763  12.691  1.00  0.00     0.026 A 
HETATM   32  C   UNL     1      41.057  -8.363  12.170  1.00  0.00     0.033 A 
ENDBRANCH  23  26
BRANCH  25  33
HETATM   33  O   UNL     1      45.438 -10.810  10.225  1.00  0.00    -0.357 OA
HETATM   34  H   UNL     1      45.457 -11.771  10.078  1.00  0.00     0.218 HD
ENDBRANCH  25  33
ENDBRANCH   2  21
TORSDOF 8
ENDMDL
MODEL 10
REMARK VINA RESULT:      -7.7      2.545      3.010
REMARK  8 active torsions:
REMARK  status: ('A' for Active; 'I' for Inactive)
REMARK    1  A    between atoms: C_4  and  C_5 
REMARK       I    between atoms: C_5  and  N_6 
REMARK    2  A    between atoms: N_6  and  C_7 
REMARK    3  A    between atoms: C_7  and  C_8 
REMARK    4  A    between atoms: C_8  and  C_9 
REMARK       I    between atoms: C_9  and  N_10 
REMARK    5  A    between atoms: N_10  and  N_11 
REMARK       I    between atoms: N_11  and  C_12 
REMARK    6  A    between atoms: C_12  and  C_13 
REMARK    7  A    between atoms: N_15  and  C_16 
REMARK    8  A    between atoms: C_24  and  O_25 
ROOT
HETATM    1  N   UNL     1      41.477 -10.701   7.334  1.00  0.00    -0.262 N 
HETATM    2  C   UNL     1      41.850  -9.429   6.935  1.00  0.00     0.293 C 
HETATM    3  O   UNL     1      42.071  -9.157   5.755  1.00  0.00    -0.264 OA
HETATM    4  H   UNL     1      41.128 -10.847   8.282  1.00  0.00     0.190 HD
ENDROOT
BRANCH   1   5
HETATM    5  N   UNL     1      41.167 -11.655   6.353  1.00  0.00    -0.267 N 
HETATM    6  C   UNL     1      39.832 -11.913   6.107  1.00  0.00     0.237 C 
HETATM    7  O   UNL     1      38.925 -11.491   6.820  1.00  0.00    -0.272 OA
HETATM    8  H   UNL     1      41.868 -11.770   5.621  1.00  0.00     0.190 HD
BRANCH   6   9
HETATM    9  C   UNL     1      39.618 -12.826   4.921  1.00  0.00     0.124 C 
BRANCH   9  10
HETATM   10  C   UNL     1      40.813 -12.787   3.978  1.00  0.00     0.132 C 
BRANCH  10  11
HETATM   11  N   UNL     1      41.365 -14.106   3.722  1.00  0.00    -0.356 N 
HETATM   12  C   UNL     1      42.513 -14.549   4.344  1.00  0.00     0.251 C 
HETATM   13  O   UNL     1      43.108 -13.899   5.197  1.00  0.00    -0.268 OA
HETATM   14  H   UNL     1      40.830 -14.741   3.145  1.00  0.00     0.162 HD
BRANCH  12  15
HETATM   15  C   UNL     1      43.000 -15.904   3.957  1.00  0.00     0.032 A 
HETATM   16  C   UNL     1      43.723 -16.713   4.843  1.00  0.00     0.017 A 
HETATM   17  C   UNL     1      44.149 -17.982   4.442  1.00  0.00     0.001 A 
HETATM   18  C   UNL     1      43.849 -18.448   3.162  1.00  0.00     0.000 A 
HETATM   19  C   UNL     1      43.116 -17.653   2.282  1.00  0.00     0.001 A 
HETATM   20  C   UNL     1      42.688 -16.384   2.679  1.00  0.00     0.017 A 
ENDBRANCH  12  15
ENDBRANCH  10  11
ENDBRANCH   9  10
ENDBRANCH   6   9
ENDBRANCH   1   5
BRANCH   2  21
HETATM   21  C   UNL     1      41.944  -8.471   8.044  1.00  0.00     0.181 A 
HETATM   22  N   UNL     1      41.759  -8.851   9.327  1.00  0.00    -0.159 NA
HETATM   23  N   UNL     1      41.944  -7.723  10.067  1.00  0.00    -0.242 N 
HETATM   24  C   UNL     1      42.211  -6.630   9.272  1.00  0.00     0.158 A 
HETATM   25  C   UNL     1      42.220  -7.089   7.984  1.00  0.00     0.119 A 
BRANCH  23  26
HETATM   26  C   UNL     1      41.862  -7.767  11.490  1.00  0.00     0.058 A 
HETATM   27  C   UNL     1      40.607  -7.670  12.114  1.00  0.00     0.033 A 
HETATM   28  C   UNL     1      40.503  -7.723  13.508  1.00  0.00     0.026 A 
HETATM   29  C   UNL     1      41.650  -7.872  14.283  1.00  0.00     0.034 A 
HETATM   30 CL   UNL     1      41.524  -7.940  15.996  1.00  0.00    -0.084 Cl
HETATM   31  C   UNL     1      42.901  -7.967  13.676  1.00  0.00     0.026 A 
HETATM   32  C   UNL     1      43.011  -7.916  12.282  1.00  0.00     0.033 A 
ENDBRANCH  23  26
BRANCH  25  33
HETATM   33  O   UNL     1      42.454  -6.323   6.908  1.00  0.00    -0.357 OA
HETATM   34  H   UNL     1      43.212  -6.655   6.397  1.00  0.00     0.218 HD
ENDBRANCH  25  33
ENDBRANCH   2  21
TORSDOF 8
ENDMDL
