MODEL 1
REMARK VINA RESULT:      -8.1      0.000      0.000
REMARK  7 active torsions:
REMARK  status: ('A' for Active; 'I' for Inactive)
REMARK    1  A    between atoms: C_4  and  C_5 
REMARK    2  A    between atoms: C_10  and  C_11 
REMARK       I    between atoms: C_11  and  N_12 
REMARK    3  A    between atoms: N_12  and  C_13 
REMARK    4  A    between atoms: C_13  and  C_14 
REMARK    5  A    between atoms: C_14  and  C_15 
REMARK    6  A    between atoms: C_15  and  N_16 
REMARK    7  A    between atoms: C_26  and  C_27 
ROOT
HETATM    1  C   UNL     1      42.678 -16.201   3.081  1.00  0.00     0.125 C 
HETATM    2  N   UNL     1      42.991 -15.387   4.261  1.00  0.00    -0.365 N 
HETATM    3  C   UNL     1      42.303 -14.251   4.530  1.00  0.00     0.141 A 
HETATM    4  N   UNL     1      41.148 -13.950   3.862  1.00  0.00    -0.238 N 
HETATM    5  N   UNL     1      40.535 -12.833   4.299  1.00  0.00    -0.163 NA
HETATM    6  C   UNL     1      41.384 -12.347   5.238  1.00  0.00     0.165 A 
HETATM    7  C   UNL     1      42.486 -13.219   5.415  1.00  0.00     0.092 A 
HETATM    8 BR   UNL     1      43.899 -13.017   6.627  1.00  0.00    -0.044 Br
HETATM    9  C   UNL     1      40.599 -14.754   2.783  1.00  0.00     0.221 C 
HETATM   10  C   UNL     1      41.150 -16.189   2.859  1.00  0.00     0.067 C 
HETATM   11  H   UNL     1      43.945 -15.503   4.608  1.00  0.00     0.162 HD
ENDROOT
BRANCH   6  12
HETATM   12  C   UNL     1      41.080 -11.083   5.917  1.00  0.00     0.273 C 
HETATM   13  N   UNL     1      40.028 -11.168   6.809  1.00  0.00    -0.355 N 
HETATM   14  H   UNL     1      39.546 -12.070   6.806  1.00  0.00     0.162 HD
HETATM   15  O   UNL     1      41.692 -10.024   5.761  1.00  0.00    -0.266 OA
BRANCH  13  16
HETATM   16  C   UNL     1      39.410 -10.016   7.418  1.00  0.00     0.124 C 
BRANCH  16  17
HETATM   17  C   UNL     1      39.824  -9.788   8.872  1.00  0.00     0.047 C 
BRANCH  17  18
HETATM   18  C   UNL     1      41.111  -8.999   9.117  1.00  0.00     0.236 C 
BRANCH  18  19
HETATM   19  N   UNL     1      42.297  -9.850   9.481  1.00  0.00    -0.067 N 
HETATM   20  H   UNL     1      42.037 -10.836   9.267  1.00  0.00     0.280 HD
HETATM   21  C   UNL     1      43.585  -9.513   8.754  1.00  0.00     0.261 C 
HETATM   22  C   UNL     1      44.702 -10.459   9.208  1.00  0.00     0.195 C 
HETATM   23  O   UNL     1      44.888 -10.396  10.626  1.00  0.00    -0.388 OA
HETATM   24  C   UNL     1      43.701 -10.794  11.325  1.00  0.00     0.195 C 
HETATM   25  C   UNL     1      42.536  -9.856  10.991  1.00  0.00     0.261 C 
ENDBRANCH  18  19
ENDBRANCH  17  18
ENDBRANCH  16  17
ENDBRANCH  13  16
ENDBRANCH   6  12
BRANCH   9  26
HETATM   26  C   UNL     1      40.896 -14.092   1.455  1.00  0.00     0.409 C 
HETATM   27  F   UNL     1      41.032 -14.979   0.446  1.00  0.00    -0.169 F 
HETATM   28  F   UNL     1      39.888 -13.253   1.115  1.00  0.00    -0.169 F 
HETATM   29  F   UNL     1      42.023 -13.347   1.498  1.00  0.00    -0.169 F 
ENDBRANCH   9  26
BRANCH   1  30
HETATM   30  C   UNL     1      43.166 -17.624   3.205  1.00  0.00     0.005 A 
HETATM   31  S   UNL     1      43.909 -18.150   4.660  1.00  0.00    -0.104 SA
HETATM   32  C   UNL     1      44.162 -19.722   4.041  1.00  0.00     0.050 A 
HETATM   33  C   UNL     1      43.694 -19.853   2.752  1.00  0.00     0.008 A 
HETATM   34  C   UNL     1      43.120 -18.642   2.269  1.00  0.00     0.017 A 
ENDBRANCH   1  30
TORSDOF 7
ENDMDL
MODEL 2
REMARK VINA RESULT:      -7.9      2.806      3.332
REMARK  7 active torsions:
REMARK  status: ('A' for Active; 'I' for Inactive)
REMARK    1  A    between atoms: C_4  and  C_5 
REMARK    2  A    between atoms: C_10  and  C_11 
REMARK       I    between atoms: C_11  and  N_12 
REMARK    3  A    between atoms: N_12  and  C_13 
REMARK    4  A    between atoms: C_13  and  C_14 
REMARK    5  A    between atoms: C_14  and  C_15 
REMARK    6  A    between atoms: C_15  and  N_16 
REMARK    7  A    between atoms: C_26  and  C_27 
ROOT
HETATM    1  C   UNL     1      42.967 -17.297   4.757  1.00  0.00     0.125 C 
HETATM    2  N   UNL     1      42.318 -16.163   4.087  1.00  0.00    -0.365 N 
HETATM    3  C   UNL     1      42.311 -14.930   4.649  1.00  0.00     0.141 A 
HETATM    4  N   UNL     1      43.104 -14.640   5.725  1.00  0.00    -0.238 N 
HETATM    5  N   UNL     1      43.050 -13.352   6.116  1.00  0.00    -0.163 NA
HETATM    6  C   UNL     1      42.111 -12.808   5.303  1.00  0.00     0.165 A 
HETATM    7  C   UNL     1      41.645 -13.765   4.368  1.00  0.00     0.092 A 
HETATM    8 BR   UNL     1      40.389 -13.489   3.006  1.00  0.00    -0.044 Br
HETATM    9  C   UNL     1      43.952 -15.610   6.397  1.00  0.00     0.221 C 
HETATM   10  C   UNL     1      44.246 -16.794   5.459  1.00  0.00     0.067 C 
HETATM   11  H   UNL     1      41.584 -16.430   3.428  1.00  0.00     0.162 HD
ENDROOT
BRANCH   6  12
HETATM   12  C   UNL     1      41.727 -11.402   5.465  1.00  0.00     0.273 C 
HETATM   13  N   UNL     1      40.846 -11.181   6.506  1.00  0.00    -0.355 N 
HETATM   14  H   UNL     1      40.508 -12.033   6.959  1.00  0.00     0.162 HD
HETATM   15  O   UNL     1      42.145 -10.465   4.781  1.00  0.00    -0.266 OA
BRANCH  13  16
HETATM   16  C   UNL     1      40.161  -9.928   6.712  1.00  0.00     0.124 C 
BRANCH  16  17
HETATM   17  C   UNL     1      39.967  -9.564   8.184  1.00  0.00     0.047 C 
BRANCH  17  18
HETATM   18  C   UNL     1      41.138  -8.883   8.895  1.00  0.00     0.236 C 
BRANCH  18  19
HETATM   19  N   UNL     1      42.255  -9.816   9.276  1.00  0.00    -0.067 N 
HETATM   20  H   UNL     1      41.878 -10.785   9.198  1.00  0.00     0.280 HD
HETATM   21  C   UNL     1      43.508  -9.707   8.428  1.00  0.00     0.261 C 
HETATM   22  C   UNL     1      44.555 -10.717   8.914  1.00  0.00     0.195 C 
HETATM   23  O   UNL     1      44.859 -10.518  10.299  1.00  0.00    -0.388 OA
HETATM   24  C   UNL     1      43.698 -10.701  11.119  1.00  0.00     0.195 C 
HETATM   25  C   UNL     1      42.613  -9.681  10.756  1.00  0.00     0.261 C 
ENDBRANCH  18  19
ENDBRANCH  17  18
ENDBRANCH  16  17
ENDBRANCH  13  16
ENDBRANCH   6  12
BRANCH   9  26
HETATM   26  C   UNL     1      43.296 -16.048   7.689  1.00  0.00     0.409 C 
HETATM   27  F   UNL     1      43.977 -17.031   8.315  1.00  0.00    -0.169 F 
HETATM   28  F   UNL     1      43.219 -15.006   8.551  1.00  0.00    -0.169 F 
HETATM   29  F   UNL     1      42.032 -16.485   7.496  1.00  0.00    -0.169 F 
ENDBRANCH   9  26
BRANCH   1  30
HETATM   30  C   UNL     1      43.310 -18.419   3.807  1.00  0.00     0.005 A 
HETATM   31  S   UNL     1      44.060 -19.844   4.401  1.00  0.00    -0.104 SA
HETATM   32  C   UNL     1      44.120 -20.541   2.843  1.00  0.00     0.050 A 
HETATM   33  C   UNL     1      43.584 -19.713   1.883  1.00  0.00     0.008 A 
HETATM   34  C   UNL     1      43.117 -18.487   2.439  1.00  0.00     0.017 A 
ENDBRANCH   1  30
TORSDOF 7
ENDMDL
MODEL 3
REMARK VINA RESULT:      -7.9      1.321      1.767
REMARK  7 active torsions:
REMARK  status: ('A' for Active; 'I' for Inactive)
REMARK    1  A    between atoms: C_4  and  C_5 
REMARK    2  A    between atoms: C_10  and  C_11 
REMARK       I    between atoms: C_11  and  N_12 
REMARK    3  A    between atoms: N_12  and  C_13 
REMARK    4  A    between atoms: C_13  and  C_14 
REMARK    5  A    between atoms: C_14  and  C_15 
REMARK    6  A    between atoms: C_15  and  N_16 
REMARK    7  A    between atoms: C_26  and  C_27 
ROOT
HETATM    1  C   UNL     1      42.537 -16.082   3.302  1.00  0.00     0.125 C 
HETATM    2  N   UNL     1      42.924 -15.202   4.411  1.00  0.00    -0.365 N 
HETATM    3  C   UNL     1      42.202 -14.097   4.712  1.00  0.00     0.141 A 
HETATM    4  N   UNL     1      40.966 -13.890   4.163  1.00  0.00    -0.238 N 
HETATM    5  N   UNL     1      40.337 -12.791   4.623  1.00  0.00    -0.163 NA
HETATM    6  C   UNL     1      41.249 -12.219   5.446  1.00  0.00     0.165 A 
HETATM    7  C   UNL     1      42.415 -13.019   5.533  1.00  0.00     0.092 A 
HETATM    8 BR   UNL     1      43.934 -12.686   6.577  1.00  0.00    -0.044 Br
HETATM    9  C   UNL     1      40.355 -14.768   3.180  1.00  0.00     0.221 C 
HETATM   10  C   UNL     1      40.997 -16.165   3.247  1.00  0.00     0.067 C 
HETATM   11  H   UNL     1      43.915 -15.249   4.657  1.00  0.00     0.162 HD
ENDROOT
BRANCH   6  12
HETATM   12  C   UNL     1      40.943 -10.946   6.108  1.00  0.00     0.273 C 
HETATM   13  N   UNL     1      40.006 -11.054   7.117  1.00  0.00    -0.355 N 
HETATM   14  H   UNL     1      39.584 -11.982   7.202  1.00  0.00     0.162 HD
HETATM   15  O   UNL     1      41.466  -9.861   5.844  1.00  0.00    -0.266 OA
BRANCH  13  16
HETATM   16  C   UNL     1      39.387  -9.914   7.749  1.00  0.00     0.124 C 
BRANCH  16  17
HETATM   17  C   UNL     1      40.070  -9.480   9.046  1.00  0.00     0.047 C 
BRANCH  17  18
HETATM   18  C   UNL     1      39.423  -9.923  10.359  1.00  0.00     0.236 C 
BRANCH  18  19
HETATM   19  N   UNL     1      40.384 -10.051  11.509  1.00  0.00    -0.067 N 
HETATM   20  H   UNL     1      40.288 -11.023  11.874  1.00  0.00     0.280 HD
HETATM   21  C   UNL     1      41.841  -9.797  11.169  1.00  0.00     0.261 C 
HETATM   22  C   UNL     1      42.707  -9.973  12.421  1.00  0.00     0.195 C 
HETATM   23  O   UNL     1      42.272  -9.107  13.475  1.00  0.00    -0.388 OA
HETATM   24  C   UNL     1      40.923  -9.395  13.862  1.00  0.00     0.195 C 
HETATM   25  C   UNL     1      39.964  -9.174  12.688  1.00  0.00     0.261 C 
ENDBRANCH  18  19
ENDBRANCH  17  18
ENDBRANCH  16  17
ENDBRANCH  13  16
ENDBRANCH   6  12
BRANCH   9  26
HETATM   26  C   UNL     1      40.469 -14.147   1.804  1.00  0.00     0.409 C 
HETATM   27  F   UNL     1      41.575 -13.387   1.663  1.00  0.00    -0.169 F 
HETATM   28  F   UNL     1      40.527 -15.115   0.857  1.00  0.00    -0.169 F 
HETATM   29  F   UNL     1      39.400 -13.375   1.504  1.00  0.00    -0.169 F 
ENDBRANCH   9  26
BRANCH   1  30
HETATM   30  C   UNL     1      43.121 -17.469   3.424  1.00  0.00     0.005 A 
HETATM   31  S   UNL     1      43.870 -17.956   4.889  1.00  0.00    -0.104 SA
HETATM   32  C   UNL     1      44.244 -19.501   4.261  1.00  0.00     0.050 A 
HETATM   33  C   UNL     1      43.812 -19.650   2.963  1.00  0.00     0.008 A 
HETATM   34  C   UNL     1      43.165 -18.478   2.479  1.00  0.00     0.017 A 
ENDBRANCH   1  30
TORSDOF 7
ENDMDL
MODEL 4
REMARK VINA RESULT:      -7.8      4.381      9.142
REMARK  7 active torsions:
REMARK  status: ('A' for Active; 'I' for Inactive)
REMARK    1  A    between atoms: C_4  and  C_5 
REMARK    2  A    between atoms: C_10  and  C_11 
REMARK       I    between atoms: C_11  and  N_12 
REMARK    3  A    between atoms: N_12  and  C_13 
REMARK    4  A    between atoms: C_13  and  C_14 
REMARK    5  A    between atoms: C_14  and  C_15 
REMARK    6  A    between atoms: C_15  and  N_16 
REMARK    7  A    between atoms: C_26  and  C_27 
ROOT
HETATM    1  C   UNL     1      42.890  -9.448   9.926  1.00  0.00     0.125 C 
HETATM    2  N   UNL     1      42.122  -9.855   8.744  1.00  0.00    -0.365 N 
HETATM    3  C   UNL     1      42.737 -10.375   7.655  1.00  0.00     0.141 A 
HETATM    4  N   UNL     1      44.048 -10.765   7.703  1.00  0.00    -0.238 N 
HETATM    5  N   UNL     1      44.492 -11.341   6.569  1.00  0.00    -0.163 NA
HETATM    6  C   UNL     1      43.439 -11.239   5.723  1.00  0.00     0.165 A 
HETATM    7  C   UNL     1      42.326 -10.656   6.377  1.00  0.00     0.092 A 
HETATM    8 BR   UNL     1      40.626 -10.350   5.652  1.00  0.00    -0.044 Br
HETATM    9  C   UNL     1      44.904 -10.599   8.866  1.00  0.00     0.221 C 
HETATM   10  C   UNL     1      44.048 -10.448  10.135  1.00  0.00     0.067 C 
HETATM   11  H   UNL     1      41.222  -9.381   8.646  1.00  0.00     0.162 HD
ENDROOT
BRANCH   6  12
HETATM   12  C   UNL     1      43.560 -11.718   4.341  1.00  0.00     0.273 C 
HETATM   13  N   UNL     1      42.913 -12.916   4.108  1.00  0.00    -0.355 N 
HETATM   14  H   UNL     1      42.521 -13.352   4.946  1.00  0.00     0.162 HD
HETATM   15  O   UNL     1      44.148 -11.129   3.431  1.00  0.00    -0.266 OA
BRANCH  13  16
HETATM   16  C   UNL     1      43.081 -13.685   2.899  1.00  0.00     0.124 C 
BRANCH  16  17
HETATM   17  C   UNL     1      41.933 -14.656   2.620  1.00  0.00     0.047 C 
BRANCH  17  18
HETATM   18  C   UNL     1      41.530 -15.605   3.749  1.00  0.00     0.236 C 
BRANCH  18  19
HETATM   19  N   UNL     1      42.243 -16.929   3.726  1.00  0.00    -0.067 N 
HETATM   20  H   UNL     1      41.608 -17.620   4.182  1.00  0.00     0.280 HD
HETATM   21  C   UNL     1      42.617 -17.442   2.348  1.00  0.00     0.261 C 
HETATM   22  C   UNL     1      43.322 -18.797   2.470  1.00  0.00     0.195 C 
HETATM   23  O   UNL     1      44.478 -18.705   3.309  1.00  0.00    -0.388 OA
HETATM   24  C   UNL     1      44.125 -18.302   4.639  1.00  0.00     0.195 C 
HETATM   25  C   UNL     1      43.476 -16.914   4.630  1.00  0.00     0.261 C 
ENDBRANCH  18  19
ENDBRANCH  17  18
ENDBRANCH  16  17
ENDBRANCH  13  16
ENDBRANCH   6  12
BRANCH   9  26
HETATM   26  C   UNL     1      45.829  -9.421   8.650  1.00  0.00     0.409 C 
HETATM   27  F   UNL     1      45.234  -8.400   7.998  1.00  0.00    -0.169 F 
HETATM   28  F   UNL     1      46.256  -8.937   9.842  1.00  0.00    -0.169 F 
HETATM   29  F   UNL     1      46.936  -9.763   7.953  1.00  0.00    -0.169 F 
ENDBRANCH   9  26
BRANCH   1  30
HETATM   30  C   UNL     1      42.046  -9.372  11.175  1.00  0.00     0.005 A 
HETATM   31  S   UNL     1      40.337  -9.484  11.061  1.00  0.00    -0.104 SA
HETATM   32  C   UNL     1      40.147  -9.314  12.750  1.00  0.00     0.050 A 
HETATM   33  C   UNL     1      41.355  -9.172  13.396  1.00  0.00     0.008 A 
HETATM   34  C   UNL     1      42.451  -9.206  12.487  1.00  0.00     0.017 A 
ENDBRANCH   1  30
TORSDOF 7
ENDMDL
MODEL 5
REMARK VINA RESULT:      -7.6      4.487      8.666
REMARK  7 active torsions:
REMARK  status: ('A' for Active; 'I' for Inactive)
REMARK    1  A    between atoms: C_4  and  C_5 
REMARK    2  A    between atoms: C_10  and  C_11 
REMARK       I    between atoms: C_11  and  N_12 
REMARK    3  A    between atoms: N_12  and  C_13 
REMARK    4  A    between atoms: C_13  and  C_14 
REMARK    5  A    between atoms: C_14  and  C_15 
REMARK    6  A    between atoms: C_15  and  N_16 
REMARK    7  A    between atoms: C_26  and  C_27 
ROOT
HETATM    1  C   UNL     1      42.949  -9.447  10.020  1.00  0.00     0.125 C 
HETATM    2  N   UNL     1      42.109  -9.762   8.860  1.00  0.00    -0.365 N 
HETATM    3  C   UNL     1      42.646 -10.265   7.722  1.00  0.00     0.141 A 
HETATM    4  N   UNL     1      43.935 -10.723   7.693  1.00  0.00    -0.238 N 
HETATM    5  N   UNL     1      44.297 -11.270   6.517  1.00  0.00    -0.163 NA
HETATM    6  C   UNL     1      43.213 -11.078   5.725  1.00  0.00     0.165 A 
HETATM    7  C   UNL     1      42.163 -10.469   6.455  1.00  0.00     0.092 A 
HETATM    8 BR   UNL     1      40.451 -10.046   5.824  1.00  0.00    -0.044 Br
HETATM    9  C   UNL     1      44.850 -10.652   8.820  1.00  0.00     0.221 C 
HETATM   10  C   UNL     1      44.061 -10.512  10.133  1.00  0.00     0.067 C 
HETATM   11  H   UNL     1      41.231  -9.240   8.824  1.00  0.00     0.162 HD
ENDROOT
BRANCH   6  12
HETATM   12  C   UNL     1      43.247 -11.502   4.321  1.00  0.00     0.273 C 
HETATM   13  N   UNL     1      42.273 -12.427   3.995  1.00  0.00    -0.355 N 
HETATM   14  H   UNL     1      41.726 -12.760   4.792  1.00  0.00     0.162 HD
HETATM   15  O   UNL     1      44.031 -11.082   3.468  1.00  0.00    -0.266 OA
BRANCH  13  16
HETATM   16  C   UNL     1      42.253 -13.149   2.747  1.00  0.00     0.124 C 
BRANCH  16  17
HETATM   17  C   UNL     1      42.971 -14.498   2.800  1.00  0.00     0.047 C 
BRANCH  17  18
HETATM   18  C   UNL     1      42.099 -15.749   2.923  1.00  0.00     0.236 C 
BRANCH  18  19
HETATM   19  N   UNL     1      41.916 -16.237   4.333  1.00  0.00    -0.067 N 
HETATM   20  H   UNL     1      41.571 -17.219   4.269  1.00  0.00     0.280 HD
HETATM   21  C   UNL     1      43.162 -16.210   5.198  1.00  0.00     0.261 C 
HETATM   22  C   UNL     1      42.837 -16.743   6.598  1.00  0.00     0.195 C 
HETATM   23  O   UNL     1      41.782 -15.991   7.205  1.00  0.00    -0.388 OA
HETATM   24  C   UNL     1      40.573 -16.079   6.439  1.00  0.00     0.195 C 
HETATM   25  C   UNL     1      40.777 -15.497   5.036  1.00  0.00     0.261 C 
ENDBRANCH  18  19
ENDBRANCH  17  18
ENDBRANCH  16  17
ENDBRANCH  13  16
ENDBRANCH   6  12
BRANCH   9  26
HETATM   26  C   UNL     1      45.825  -9.514   8.610  1.00  0.00     0.409 C 
HETATM   27  F   UNL     1      46.865  -9.855   7.820  1.00  0.00    -0.169 F 
HETATM   28  F   UNL     1      45.203  -8.466   8.018  1.00  0.00    -0.169 F 
HETATM   29  F   UNL     1      46.331  -9.055   9.776  1.00  0.00    -0.169 F 
ENDBRANCH   9  26
BRANCH   1  30
HETATM   30  C   UNL     1      42.167  -9.383  11.310  1.00  0.00     0.005 A 
HETATM   31  S   UNL     1      40.460  -9.559  11.285  1.00  0.00    -0.104 SA
HETATM   32  C   UNL     1      40.349  -9.370  12.979  1.00  0.00     0.050 A 
HETATM   33  C   UNL     1      41.582  -9.175  13.560  1.00  0.00     0.008 A 
HETATM   34  C   UNL     1      42.631  -9.182  12.597  1.00  0.00     0.017 A 
ENDBRANCH   1  30
TORSDOF 7
ENDMDL
MODEL 6
REMARK VINA RESULT:      -7.5      4.559      8.975
REMARK  7 active torsions:
REMARK  status: ('A' for Active; 'I' for Inactive)
REMARK    1  A    between atoms: C_4  and  C_5 
REMARK    2  A    between atoms: C_10  and  C_11 
REMARK       I    between atoms: C_11  and  N_12 
REMARK    3  A    between atoms: N_12  and  C_13 
REMARK    4  A    between atoms: C_13  and  C_14 
REMARK    5  A    between atoms: C_14  and  C_15 
REMARK    6  A    between atoms: C_15  and  N_16 
REMARK    7  A    between atoms: C_26  and  C_27 
ROOT
HETATM    1  C   UNL     1      43.163  -8.709  11.084  1.00  0.00     0.125 C 
HETATM    2  N   UNL     1      42.069  -8.629  10.110  1.00  0.00    -0.365 N 
HETATM    3  C   UNL     1      42.187  -9.181   8.878  1.00  0.00     0.141 A 
HETATM    4  N   UNL     1      43.216 -10.033   8.582  1.00  0.00    -0.238 N 
HETATM    5  N   UNL     1      43.151 -10.566   7.347  1.00  0.00    -0.163 NA
HETATM    6  C   UNL     1      42.072  -9.961   6.793  1.00  0.00     0.165 A 
HETATM    7  C   UNL     1      41.442  -9.105   7.729  1.00  0.00     0.092 A 
HETATM    8 BR   UNL     1      39.891  -8.090   7.462  1.00  0.00    -0.044 Br
HETATM    9  C   UNL     1      44.290 -10.364   9.504  1.00  0.00     0.221 C 
HETATM   10  C   UNL     1      43.848 -10.086  10.952  1.00  0.00     0.067 C 
HETATM   11  H   UNL     1      41.430  -7.846  10.260  1.00  0.00     0.162 HD
ENDROOT
BRANCH   6  12
HETATM   12  C   UNL     1      41.704 -10.249   5.402  1.00  0.00     0.273 C 
HETATM   13  N   UNL     1      41.180 -11.514   5.216  1.00  0.00    -0.355 N 
HETATM   14  H   UNL     1      41.207 -12.108   6.048  1.00  0.00     0.162 HD
HETATM   15  O   UNL     1      41.807  -9.462   4.459  1.00  0.00    -0.266 OA
BRANCH  13  16
HETATM   16  C   UNL     1      40.959 -12.096   3.914  1.00  0.00     0.124 C 
BRANCH  16  17
HETATM   17  C   UNL     1      41.670 -13.434   3.707  1.00  0.00     0.047 C 
BRANCH  17  18
HETATM   18  C   UNL     1      42.910 -13.706   4.559  1.00  0.00     0.236 C 
BRANCH  18  19
HETATM   19  N   UNL     1      42.747 -14.831   5.545  1.00  0.00    -0.067 N 
HETATM   20  H   UNL     1      41.722 -14.982   5.661  1.00  0.00     0.280 HD
HETATM   21  C   UNL     1      43.395 -16.143   5.145  1.00  0.00     0.261 C 
HETATM   22  C   UNL     1      43.142 -17.200   6.227  1.00  0.00     0.195 C 
HETATM   23  O   UNL     1      43.627 -16.761   7.500  1.00  0.00    -0.388 OA
HETATM   24  C   UNL     1      42.961 -15.566   7.927  1.00  0.00     0.195 C 
HETATM   25  C   UNL     1      43.217 -14.421   6.941  1.00  0.00     0.261 C 
ENDBRANCH  18  19
ENDBRANCH  17  18
ENDBRANCH  16  17
ENDBRANCH  13  16
ENDBRANCH   6  12
BRANCH   9  26
HETATM   26  C   UNL     1      45.538  -9.596   9.126  1.00  0.00     0.409 C 
HETATM   27  F   UNL     1      46.334 -10.278   8.275  1.00  0.00    -0.169 F 
HETATM   28  F   UNL     1      45.206  -8.434   8.514  1.00  0.00    -0.169 F 
HETATM   29  F   UNL     1      46.281  -9.267  10.206  1.00  0.00    -0.169 F 
ENDBRANCH   9  26
BRANCH   1  30
HETATM   30  C   UNL     1      42.697  -8.503  12.506  1.00  0.00     0.005 A 
HETATM   31  S   UNL     1      41.451  -9.492  13.150  1.00  0.00    -0.104 SA
HETATM   32  C   UNL     1      41.499  -8.687  14.655  1.00  0.00     0.050 A 
HETATM   33  C   UNL     1      42.441  -7.683  14.676  1.00  0.00     0.008 A 
HETATM   34  C   UNL     1      43.132  -7.576  13.435  1.00  0.00     0.017 A 
ENDBRANCH   1  30
TORSDOF 7
ENDMDL
MODEL 7
REMARK VINA RESULT:      -7.0      3.970      7.502
REMARK  7 active torsions:
REMARK  status: ('A' for Active; 'I' for Inactive)
REMARK    1  A    between atoms: C_4  and  C_5 
REMARK    2  A    between atoms: C_10  and  C_11 
REMARK       I    between atoms: C_11  and  N_12 
REMARK    3  A    between atoms: N_12  and  C_13 
REMARK    4  A    between atoms: C_13  and  C_14 
REMARK    5  A    between atoms: C_14  and  C_15 
REMARK    6  A    between atoms: C_15  and  N_16 
REMARK    7  A    between atoms: C_26  and  C_27 
ROOT
HETATM    1  C   UNL     1      38.851 -12.342   1.131  1.00  0.00     0.125 C 
HETATM    2  N   UNL     1      39.041 -12.036   2.554  1.00  0.00    -0.365 N 
HETATM    3  C   UNL     1      40.093 -12.538   3.243  1.00  0.00     0.141 A 
HETATM    4  N   UNL     1      41.138 -13.140   2.596  1.00  0.00    -0.238 N 
HETATM    5  N   UNL     1      42.147 -13.511   3.409  1.00  0.00    -0.163 NA
HETATM    6  C   UNL     1      41.689 -13.209   4.648  1.00  0.00     0.165 A 
HETATM    7  C   UNL     1      40.419 -12.587   4.574  1.00  0.00     0.092 A 
HETATM    8 BR   UNL     1      39.397 -11.938   6.004  1.00  0.00    -0.044 Br
HETATM    9  C   UNL     1      41.190 -13.358   1.161  1.00  0.00     0.221 C 
HETATM   10  C   UNL     1      40.233 -12.390   0.444  1.00  0.00     0.067 C 
HETATM   11  H   UNL     1      38.183 -11.780   3.045  1.00  0.00     0.162 HD
ENDROOT
BRANCH   6  12
HETATM   12  C   UNL     1      42.503 -13.525   5.828  1.00  0.00     0.273 C 
HETATM   13  N   UNL     1      42.477 -14.860   6.181  1.00  0.00    -0.355 N 
HETATM   14  H   UNL     1      41.824 -15.427   5.635  1.00  0.00     0.162 HD
HETATM   15  O   UNL     1      43.185 -12.716   6.460  1.00  0.00    -0.266 OA
BRANCH  13  16
HETATM   16  C   UNL     1      43.012 -15.361   7.423  1.00  0.00     0.124 C 
BRANCH  16  17
HETATM   17  C   UNL     1      43.982 -16.530   7.252  1.00  0.00     0.047 C 
BRANCH  17  18
HETATM   18  C   UNL     1      43.374 -17.914   7.016  1.00  0.00     0.236 C 
BRANCH  18  19
HETATM   19  N   UNL     1      43.918 -18.629   5.810  1.00  0.00    -0.067 N 
HETATM   20  H   UNL     1      44.955 -18.523   5.839  1.00  0.00     0.280 HD
HETATM   21  C   UNL     1      43.578 -20.106   5.723  1.00  0.00     0.261 C 
HETATM   22  C   UNL     1      44.201 -20.710   4.460  1.00  0.00     0.195 C 
HETATM   23  O   UNL     1      43.764 -20.018   3.286  1.00  0.00    -0.388 OA
HETATM   24  C   UNL     1      44.153 -18.639   3.319  1.00  0.00     0.195 C 
HETATM   25  C   UNL     1      43.515 -17.924   4.515  1.00  0.00     0.261 C 
ENDBRANCH  18  19
ENDBRANCH  17  18
ENDBRANCH  16  17
ENDBRANCH  13  16
ENDBRANCH   6  12
BRANCH   9  26
HETATM   26  C   UNL     1      40.879 -14.808   0.856  1.00  0.00     0.409 C 
HETATM   27  F   UNL     1      39.987 -15.343   1.716  1.00  0.00    -0.169 F 
HETATM   28  F   UNL     1      40.352 -14.922  -0.387  1.00  0.00    -0.169 F 
HETATM   29  F   UNL     1      41.986 -15.582   0.881  1.00  0.00    -0.169 F 
ENDBRANCH   9  26
BRANCH   1  30
HETATM   30  C   UNL     1      37.964 -11.341   0.430  1.00  0.00     0.005 A 
HETATM   31  S   UNL     1      38.148 -11.067  -1.254  1.00  0.00    -0.104 SA
HETATM   32  C   UNL     1      36.903  -9.898  -1.267  1.00  0.00     0.050 A 
HETATM   33  C   UNL     1      36.353  -9.712  -0.018  1.00  0.00     0.008 A 
HETATM   34  C   UNL     1      36.966 -10.545   0.961  1.00  0.00     0.017 A 
ENDBRANCH   1  30
TORSDOF 7
ENDMDL
MODEL 8
REMARK VINA RESULT:      -6.9     18.087     19.551
REMARK  7 active torsions:
REMARK  status: ('A' for Active; 'I' for Inactive)
REMARK    1  A    between atoms: C_4  and  C_5 
REMARK    2  A    between atoms: C_10  and  C_11 
REMARK       I    between atoms: C_11  and  N_12 
REMARK    3  A    between atoms: N_12  and  C_13 
REMARK    4  A    between atoms: C_13  and  C_14 
REMARK    5  A    between atoms: C_14  and  C_15 
REMARK    6  A    between atoms: C_15  and  N_16 
REMARK    7  A    between atoms: C_26  and  C_27 
ROOT
HETATM    1  C   UNL     1      45.203 -30.684  -4.906  1.00  0.00     0.125 C 
HETATM    2  N   UNL     1      45.333 -31.715  -3.870  1.00  0.00    -0.365 N 
HETATM    3  C   UNL     1      45.084 -31.433  -2.568  1.00  0.00     0.141 A 
HETATM    4  N   UNL     1      44.476 -30.263  -2.203  1.00  0.00    -0.238 N 
HETATM    5  N   UNL     1      44.221 -30.166  -0.884  1.00  0.00    -0.163 NA
HETATM    6  C   UNL     1      44.768 -31.292  -0.366  1.00  0.00     0.165 A 
HETATM    7  C   UNL     1      45.299 -32.109  -1.394  1.00  0.00     0.092 A 
HETATM    8 BR   UNL     1      46.111 -33.785  -1.195  1.00  0.00    -0.044 Br
HETATM    9  C   UNL     1      44.113 -29.209  -3.135  1.00  0.00     0.221 C 
HETATM   10  C   UNL     1      44.002 -29.778  -4.560  1.00  0.00     0.067 C 
HETATM   11  H   UNL     1      45.962 -32.480  -4.117  1.00  0.00     0.162 HD
ENDROOT
BRANCH   6  12
HETATM   12  C   UNL     1      44.738 -31.523   1.083  1.00  0.00     0.273 C 
HETATM   13  N   UNL     1      45.230 -30.467   1.826  1.00  0.00    -0.355 N 
HETATM   14  H   UNL     1      45.633 -29.711   1.267  1.00  0.00     0.162 HD
HETATM   15  O   UNL     1      44.299 -32.534   1.635  1.00  0.00    -0.266 OA
BRANCH  13  16
HETATM   16  C   UNL     1      45.506 -30.553   3.239  1.00  0.00     0.124 C 
BRANCH  16  17
HETATM   17  C   UNL     1      46.996 -30.535   3.580  1.00  0.00     0.047 C 
BRANCH  17  18
HETATM   18  C   UNL     1      47.863 -29.491   2.873  1.00  0.00     0.236 C 
BRANCH  18  19
HETATM   19  N   UNL     1      48.628 -30.021   1.692  1.00  0.00    -0.067 N 
HETATM   20  H   UNL     1      48.342 -31.016   1.570  1.00  0.00     0.280 HD
HETATM   21  C   UNL     1      48.400 -29.282   0.387  1.00  0.00     0.261 C 
HETATM   22  C   UNL     1      49.226 -29.931  -0.730  1.00  0.00     0.195 C 
HETATM   23  O   UNL     1      50.617 -29.955  -0.396  1.00  0.00    -0.388 OA
HETATM   24  C   UNL     1      50.854 -30.722   0.791  1.00  0.00     0.195 C 
HETATM   25  C   UNL     1      50.125 -30.105   1.989  1.00  0.00     0.261 C 
ENDBRANCH  18  19
ENDBRANCH  17  18
ENDBRANCH  16  17
ENDBRANCH  13  16
ENDBRANCH   6  12
BRANCH   9  26
HETATM   26  C   UNL     1      45.118 -28.081  -3.041  1.00  0.00     0.409 C 
HETATM   27  F   UNL     1      45.074 -27.251  -4.105  1.00  0.00    -0.169 F 
HETATM   28  F   UNL     1      44.876 -27.330  -1.940  1.00  0.00    -0.169 F 
HETATM   29  F   UNL     1      46.386 -28.536  -2.929  1.00  0.00    -0.169 F 
ENDBRANCH   9  26
BRANCH   1  30
HETATM   30  C   UNL     1      45.026 -31.264  -6.289  1.00  0.00     0.005 A 
HETATM   31  S   UNL     1      46.278 -32.205  -6.990  1.00  0.00    -0.104 SA
HETATM   32  C   UNL     1      45.384 -32.448  -8.424  1.00  0.00     0.050 A 
HETATM   33  C   UNL     1      44.155 -31.828  -8.381  1.00  0.00     0.008 A 
HETATM   34  C   UNL     1      43.949 -31.144  -7.148  1.00  0.00     0.017 A 
ENDBRANCH   1  30
TORSDOF 7
ENDMDL
MODEL 9
REMARK VINA RESULT:      -6.9      7.890     11.025
REMARK  7 active torsions:
REMARK  status: ('A' for Active; 'I' for Inactive)
REMARK    1  A    between atoms: C_4  and  C_5 
REMARK    2  A    between atoms: C_10  and  C_11 
REMARK       I    between atoms: C_11  and  N_12 
REMARK    3  A    between atoms: N_12  and  C_13 
REMARK    4  A    between atoms: C_13  and  C_14 
REMARK    5  A    between atoms: C_14  and  C_15 
REMARK    6  A    between atoms: C_15  and  N_16 
REMARK    7  A    between atoms: C_26  and  C_27 
ROOT
HETATM    1  C   UNL     1      42.593  -9.019  10.821  1.00  0.00     0.125 C 
HETATM    2  N   UNL     1      42.725  -7.615  11.228  1.00  0.00    -0.365 N 
HETATM    3  C   UNL     1      42.149  -7.159  12.366  1.00  0.00     0.141 A 
HETATM    4  N   UNL     1      41.636  -8.025  13.293  1.00  0.00    -0.238 N 
HETATM    5  N   UNL     1      41.174  -7.426  14.407  1.00  0.00    -0.163 NA
HETATM    6  C   UNL     1      41.320  -6.104  14.147  1.00  0.00     0.165 A 
HETATM    7  C   UNL     1      41.941  -5.908  12.888  1.00  0.00     0.092 A 
HETATM    8 BR   UNL     1      42.405  -4.272  12.103  1.00  0.00    -0.044 Br
HETATM    9  C   UNL     1      41.594  -9.468  13.124  1.00  0.00     0.221 C 
HETATM   10  C   UNL     1      42.637  -9.908  12.082  1.00  0.00     0.067 C 
HETATM   11  H   UNL     1      42.916  -6.972  10.458  1.00  0.00     0.162 HD
ENDROOT
BRANCH   6  12
HETATM   12  C   UNL     1      40.868  -5.109  15.125  1.00  0.00     0.273 C 
HETATM   13  N   UNL     1      41.796  -4.837  16.112  1.00  0.00    -0.355 N 
HETATM   14  H   UNL     1      42.628  -5.430  16.083  1.00  0.00     0.162 HD
HETATM   15  O   UNL     1      39.784  -4.522  15.097  1.00  0.00    -0.266 OA
BRANCH  13  16
HETATM   16  C   UNL     1      41.491  -4.070  17.296  1.00  0.00     0.124 C 
BRANCH  16  17
HETATM   17  C   UNL     1      41.398  -4.910  18.570  1.00  0.00     0.047 C 
BRANCH  17  18
HETATM   18  C   UNL     1      41.956  -6.333  18.511  1.00  0.00     0.236 C 
BRANCH  18  19
HETATM   19  N   UNL     1      41.267  -7.304  19.431  1.00  0.00    -0.067 N 
HETATM   20  H   UNL     1      41.109  -6.804  20.332  1.00  0.00     0.280 HD
HETATM   21  C   UNL     1      39.942  -7.845  18.930  1.00  0.00     0.261 C 
HETATM   22  C   UNL     1      39.347  -8.807  19.965  1.00  0.00     0.195 C 
HETATM   23  O   UNL     1      40.254  -9.876  20.257  1.00  0.00    -0.388 OA
HETATM   24  C   UNL     1      41.479  -9.381  20.811  1.00  0.00     0.195 C 
HETATM   25  C   UNL     1      42.191  -8.461  19.814  1.00  0.00     0.261 C 
ENDBRANCH  18  19
ENDBRANCH  17  18
ENDBRANCH  16  17
ENDBRANCH  13  16
ENDBRANCH   6  12
BRANCH   9  26
HETATM   26  C   UNL     1      40.190  -9.894  12.751  1.00  0.00     0.409 C 
HETATM   27  F   UNL     1      40.120 -10.443  11.520  1.00  0.00    -0.169 F 
HETATM   28  F   UNL     1      39.734 -10.821  13.627  1.00  0.00    -0.169 F 
HETATM   29  F   UNL     1      39.317  -8.863  12.789  1.00  0.00    -0.169 F 
ENDBRANCH   9  26
BRANCH   1  30
HETATM   30  C   UNL     1      43.668  -9.451   9.852  1.00  0.00     0.005 A 
HETATM   31  S   UNL     1      43.264  -9.775   8.216  1.00  0.00    -0.104 SA
HETATM   32  C   UNL     1      44.878 -10.178   7.828  1.00  0.00     0.050 A 
HETATM   33  C   UNL     1      45.714 -10.073   8.917  1.00  0.00     0.008 A 
HETATM   34  C   UNL     1      45.016  -9.654  10.086  1.00  0.00     0.017 A 
ENDBRANCH   1  30
TORSDOF 7
ENDMDL
MODEL 10
REMARK VINA RESULT:      -6.9      4.771      8.995
REMARK  7 active torsions:
REMARK  status: ('A' for Active; 'I' for Inactive)
REMARK    1  A    between atoms: C_4  and  C_5 
REMARK    2  A    between atoms: C_10  and  C_11 
REMARK       I    between atoms: C_11  and  N_12 
REMARK    3  A    between atoms: N_12  and  C_13 
REMARK    4  A    between atoms: C_13  and  C_14 
REMARK    5  A    between atoms: C_14  and  C_15 
REMARK    6  A    between atoms: C_15  and  N_16 
REMARK    7  A    between atoms: C_26  and  C_27 
ROOT
HETATM    1  C   UNL     1      42.872  -9.502   9.959  1.00  0.00     0.125 C 
HETATM    2  N   UNL     1      42.059  -9.879   8.796  1.00  0.00    -0.365 N 
HETATM    3  C   UNL     1      42.631 -10.381   7.675  1.00  0.00     0.141 A 
HETATM    4  N   UNL     1      43.940 -10.781   7.669  1.00  0.00    -0.238 N 
HETATM    5  N   UNL     1      44.339 -11.336   6.509  1.00  0.00    -0.163 NA
HETATM    6  C   UNL     1      43.258 -11.209   5.702  1.00  0.00     0.165 A 
HETATM    7  C   UNL     1      42.173 -10.632   6.407  1.00  0.00     0.092 A 
HETATM    8 BR   UNL     1      40.451 -10.299   5.750  1.00  0.00    -0.044 Br
HETATM    9  C   UNL     1      44.838 -10.645   8.804  1.00  0.00     0.221 C 
HETATM   10  C   UNL     1      44.028 -10.515  10.106  1.00  0.00     0.067 C 
HETATM   11  H   UNL     1      41.160  -9.397   8.740  1.00  0.00     0.162 HD
ENDROOT
BRANCH   6  12
HETATM   12  C   UNL     1      43.326 -11.659   4.308  1.00  0.00     0.273 C 
HETATM   13  N   UNL     1      42.770 -12.906   4.097  1.00  0.00    -0.355 N 
HETATM   14  H   UNL     1      42.474 -13.385   4.952  1.00  0.00     0.162 HD
HETATM   15  O   UNL     1      43.798 -11.012   3.371  1.00  0.00    -0.266 OA
BRANCH  13  16
HETATM   16  C   UNL     1      42.922 -13.644   2.867  1.00  0.00     0.124 C 
BRANCH  16  17
HETATM   17  C   UNL     1      41.612 -13.853   2.106  1.00  0.00     0.047 C 
BRANCH  17  18
HETATM   18  C   UNL     1      41.367 -12.972   0.881  1.00  0.00     0.236 C 
BRANCH  18  19
HETATM   19  N   UNL     1      40.331 -11.902   1.088  1.00  0.00    -0.067 N 
HETATM   20  H   UNL     1      39.798 -11.822   0.195  1.00  0.00     0.280 HD
HETATM   21  C   UNL     1      39.354 -12.153   2.221  1.00  0.00     0.261 C 
HETATM   22  C   UNL     1      38.351 -10.998   2.311  1.00  0.00     0.195 C 
HETATM   23  O   UNL     1      39.021  -9.745   2.487  1.00  0.00    -0.388 OA
HETATM   24  C   UNL     1      39.884  -9.457   1.380  1.00  0.00     0.195 C 
HETATM   25  C   UNL     1      40.975 -10.525   1.251  1.00  0.00     0.261 C 
ENDBRANCH  18  19
ENDBRANCH  17  18
ENDBRANCH  16  17
ENDBRANCH  13  16
ENDBRANCH   6  12
BRANCH   9  26
HETATM   26  C   UNL     1      45.764  -9.470   8.580  1.00  0.00     0.409 C 
HETATM   27  F   UNL     1      45.152  -8.428   7.979  1.00  0.00    -0.169 F 
HETATM   28  F   UNL     1      46.244  -9.020   9.765  1.00  0.00    -0.169 F 
HETATM   29  F   UNL     1      46.837  -9.803   7.829  1.00  0.00    -0.169 F 
ENDBRANCH   9  26
BRANCH   1  30
HETATM   30  C   UNL     1      42.073  -9.447  11.238  1.00  0.00     0.005 A 
HETATM   31  S   UNL     1      40.365  -9.616  11.189  1.00  0.00    -0.104 SA
HETATM   32  C   UNL     1      40.233  -9.441  12.883  1.00  0.00     0.050 A 
HETATM   33  C   UNL     1      41.458  -9.257  13.482  1.00  0.00     0.008 A 
HETATM   34  C   UNL     1      42.520  -9.260  12.533  1.00  0.00     0.017 A 
ENDBRANCH   1  30
TORSDOF 7
ENDMDL
