MODEL 1
REMARK VINA RESULT:      -8.0      0.000      0.000
REMARK  4 active torsions:
REMARK  status: ('A' for Active; 'I' for Inactive)
REMARK    1  A    between atoms: C_9  and  C_10 
REMARK       I    between atoms: C_10  and  N_11 
REMARK    2  A    between atoms: N_11  and  C_12 
REMARK    3  A    between atoms: C_12  and  C_13 
REMARK    4  A    between atoms: C_14  and  O_15 
ROOT
HETATM    1  C   UNL     1      43.257 -12.782   6.315  1.00  0.00     0.273 C 
HETATM    2  N   UNL     1      43.636 -14.102   6.223  1.00  0.00    -0.347 N 
HETATM    3  O   UNL     1      42.100 -12.383   6.237  1.00  0.00    -0.266 OA
HETATM    4  H   UNL     1      44.621 -14.265   6.411  1.00  0.00     0.163 HD
ENDROOT
BRANCH   1   5
HETATM    5  C   UNL     1      44.397 -11.877   6.549  1.00  0.00     0.157 A 
HETATM    6  C   UNL     1      44.625 -11.053   7.692  1.00  0.00     0.029 A 
HETATM    7  C   UNL     1      43.952 -10.785   8.901  1.00  0.00     0.023 A 
HETATM    8  C   UNL     1      45.830 -10.410   7.439  1.00  0.00     0.063 A 
HETATM    9  C   UNL     1      44.511  -9.880   9.818  1.00  0.00    -0.061 A 
HETATM   10  C   UNL     1      43.808  -9.577  11.110  1.00  0.00     0.048 C 
HETATM   11  C   UNL     1      45.729  -9.254   9.525  1.00  0.00     0.009 A 
HETATM   12  C   UNL     1      46.413  -9.506   8.329  1.00  0.00     0.032 A 
HETATM   13  N   UNL     1      46.231 -10.866   6.214  1.00  0.00    -0.277 N 
HETATM   14  H   UNL     1      47.073 -10.608   5.710  1.00  0.00     0.189 HD
HETATM   15  N   UNL     1      45.396 -11.753   5.646  1.00  0.00    -0.168 NA
ENDBRANCH   1   5
BRANCH   2  16
HETATM   16  C   UNL     1      42.760 -15.262   6.121  1.00  0.00     0.116 C 
HETATM   17  C   UNL     1      42.596 -16.046   7.425  1.00  0.00     0.037 C 
BRANCH  16  18
HETATM   18  C   UNL     1      43.100 -16.181   4.953  1.00  0.00    -0.003 A 
HETATM   19  C   UNL     1      42.877 -15.759   3.623  1.00  0.00     0.076 A 
HETATM   20  C   UNL     1      43.181 -16.615   2.557  1.00  0.00     0.037 A 
HETATM   21  C   UNL     1      43.688 -17.893   2.796  1.00  0.00     0.003 A 
HETATM   22  C   UNL     1      43.888 -18.328   4.100  1.00  0.00     0.001 A 
HETATM   23  C   UNL     1      43.590 -17.482   5.168  1.00  0.00     0.012 A 
BRANCH  19  24
HETATM   24  O   UNL     1      42.363 -14.496   3.472  1.00  0.00    -0.355 OA
HETATM   25  C   UNL     1      43.088 -13.584   2.654  1.00  0.00     0.210 C 
ENDBRANCH  19  24
ENDBRANCH  16  18
ENDBRANCH   2  16
TORSDOF 4
ENDMDL
MODEL 2
REMARK VINA RESULT:      -7.9      5.037      7.482
REMARK  4 active torsions:
REMARK  status: ('A' for Active; 'I' for Inactive)
REMARK    1  A    between atoms: C_9  and  C_10 
REMARK       I    between atoms: C_10  and  N_11 
REMARK    2  A    between atoms: N_11  and  C_12 
REMARK    3  A    between atoms: C_12  and  C_13 
REMARK    4  A    between atoms: C_14  and  O_15 
ROOT
HETATM    1  C   UNL     1      42.860 -15.001   3.203  1.00  0.00     0.273 C 
HETATM    2  N   UNL     1      41.618 -14.499   3.516  1.00  0.00    -0.347 N 
HETATM    3  O   UNL     1      43.564 -14.595   2.285  1.00  0.00    -0.266 OA
HETATM    4  H   UNL     1      41.219 -14.882   4.367  1.00  0.00     0.163 HD
ENDROOT
BRANCH   1   5
HETATM    5  C   UNL     1      43.284 -16.080   4.112  1.00  0.00     0.157 A 
HETATM    6  C   UNL     1      43.465 -17.460   3.791  1.00  0.00     0.029 A 
HETATM    7  C   UNL     1      43.324 -18.261   2.641  1.00  0.00     0.023 A 
HETATM    8  C   UNL     1      43.881 -18.054   4.975  1.00  0.00     0.063 A 
HETATM    9  C   UNL     1      43.607 -19.635   2.715  1.00  0.00    -0.061 A 
HETATM   10  C   UNL     1      43.460 -20.507   1.502  1.00  0.00     0.048 C 
HETATM   11  C   UNL     1      44.026 -20.195   3.929  1.00  0.00     0.009 A 
HETATM   12  C   UNL     1      44.171 -19.417   5.084  1.00  0.00     0.032 A 
HETATM   13  N   UNL     1      43.921 -17.042   5.893  1.00  0.00    -0.277 N 
HETATM   14  H   UNL     1      44.183 -17.111   6.870  1.00  0.00     0.189 HD
HETATM   15  N   UNL     1      43.571 -15.837   5.412  1.00  0.00    -0.168 NA
ENDBRANCH   1   5
BRANCH   2  16
HETATM   16  C   UNL     1      40.955 -13.353   2.907  1.00  0.00     0.116 C 
HETATM   17  C   UNL     1      39.715 -12.868   3.660  1.00  0.00     0.037 C 
BRANCH  16  18
HETATM   18  C   UNL     1      40.675 -13.531   1.419  1.00  0.00    -0.003 A 
HETATM   19  C   UNL     1      40.993 -12.502   0.504  1.00  0.00     0.076 A 
HETATM   20  C   UNL     1      40.719 -12.670  -0.860  1.00  0.00     0.037 A 
HETATM   21  C   UNL     1      40.118 -13.841  -1.324  1.00  0.00     0.003 A 
HETATM   22  C   UNL     1      39.779 -14.849  -0.430  1.00  0.00     0.001 A 
HETATM   23  C   UNL     1      40.048 -14.692   0.930  1.00  0.00     0.012 A 
BRANCH  19  24
HETATM   24  O   UNL     1      41.567 -11.377   1.039  1.00  0.00    -0.355 OA
HETATM   25  C   UNL     1      41.319 -10.138   0.387  1.00  0.00     0.210 C 
ENDBRANCH  19  24
ENDBRANCH  16  18
ENDBRANCH   2  16
TORSDOF 4
ENDMDL
MODEL 3
REMARK VINA RESULT:      -7.6      4.699      7.998
REMARK  4 active torsions:
REMARK  status: ('A' for Active; 'I' for Inactive)
REMARK    1  A    between atoms: C_9  and  C_10 
REMARK       I    between atoms: C_10  and  N_11 
REMARK    2  A    between atoms: N_11  and  C_12 
REMARK    3  A    between atoms: C_12  and  C_13 
REMARK    4  A    between atoms: C_14  and  O_15 
ROOT
HETATM    1  C   UNL     1      40.618 -15.181   2.347  1.00  0.00     0.273 C 
HETATM    2  N   UNL     1      40.964 -14.157   1.496  1.00  0.00    -0.347 N 
HETATM    3  O   UNL     1      39.522 -15.729   2.366  1.00  0.00    -0.266 OA
HETATM    4  H   UNL     1      41.943 -13.890   1.545  1.00  0.00     0.163 HD
ENDROOT
BRANCH   1   5
HETATM    5  C   UNL     1      41.724 -15.584   3.233  1.00  0.00     0.157 A 
HETATM    6  C   UNL     1      42.473 -16.798   3.184  1.00  0.00     0.029 A 
HETATM    7  C   UNL     1      42.467 -17.963   2.390  1.00  0.00     0.023 A 
HETATM    8  C   UNL     1      43.402 -16.692   4.210  1.00  0.00     0.063 A 
HETATM    9  C   UNL     1      43.396 -18.983   2.651  1.00  0.00    -0.061 A 
HETATM   10  C   UNL     1      43.404 -20.234   1.820  1.00  0.00     0.048 C 
HETATM   11  C   UNL     1      44.317 -18.836   3.696  1.00  0.00     0.009 A 
HETATM   12  C   UNL     1      44.339 -17.688   4.497  1.00  0.00     0.032 A 
HETATM   13  N   UNL     1      43.163 -15.477   4.788  1.00  0.00    -0.277 N 
HETATM   14  H   UNL     1      43.655 -15.065   5.574  1.00  0.00     0.189 HD
HETATM   15  N   UNL     1      42.162 -14.777   4.227  1.00  0.00    -0.168 NA
ENDBRANCH   1   5
BRANCH   2  16
HETATM   16  C   UNL     1      40.161 -13.605   0.412  1.00  0.00     0.116 C 
HETATM   17  C   UNL     1      39.807 -14.608  -0.687  1.00  0.00     0.037 C 
BRANCH  16  18
HETATM   18  C   UNL     1      40.726 -12.313  -0.167  1.00  0.00    -0.003 A 
HETATM   19  C   UNL     1      41.027 -11.221   0.679  1.00  0.00     0.076 A 
HETATM   20  C   UNL     1      41.534 -10.034   0.135  1.00  0.00     0.037 A 
HETATM   21  C   UNL     1      41.731  -9.911  -1.241  1.00  0.00     0.003 A 
HETATM   22  C   UNL     1      41.416 -10.969  -2.085  1.00  0.00     0.001 A 
HETATM   23  C   UNL     1      40.912 -12.156  -1.553  1.00  0.00     0.012 A 
BRANCH  19  24
HETATM   24  O   UNL     1      40.792 -11.415   2.016  1.00  0.00    -0.355 OA
HETATM   25  C   UNL     1      41.760 -10.917   2.933  1.00  0.00     0.210 C 
ENDBRANCH  19  24
ENDBRANCH  16  18
ENDBRANCH   2  16
TORSDOF 4
ENDMDL
MODEL 4
REMARK VINA RESULT:      -7.6      1.784      7.507
REMARK  4 active torsions:
REMARK  status: ('A' for Active; 'I' for Inactive)
REMARK    1  A    between atoms: C_9  and  C_10 
REMARK       I    between atoms: C_10  and  N_11 
REMARK    2  A    between atoms: N_11  and  C_12 
REMARK    3  A    between atoms: C_12  and  C_13 
REMARK    4  A    between atoms: C_14  and  O_15 
ROOT
HETATM    1  C   UNL     1      42.160 -13.987   6.454  1.00  0.00     0.273 C 
HETATM    2  N   UNL     1      43.085 -13.011   6.743  1.00  0.00    -0.347 N 
HETATM    3  O   UNL     1      41.028 -13.771   6.037  1.00  0.00    -0.266 OA
HETATM    4  H   UNL     1      44.006 -13.369   6.980  1.00  0.00     0.163 HD
ENDROOT
BRANCH   1   5
HETATM    5  C   UNL     1      42.681 -15.348   6.673  1.00  0.00     0.157 A 
HETATM    6  C   UNL     1      42.977 -16.330   5.680  1.00  0.00     0.029 A 
HETATM    7  C   UNL     1      42.899 -16.409   4.275  1.00  0.00     0.023 A 
HETATM    8  C   UNL     1      43.450 -17.428   6.388  1.00  0.00     0.063 A 
HETATM    9  C   UNL     1      43.299 -17.587   3.625  1.00  0.00    -0.061 A 
HETATM   10  C   UNL     1      43.221 -17.694   2.129  1.00  0.00     0.048 C 
HETATM   11  C   UNL     1      43.771 -18.672   4.375  1.00  0.00     0.009 A 
HETATM   12  C   UNL     1      43.856 -18.614   5.772  1.00  0.00     0.032 A 
HETATM   13  N   UNL     1      43.408 -17.055   7.702  1.00  0.00    -0.277 N 
HETATM   14  H   UNL     1      43.681 -17.611   8.505  1.00  0.00     0.189 HD
HETATM   15  N   UNL     1      42.953 -15.808   7.916  1.00  0.00    -0.168 NA
ENDBRANCH   1   5
BRANCH   2  16
HETATM   16  C   UNL     1      42.948 -11.577   6.520  1.00  0.00     0.116 C 
HETATM   17  C   UNL     1      42.786 -11.178   5.053  1.00  0.00     0.037 C 
BRANCH  16  18
HETATM   18  C   UNL     1      44.026 -10.748   7.212  1.00  0.00    -0.003 A 
HETATM   19  C   UNL     1      43.681  -9.572   7.915  1.00  0.00     0.076 A 
HETATM   20  C   UNL     1      44.679  -8.810   8.536  1.00  0.00     0.037 A 
HETATM   21  C   UNL     1      46.019  -9.193   8.453  1.00  0.00     0.003 A 
HETATM   22  C   UNL     1      46.372 -10.335   7.744  1.00  0.00     0.001 A 
HETATM   23  C   UNL     1      45.385 -11.100   7.123  1.00  0.00     0.012 A 
BRANCH  19  24
HETATM   24  O   UNL     1      42.346  -9.255   7.938  1.00  0.00    -0.355 OA
HETATM   25  C   UNL     1      41.738  -9.063   9.210  1.00  0.00     0.210 C 
ENDBRANCH  19  24
ENDBRANCH  16  18
ENDBRANCH   2  16
TORSDOF 4
ENDMDL
MODEL 5
REMARK VINA RESULT:      -7.4      1.210      1.882
REMARK  4 active torsions:
REMARK  status: ('A' for Active; 'I' for Inactive)
REMARK    1  A    between atoms: C_9  and  C_10 
REMARK       I    between atoms: C_10  and  N_11 
REMARK    2  A    between atoms: N_11  and  C_12 
REMARK    3  A    between atoms: C_12  and  C_13 
REMARK    4  A    between atoms: C_14  and  O_15 
ROOT
HETATM    1  C   UNL     1      42.792 -12.170   5.960  1.00  0.00     0.273 C 
HETATM    2  N   UNL     1      42.994 -13.485   5.613  1.00  0.00    -0.347 N 
HETATM    3  O   UNL     1      41.706 -11.601   5.931  1.00  0.00    -0.266 OA
HETATM    4  H   UNL     1      43.936 -13.822   5.794  1.00  0.00     0.163 HD
ENDROOT
BRANCH   1   5
HETATM    5  C   UNL     1      44.027 -11.501   6.406  1.00  0.00     0.157 A 
HETATM    6  C   UNL     1      44.274 -10.900   7.678  1.00  0.00     0.029 A 
HETATM    7  C   UNL     1      43.544 -10.708   8.868  1.00  0.00     0.023 A 
HETATM    8  C   UNL     1      45.577 -10.427   7.607  1.00  0.00     0.063 A 
HETATM    9  C   UNL     1      44.147 -10.048   9.951  1.00  0.00    -0.061 A 
HETATM   10  C   UNL     1      43.387  -9.829  11.227  1.00  0.00     0.048 C 
HETATM   11  C   UNL     1      45.465  -9.586   9.839  1.00  0.00     0.009 A 
HETATM   12  C   UNL     1      46.208  -9.767   8.665  1.00  0.00     0.032 A 
HETATM   13  N   UNL     1      46.013 -10.757   6.354  1.00  0.00    -0.277 N 
HETATM   14  H   UNL     1      46.924 -10.565   5.952  1.00  0.00     0.189 HD
HETATM   15  N   UNL     1      45.110 -11.407   5.601  1.00  0.00    -0.168 NA
ENDBRANCH   1   5
BRANCH   2  16
HETATM   16  C   UNL     1      41.978 -14.466   5.252  1.00  0.00     0.116 C 
HETATM   17  C   UNL     1      41.055 -14.871   6.403  1.00  0.00     0.037 C 
BRANCH  16  18
HETATM   18  C   UNL     1      42.538 -15.683   4.525  1.00  0.00    -0.003 A 
HETATM   19  C   UNL     1      43.597 -16.429   5.091  1.00  0.00     0.076 A 
HETATM   20  C   UNL     1      44.113 -17.538   4.409  1.00  0.00     0.037 A 
HETATM   21  C   UNL     1      43.602 -17.907   3.164  1.00  0.00     0.003 A 
HETATM   22  C   UNL     1      42.577 -17.167   2.588  1.00  0.00     0.001 A 
HETATM   23  C   UNL     1      42.055 -16.062   3.259  1.00  0.00     0.012 A 
BRANCH  19  24
HETATM   24  O   UNL     1      44.054 -15.994   6.309  1.00  0.00    -0.355 OA
HETATM   25  C   UNL     1      43.973 -16.900   7.403  1.00  0.00     0.210 C 
ENDBRANCH  19  24
ENDBRANCH  16  18
ENDBRANCH   2  16
TORSDOF 4
ENDMDL
MODEL 6
REMARK VINA RESULT:      -7.3      2.118      7.672
REMARK  4 active torsions:
REMARK  status: ('A' for Active; 'I' for Inactive)
REMARK    1  A    between atoms: C_9  and  C_10 
REMARK       I    between atoms: C_10  and  N_11 
REMARK    2  A    between atoms: N_11  and  C_12 
REMARK    3  A    between atoms: C_12  and  C_13 
REMARK    4  A    between atoms: C_14  and  O_15 
ROOT
HETATM    1  C   UNL     1      42.525 -11.781   5.384  1.00  0.00     0.273 C 
HETATM    2  N   UNL     1      43.338 -11.776   6.494  1.00  0.00    -0.347 N 
HETATM    3  O   UNL     1      42.508 -10.901   4.531  1.00  0.00    -0.266 OA
HETATM    4  H   UNL     1      43.296 -12.631   7.042  1.00  0.00     0.163 HD
ENDROOT
BRANCH   1   5
HETATM    5  C   UNL     1      41.677 -12.984   5.303  1.00  0.00     0.157 A 
HETATM    6  C   UNL     1      41.821 -14.082   4.403  1.00  0.00     0.029 A 
HETATM    7  C   UNL     1      42.698 -14.428   3.355  1.00  0.00     0.023 A 
HETATM    8  C   UNL     1      40.796 -14.958   4.735  1.00  0.00     0.063 A 
HETATM    9  C   UNL     1      42.519 -15.644   2.675  1.00  0.00    -0.061 A 
HETATM   10  C   UNL     1      43.440 -16.030   1.554  1.00  0.00     0.048 C 
HETATM   11  C   UNL     1      41.472 -16.499   3.042  1.00  0.00     0.009 A 
HETATM   12  C   UNL     1      40.589 -16.174   4.079  1.00  0.00     0.032 A 
HETATM   13  N   UNL     1      40.129 -14.357   5.766  1.00  0.00    -0.277 N 
HETATM   14  H   UNL     1      39.318 -14.713   6.261  1.00  0.00     0.189 HD
HETATM   15  N   UNL     1      40.630 -13.167   6.139  1.00  0.00    -0.168 NA
ENDBRANCH   1   5
BRANCH   2  16
HETATM   16  C   UNL     1      44.381 -10.811   6.816  1.00  0.00     0.116 C 
HETATM   17  C   UNL     1      45.799 -11.281   6.489  1.00  0.00     0.037 C 
BRANCH  16  18
HETATM   18  C   UNL     1      44.285 -10.262   8.236  1.00  0.00    -0.003 A 
HETATM   19  C   UNL     1      43.132  -9.558   8.654  1.00  0.00     0.076 A 
HETATM   20  C   UNL     1      43.059  -9.047   9.955  1.00  0.00     0.037 A 
HETATM   21  C   UNL     1      44.124  -9.211  10.843  1.00  0.00     0.003 A 
HETATM   22  C   UNL     1      45.271  -9.879  10.436  1.00  0.00     0.001 A 
HETATM   23  C   UNL     1      45.353 -10.394   9.142  1.00  0.00     0.012 A 
BRANCH  19  24
HETATM   24  O   UNL     1      42.137  -9.427   7.719  1.00  0.00    -0.355 OA
HETATM   25  C   UNL     1      41.878  -8.123   7.213  1.00  0.00     0.210 C 
ENDBRANCH  19  24
ENDBRANCH  16  18
ENDBRANCH   2  16
TORSDOF 4
ENDMDL
MODEL 7
REMARK VINA RESULT:      -7.1      4.274      7.911
REMARK  4 active torsions:
REMARK  status: ('A' for Active; 'I' for Inactive)
REMARK    1  A    between atoms: C_9  and  C_10 
REMARK       I    between atoms: C_10  and  N_11 
REMARK    2  A    between atoms: N_11  and  C_12 
REMARK    3  A    between atoms: C_12  and  C_13 
REMARK    4  A    between atoms: C_14  and  O_15 
ROOT
HETATM    1  C   UNL     1      40.464 -14.491   2.154  1.00  0.00     0.273 C 
HETATM    2  N   UNL     1      41.117 -14.194   3.328  1.00  0.00    -0.347 N 
HETATM    3  O   UNL     1      39.720 -15.452   1.995  1.00  0.00    -0.266 OA
HETATM    4  H   UNL     1      41.611 -13.307   3.315  1.00  0.00     0.163 HD
ENDROOT
BRANCH   1   5
HETATM    5  C   UNL     1      40.731 -13.508   1.090  1.00  0.00     0.157 A 
HETATM    6  C   UNL     1      40.270 -13.550  -0.261  1.00  0.00     0.029 A 
HETATM    7  C   UNL     1      39.489 -14.427  -1.040  1.00  0.00     0.023 A 
HETATM    8  C   UNL     1      40.774 -12.398  -0.851  1.00  0.00     0.063 A 
HETATM    9  C   UNL     1      39.237 -14.119  -2.387  1.00  0.00    -0.061 A 
HETATM   10  C   UNL     1      38.410 -15.041  -3.235  1.00  0.00     0.048 C 
HETATM   11  C   UNL     1      39.763 -12.946  -2.943  1.00  0.00     0.009 A 
HETATM   12  C   UNL     1      40.543 -12.062  -2.187  1.00  0.00     0.032 A 
HETATM   13  N   UNL     1      41.476 -11.765   0.136  1.00  0.00    -0.277 N 
HETATM   14  H   UNL     1      41.982 -10.889   0.063  1.00  0.00     0.189 HD
HETATM   15  N   UNL     1      41.472 -12.400   1.321  1.00  0.00    -0.168 NA
ENDBRANCH   1   5
BRANCH   2  16
HETATM   16  C   UNL     1      40.978 -14.879   4.608  1.00  0.00     0.116 C 
HETATM   17  C   UNL     1      40.249 -14.069   5.681  1.00  0.00     0.037 C 
BRANCH  16  18
HETATM   18  C   UNL     1      42.288 -15.457   5.133  1.00  0.00    -0.003 A 
HETATM   19  C   UNL     1      42.884 -16.570   4.498  1.00  0.00     0.076 A 
HETATM   20  C   UNL     1      44.080 -17.102   4.996  1.00  0.00     0.037 A 
HETATM   21  C   UNL     1      44.684 -16.553   6.128  1.00  0.00     0.003 A 
HETATM   22  C   UNL     1      44.094 -15.474   6.775  1.00  0.00     0.001 A 
HETATM   23  C   UNL     1      42.903 -14.936   6.286  1.00  0.00     0.012 A 
BRANCH  19  24
HETATM   24  O   UNL     1      42.222 -17.061   3.401  1.00  0.00    -0.355 OA
HETATM   25  C   UNL     1      43.006 -17.638   2.363  1.00  0.00     0.210 C 
ENDBRANCH  19  24
ENDBRANCH  16  18
ENDBRANCH   2  16
TORSDOF 4
ENDMDL
MODEL 8
REMARK VINA RESULT:      -7.0      4.033      7.966
REMARK  4 active torsions:
REMARK  status: ('A' for Active; 'I' for Inactive)
REMARK    1  A    between atoms: C_9  and  C_10 
REMARK       I    between atoms: C_10  and  N_11 
REMARK    2  A    between atoms: N_11  and  C_12 
REMARK    3  A    between atoms: C_12  and  C_13 
REMARK    4  A    between atoms: C_14  and  O_15 
ROOT
HETATM    1  C   UNL     1      40.960 -14.797   2.126  1.00  0.00     0.273 C 
HETATM    2  N   UNL     1      42.327 -14.695   2.244  1.00  0.00    -0.347 N 
HETATM    3  O   UNL     1      40.295 -15.741   2.537  1.00  0.00    -0.266 OA
HETATM    4  H   UNL     1      42.704 -13.802   1.940  1.00  0.00     0.163 HD
ENDROOT
BRANCH   1   5
HETATM    5  C   UNL     1      40.356 -13.626   1.466  1.00  0.00     0.157 A 
HETATM    6  C   UNL     1      39.746 -13.580   0.176  1.00  0.00     0.029 A 
HETATM    7  C   UNL     1      39.506 -14.498  -0.867  1.00  0.00     0.023 A 
HETATM    8  C   UNL     1      39.323 -12.266   0.023  1.00  0.00     0.063 A 
HETATM    9  C   UNL     1      38.848 -14.067  -2.030  1.00  0.00    -0.061 A 
HETATM   10  C   UNL     1      38.586 -15.027  -3.154  1.00  0.00     0.048 C 
HETATM   11  C   UNL     1      38.437 -12.733  -2.144  1.00  0.00     0.009 A 
HETATM   12  C   UNL     1      38.666 -11.805  -1.121  1.00  0.00     0.032 A 
HETATM   13  N   UNL     1      39.691 -11.632   1.177  1.00  0.00    -0.277 N 
HETATM   14  H   UNL     1      39.542 -10.658   1.414  1.00  0.00     0.189 HD
HETATM   15  N   UNL     1      40.314 -12.418   2.072  1.00  0.00    -0.168 NA
ENDBRANCH   1   5
BRANCH   2  16
HETATM   16  C   UNL     1      43.219 -15.606   2.950  1.00  0.00     0.116 C 
HETATM   17  C   UNL     1      43.316 -17.001   2.331  1.00  0.00     0.037 C 
BRANCH  16  18
HETATM   18  C   UNL     1      42.955 -15.675   4.450  1.00  0.00    -0.003 A 
HETATM   19  C   UNL     1      42.934 -14.494   5.227  1.00  0.00     0.076 A 
HETATM   20  C   UNL     1      42.704 -14.569   6.607  1.00  0.00     0.037 A 
HETATM   21  C   UNL     1      42.510 -15.803   7.228  1.00  0.00     0.003 A 
HETATM   22  C   UNL     1      42.553 -16.972   6.478  1.00  0.00     0.001 A 
HETATM   23  C   UNL     1      42.780 -16.909   5.104  1.00  0.00     0.012 A 
BRANCH  19  24
HETATM   24  O   UNL     1      43.147 -13.323   4.546  1.00  0.00    -0.355 OA
HETATM   25  C   UNL     1      42.647 -12.124   5.126  1.00  0.00     0.210 C 
ENDBRANCH  19  24
ENDBRANCH  16  18
ENDBRANCH   2  16
TORSDOF 4
ENDMDL
MODEL 9
REMARK VINA RESULT:      -6.8      2.094      2.301
REMARK  4 active torsions:
REMARK  status: ('A' for Active; 'I' for Inactive)
REMARK    1  A    between atoms: C_9  and  C_10 
REMARK       I    between atoms: C_10  and  N_11 
REMARK    2  A    between atoms: N_11  and  C_12 
REMARK    3  A    between atoms: C_12  and  C_13 
REMARK    4  A    between atoms: C_14  and  O_15 
ROOT
HETATM    1  C   UNL     1      42.626 -12.982   5.370  1.00  0.00     0.273 C 
HETATM    2  N   UNL     1      42.255 -14.164   5.969  1.00  0.00    -0.347 N 
HETATM    3  O   UNL     1      42.311 -12.649   4.234  1.00  0.00    -0.266 OA
HETATM    4  H   UNL     1      42.517 -14.234   6.948  1.00  0.00     0.163 HD
ENDROOT
BRANCH   1   5
HETATM    5  C   UNL     1      43.434 -12.125   6.256  1.00  0.00     0.157 A 
HETATM    6  C   UNL     1      43.098 -10.825   6.741  1.00  0.00     0.029 A 
HETATM    7  C   UNL     1      42.016  -9.934   6.593  1.00  0.00     0.023 A 
HETATM    8  C   UNL     1      44.170 -10.450   7.541  1.00  0.00     0.063 A 
HETATM    9  C   UNL     1      42.043  -8.696   7.255  1.00  0.00    -0.061 A 
HETATM   10  C   UNL     1      40.903  -7.731   7.108  1.00  0.00     0.048 C 
HETATM   11  C   UNL     1      43.143  -8.357   8.054  1.00  0.00     0.009 A 
HETATM   12  C   UNL     1      44.229  -9.227   8.213  1.00  0.00     0.032 A 
HETATM   13  N   UNL     1      45.044 -11.500   7.488  1.00  0.00    -0.277 N 
HETATM   14  H   UNL     1      45.941 -11.574   7.955  1.00  0.00     0.189 HD
HETATM   15  N   UNL     1      44.636 -12.529   6.726  1.00  0.00    -0.168 NA
ENDBRANCH   1   5
BRANCH   2  16
HETATM   16  C   UNL     1      41.357 -15.178   5.430  1.00  0.00     0.116 C 
HETATM   17  C   UNL     1      40.510 -15.895   6.483  1.00  0.00     0.037 C 
BRANCH  16  18
HETATM   18  C   UNL     1      42.045 -16.166   4.495  1.00  0.00    -0.003 A 
HETATM   19  C   UNL     1      41.523 -16.412   3.205  1.00  0.00     0.076 A 
HETATM   20  C   UNL     1      42.155 -17.331   2.358  1.00  0.00     0.037 A 
HETATM   21  C   UNL     1      43.290 -18.023   2.783  1.00  0.00     0.003 A 
HETATM   22  C   UNL     1      43.798 -17.808   4.058  1.00  0.00     0.001 A 
HETATM   23  C   UNL     1      43.176 -16.894   4.908  1.00  0.00     0.012 A 
BRANCH  19  24
HETATM   24  O   UNL     1      40.398 -15.703   2.867  1.00  0.00    -0.355 OA
HETATM   25  C   UNL     1      39.997 -15.717   1.502  1.00  0.00     0.210 C 
ENDBRANCH  19  24
ENDBRANCH  16  18
ENDBRANCH   2  16
TORSDOF 4
ENDMDL
MODEL 10
REMARK VINA RESULT:      -6.8      5.510      8.351
REMARK  4 active torsions:
REMARK  status: ('A' for Active; 'I' for Inactive)
REMARK    1  A    between atoms: C_9  and  C_10 
REMARK       I    between atoms: C_10  and  N_11 
REMARK    2  A    between atoms: N_11  and  C_12 
REMARK    3  A    between atoms: C_12  and  C_13 
REMARK    4  A    between atoms: C_14  and  O_15 
ROOT
HETATM    1  C   UNL     1      40.749 -15.259   1.949  1.00  0.00     0.273 C 
HETATM    2  N   UNL     1      40.761 -13.908   1.690  1.00  0.00    -0.347 N 
HETATM    3  O   UNL     1      40.043 -16.074   1.364  1.00  0.00    -0.266 OA
HETATM    4  H   UNL     1      41.478 -13.396   2.196  1.00  0.00     0.163 HD
ENDROOT
BRANCH   1   5
HETATM    5  C   UNL     1      41.705 -15.646   3.002  1.00  0.00     0.157 A 
HETATM    6  C   UNL     1      42.479 -16.844   3.067  1.00  0.00     0.029 A 
HETATM    7  C   UNL     1      42.630 -18.000   2.276  1.00  0.00     0.023 A 
HETATM    8  C   UNL     1      43.226 -16.728   4.232  1.00  0.00     0.063 A 
HETATM    9  C   UNL     1      43.526 -19.003   2.678  1.00  0.00    -0.061 A 
HETATM   10  C   UNL     1      43.699 -20.245   1.852  1.00  0.00     0.048 C 
HETATM   11  C   UNL     1      44.262 -18.847   3.860  1.00  0.00     0.009 A 
HETATM   12  C   UNL     1      44.127 -17.706   4.662  1.00  0.00     0.032 A 
HETATM   13  N   UNL     1      42.869 -15.524   4.771  1.00  0.00    -0.277 N 
HETATM   14  H   UNL     1      43.217 -15.109   5.629  1.00  0.00     0.189 HD
HETATM   15  N   UNL     1      41.956 -14.841   4.058  1.00  0.00    -0.168 NA
ENDBRANCH   1   5
BRANCH   2  16
HETATM   16  C   UNL     1      40.041 -13.209   0.633  1.00  0.00     0.116 C 
HETATM   17  C   UNL     1      40.895 -12.851  -0.584  1.00  0.00     0.037 C 
BRANCH  16  18
HETATM   18  C   UNL     1      39.243 -12.009   1.132  1.00  0.00    -0.003 A 
HETATM   19  C   UNL     1      38.118 -11.549   0.411  1.00  0.00     0.076 A 
HETATM   20  C   UNL     1      37.399 -10.438   0.869  1.00  0.00     0.037 A 
HETATM   21  C   UNL     1      37.794  -9.767   2.028  1.00  0.00     0.003 A 
HETATM   22  C   UNL     1      38.913 -10.195   2.731  1.00  0.00     0.001 A 
HETATM   23  C   UNL     1      39.634 -11.301   2.283  1.00  0.00     0.012 A 
BRANCH  19  24
HETATM   24  O   UNL     1      37.803 -12.253  -0.724  1.00  0.00    -0.355 OA
HETATM   25  C   UNL     1      37.355 -11.513  -1.854  1.00  0.00     0.210 C 
ENDBRANCH  19  24
ENDBRANCH  16  18
ENDBRANCH   2  16
TORSDOF 4
ENDMDL
