MODEL 1
REMARK VINA RESULT:      -7.9      0.000      0.000
REMARK  3 active torsions:
REMARK  status: ('A' for Active; 'I' for Inactive)
REMARK    1  A    between atoms: C_8  and  C_9 
REMARK    2  A    between atoms: C_10  and  O_11 
REMARK    3  A    between atoms: C_24  and  N_25 
ROOT
HETATM    1  C   UNL     1      40.409 -15.536   6.928  1.00  0.00     0.070 C 
HETATM    2  C   UNL     1      41.632 -14.737   6.700  1.00  0.00     0.035 A 
HETATM    3  N   UNL     1      42.516 -14.426   7.709  1.00  0.00    -0.280 N 
HETATM    4  H   UNL     1      42.463 -14.686   8.689  1.00  0.00     0.189 HD
HETATM    5  N   UNL     1      43.556 -13.667   7.308  1.00  0.00    -0.148 NA
HETATM    6  C   UNL     1      43.314 -13.512   6.013  1.00  0.00     0.199 A 
HETATM    7  C   UNL     1      42.163 -14.165   5.561  1.00  0.00     0.034 A 
HETATM    8  C   UNL     1      41.761 -14.088   4.129  1.00  0.00     0.107 C 
HETATM    9  C   UNL     1      42.560 -13.009   3.421  1.00  0.00     0.067 C 
HETATM   10  C   UNL     1      41.962 -12.421   2.154  1.00  0.00     0.020 C 
HETATM   11  N   UNL     1      41.465 -11.933   1.102  1.00  0.00    -0.096 N 
HETATM   12  C   UNL     1      43.659 -12.420   3.964  1.00  0.00     0.139 C 
HETATM   13  O   UNL     1      44.122 -12.754   5.248  1.00  0.00    -0.277 OA
ENDROOT
BRANCH   8  14
HETATM   14  C   UNL     1      42.012 -15.474   3.547  1.00  0.00    -0.010 A 
HETATM   15  C   UNL     1      41.213 -15.964   2.503  1.00  0.00     0.076 A 
HETATM   16  C   UNL     1      41.479 -17.212   1.924  1.00  0.00     0.049 A 
HETATM   17  C   UNL     1      42.521 -18.023   2.402  1.00  0.00    -0.023 A 
HETATM   18  C   UNL     1      43.320 -17.559   3.466  1.00  0.00    -0.025 A 
HETATM   19  C   UNL     1      42.794 -19.282   1.842  1.00  0.00     0.012 A 
HETATM   20  C   UNL     1      43.067 -16.290   4.011  1.00  0.00     0.023 A 
HETATM   21  C   UNL     1      44.358 -18.368   3.957  1.00  0.00     0.012 A 
HETATM   22  C   UNL     1      44.609 -19.620   3.397  1.00  0.00     0.001 A 
HETATM   23  C   UNL     1      43.831 -20.075   2.337  1.00  0.00     0.001 A 
BRANCH  15  24
HETATM   24  O   UNL     1      40.222 -15.148   2.021  1.00  0.00    -0.355 OA
HETATM   25  C   UNL     1      40.073 -15.227   0.605  1.00  0.00     0.210 C 
ENDBRANCH  15  24
ENDBRANCH   8  14
BRANCH  12  26
HETATM   26  N   UNL     1      44.406 -11.423   3.375  1.00  0.00    -0.282 NA
HETATM   27  H   UNL     1      45.348 -11.292   3.735  1.00  0.00     0.126 HD
HETATM   28  H   UNL     1      44.368 -11.469   2.359  1.00  0.00     0.126 HD
ENDBRANCH  12  26
TORSDOF 3
ENDMDL
MODEL 2
REMARK VINA RESULT:      -7.8      9.381     11.155
REMARK  3 active torsions:
REMARK  status: ('A' for Active; 'I' for Inactive)
REMARK    1  A    between atoms: C_8  and  C_9 
REMARK    2  A    between atoms: C_10  and  O_11 
REMARK    3  A    between atoms: C_24  and  N_25 
ROOT
HETATM    1  C   UNL     1      38.743  -9.745  10.026  1.00  0.00     0.070 C 
HETATM    2  C   UNL     1      39.282  -9.945  11.388  1.00  0.00     0.035 A 
HETATM    3  N   UNL     1      39.066 -11.097  12.111  1.00  0.00    -0.280 N 
HETATM    4  H   UNL     1      38.546 -11.922  11.832  1.00  0.00     0.189 HD
HETATM    5  N   UNL     1      39.617 -11.078  13.343  1.00  0.00    -0.148 NA
HETATM    6  C   UNL     1      40.196  -9.886  13.379  1.00  0.00     0.199 A 
HETATM    7  C   UNL     1      40.057  -9.143  12.202  1.00  0.00     0.034 A 
HETATM    8  C   UNL     1      40.658  -7.785  12.087  1.00  0.00     0.107 C 
HETATM    9  C   UNL     1      41.097  -7.293  13.455  1.00  0.00     0.067 C 
HETATM   10  C   UNL     1      41.234  -5.791  13.641  1.00  0.00     0.020 C 
HETATM   11  N   UNL     1      41.347  -4.544  13.795  1.00  0.00    -0.096 N 
HETATM   12  C   UNL     1      41.177  -8.101  14.546  1.00  0.00     0.139 C 
HETATM   13  O   UNL     1      40.827  -9.461  14.490  1.00  0.00    -0.277 OA
ENDROOT
BRANCH   8  14
HETATM   14  C   UNL     1      41.824  -7.922  11.115  1.00  0.00    -0.010 A 
HETATM   15  C   UNL     1      42.002  -6.993  10.080  1.00  0.00     0.076 A 
HETATM   16  C   UNL     1      43.107  -7.079   9.223  1.00  0.00     0.049 A 
HETATM   17  C   UNL     1      44.039  -8.123   9.348  1.00  0.00    -0.023 A 
HETATM   18  C   UNL     1      43.864  -9.080  10.368  1.00  0.00    -0.025 A 
HETATM   19  C   UNL     1      45.144  -8.233   8.490  1.00  0.00     0.012 A 
HETATM   20  C   UNL     1      42.774  -8.959  11.244  1.00  0.00     0.023 A 
HETATM   21  C   UNL     1      44.786 -10.133  10.493  1.00  0.00     0.012 A 
HETATM   22  C   UNL     1      45.873 -10.234   9.626  1.00  0.00     0.001 A 
HETATM   23  C   UNL     1      46.055  -9.282   8.628  1.00  0.00     0.001 A 
BRANCH  15  24
HETATM   24  O   UNL     1      41.106  -5.958   9.990  1.00  0.00    -0.355 OA
HETATM   25  C   UNL     1      41.724  -4.675  10.064  1.00  0.00     0.210 C 
ENDBRANCH  15  24
ENDBRANCH   8  14
BRANCH  12  26
HETATM   26  N   UNL     1      41.549  -7.702  15.811  1.00  0.00    -0.282 NA
HETATM   27  H   UNL     1      41.078  -8.161  16.586  1.00  0.00     0.126 HD
HETATM   28  H   UNL     1      42.560  -7.671  15.919  1.00  0.00     0.126 HD
ENDBRANCH  12  26
TORSDOF 3
ENDMDL
MODEL 3
REMARK VINA RESULT:      -7.6      6.831      9.581
REMARK  3 active torsions:
REMARK  status: ('A' for Active; 'I' for Inactive)
REMARK    1  A    between atoms: C_8  and  C_9 
REMARK    2  A    between atoms: C_10  and  O_11 
REMARK    3  A    between atoms: C_24  and  N_25 
ROOT
HETATM    1  C   UNL     1      41.157  -5.527   8.032  1.00  0.00     0.070 C 
HETATM    2  C   UNL     1      40.287  -6.711   7.865  1.00  0.00     0.035 A 
HETATM    3  N   UNL     1      39.379  -6.827   6.837  1.00  0.00    -0.280 N 
HETATM    4  H   UNL     1      39.189  -6.164   6.092  1.00  0.00     0.189 HD
HETATM    5  N   UNL     1      38.661  -7.969   6.870  1.00  0.00    -0.148 NA
HETATM    6  C   UNL     1      39.145  -8.579   7.944  1.00  0.00     0.199 A 
HETATM    7  C   UNL     1      40.168  -7.879   8.591  1.00  0.00     0.034 A 
HETATM    8  C   UNL     1      40.817  -8.439   9.810  1.00  0.00     0.107 C 
HETATM    9  C   UNL     1      40.007  -9.610  10.338  1.00  0.00     0.067 C 
HETATM   10  C   UNL     1      40.181  -9.968  11.805  1.00  0.00     0.020 C 
HETATM   11  N   UNL     1      40.327 -10.265  13.022  1.00  0.00    -0.096 N 
HETATM   12  C   UNL     1      39.012 -10.207   9.629  1.00  0.00     0.139 C 
HETATM   13  O   UNL     1      38.639  -9.758   8.351  1.00  0.00    -0.277 OA
ENDROOT
BRANCH   8  14
HETATM   14  C   UNL     1      42.223  -8.848   9.387  1.00  0.00    -0.010 A 
HETATM   15  C   UNL     1      43.340  -8.425  10.123  1.00  0.00     0.076 A 
HETATM   16  C   UNL     1      44.629  -8.849   9.775  1.00  0.00     0.049 A 
HETATM   17  C   UNL     1      44.842  -9.669   8.655  1.00  0.00    -0.023 A 
HETATM   18  C   UNL     1      43.735 -10.086   7.889  1.00  0.00    -0.025 A 
HETATM   19  C   UNL     1      46.128 -10.093   8.283  1.00  0.00     0.012 A 
HETATM   20  C   UNL     1      42.445  -9.686   8.272  1.00  0.00     0.023 A 
HETATM   21  C   UNL     1      43.940 -10.899   6.762  1.00  0.00     0.012 A 
HETATM   22  C   UNL     1      45.225 -11.303   6.400  1.00  0.00     0.001 A 
HETATM   23  C   UNL     1      46.318 -10.904   7.163  1.00  0.00     0.001 A 
BRANCH  15  24
HETATM   24  O   UNL     1      43.116  -7.653  11.234  1.00  0.00    -0.355 OA
HETATM   25  C   UNL     1      43.433  -8.323  12.453  1.00  0.00     0.210 C 
ENDBRANCH  15  24
ENDBRANCH   8  14
BRANCH  12  26
HETATM   26  N   UNL     1      38.234 -11.256  10.070  1.00  0.00    -0.282 NA
HETATM   27  H   UNL     1      37.314 -11.344   9.647  1.00  0.00     0.126 HD
HETATM   28  H   UNL     1      38.752 -12.132  10.089  1.00  0.00     0.126 HD
ENDBRANCH  12  26
TORSDOF 3
ENDMDL
MODEL 4
REMARK VINA RESULT:      -7.5      1.973      2.778
REMARK  3 active torsions:
REMARK  status: ('A' for Active; 'I' for Inactive)
REMARK    1  A    between atoms: C_8  and  C_9 
REMARK    2  A    between atoms: C_10  and  O_11 
REMARK    3  A    between atoms: C_24  and  N_25 
ROOT
HETATM    1  C   UNL     1      39.147 -12.978   2.763  1.00  0.00     0.070 C 
HETATM    2  C   UNL     1      39.701 -12.877   4.130  1.00  0.00     0.035 A 
HETATM    3  N   UNL     1      38.906 -12.836   5.254  1.00  0.00    -0.280 N 
HETATM    4  H   UNL     1      37.893 -12.871   5.304  1.00  0.00     0.189 HD
HETATM    5  N   UNL     1      39.597 -12.717   6.406  1.00  0.00    -0.148 NA
HETATM    6  C   UNL     1      40.854 -12.692   5.984  1.00  0.00     0.199 A 
HETATM    7  C   UNL     1      40.998 -12.815   4.599  1.00  0.00     0.034 A 
HETATM    8  C   UNL     1      42.351 -12.810   3.973  1.00  0.00     0.107 C 
HETATM    9  C   UNL     1      43.389 -12.354   4.983  1.00  0.00     0.067 C 
HETATM   10  C   UNL     1      44.687 -11.785   4.434  1.00  0.00     0.020 C 
HETATM   11  N   UNL     1      45.764 -11.313   3.978  1.00  0.00    -0.096 N 
HETATM   12  C   UNL     1      43.136 -12.248   6.315  1.00  0.00     0.139 C 
HETATM   13  O   UNL     1      41.869 -12.531   6.854  1.00  0.00    -0.277 OA
ENDROOT
BRANCH   8  14
HETATM   14  C   UNL     1      42.596 -14.235   3.490  1.00  0.00    -0.010 A 
HETATM   15  C   UNL     1      42.433 -14.567   2.138  1.00  0.00     0.076 A 
HETATM   16  C   UNL     1      42.716 -15.860   1.679  1.00  0.00     0.049 A 
HETATM   17  C   UNL     1      43.127 -16.868   2.567  1.00  0.00    -0.023 A 
HETATM   18  C   UNL     1      43.273 -16.560   3.935  1.00  0.00    -0.025 A 
HETATM   19  C   UNL     1      43.402 -18.173   2.127  1.00  0.00     0.012 A 
HETATM   20  C   UNL     1      43.024 -15.251   4.374  1.00  0.00     0.023 A 
HETATM   21  C   UNL     1      43.674 -17.565   4.830  1.00  0.00     0.012 A 
HETATM   22  C   UNL     1      43.934 -18.859   4.379  1.00  0.00     0.001 A 
HETATM   23  C   UNL     1      43.803 -19.162   3.028  1.00  0.00     0.001 A 
BRANCH  15  24
HETATM   24  O   UNL     1      42.066 -13.567   1.275  1.00  0.00    -0.355 OA
HETATM   25  C   UNL     1      41.146 -13.999   0.276  1.00  0.00     0.210 C 
ENDBRANCH  15  24
ENDBRANCH   8  14
BRANCH  12  26
HETATM   26  N   UNL     1      44.033 -11.820   7.268  1.00  0.00    -0.282 NA
HETATM   27  H   UNL     1      44.737 -12.493   7.560  1.00  0.00     0.126 HD
HETATM   28  H   UNL     1      44.422 -10.906   7.042  1.00  0.00     0.126 HD
ENDBRANCH  12  26
TORSDOF 3
ENDMDL
MODEL 5
REMARK VINA RESULT:      -7.0      9.658     11.830
REMARK  3 active torsions:
REMARK  status: ('A' for Active; 'I' for Inactive)
REMARK    1  A    between atoms: C_8  and  C_9 
REMARK    2  A    between atoms: C_10  and  O_11 
REMARK    3  A    between atoms: C_24  and  N_25 
ROOT
HETATM    1  C   UNL     1      38.514  -6.596   9.520  1.00  0.00     0.070 C 
HETATM    2  C   UNL     1      38.832  -6.773  10.953  1.00  0.00     0.035 A 
HETATM    3  N   UNL     1      38.045  -7.516  11.804  1.00  0.00    -0.280 N 
HETATM    4  H   UNL     1      37.191  -8.020  11.585  1.00  0.00     0.189 HD
HETATM    5  N   UNL     1      38.487  -7.537  13.078  1.00  0.00    -0.148 NA
HETATM    6  C   UNL     1      39.584  -6.794  13.011  1.00  0.00     0.199 A 
HETATM    7  C   UNL     1      39.876  -6.313  11.731  1.00  0.00     0.034 A 
HETATM    8  C   UNL     1      41.079  -5.467  11.496  1.00  0.00     0.107 C 
HETATM    9  C   UNL     1      41.658  -5.005  12.821  1.00  0.00     0.067 C 
HETATM   10  C   UNL     1      42.521  -3.754  12.803  1.00  0.00     0.020 C 
HETATM   11  N   UNL     1      43.237  -2.716  12.787  1.00  0.00    -0.096 N 
HETATM   12  C   UNL     1      41.285  -5.529  14.020  1.00  0.00     0.139 C 
HETATM   13  O   UNL     1      40.303  -6.530  14.118  1.00  0.00    -0.277 OA
ENDROOT
BRANCH   8  14
HETATM   14  C   UNL     1      42.054  -6.332  10.706  1.00  0.00    -0.010 A 
HETATM   15  C   UNL     1      42.349  -6.034   9.367  1.00  0.00     0.076 A 
HETATM   16  C   UNL     1      43.290  -6.790   8.656  1.00  0.00     0.049 A 
HETATM   17  C   UNL     1      43.928  -7.892   9.249  1.00  0.00    -0.023 A 
HETATM   18  C   UNL     1      43.627  -8.223  10.586  1.00  0.00    -0.025 A 
HETATM   19  C   UNL     1      44.864  -8.669   8.547  1.00  0.00     0.012 A 
HETATM   20  C   UNL     1      42.712  -7.434  11.298  1.00  0.00     0.023 A 
HETATM   21  C   UNL     1      44.254  -9.330  11.182  1.00  0.00     0.012 A 
HETATM   22  C   UNL     1      45.173 -10.097  10.468  1.00  0.00     0.001 A 
HETATM   23  C   UNL     1      45.482  -9.765   9.153  1.00  0.00     0.001 A 
BRANCH  15  24
HETATM   24  O   UNL     1      41.746  -4.935   8.811  1.00  0.00    -0.355 OA
HETATM   25  C   UNL     1      41.360  -5.136   7.453  1.00  0.00     0.210 C 
ENDBRANCH  15  24
ENDBRANCH   8  14
BRANCH  12  26
HETATM   26  N   UNL     1      41.762  -5.132  15.249  1.00  0.00    -0.282 NA
HETATM   27  H   UNL     1      42.412  -5.766  15.707  1.00  0.00     0.126 HD
HETATM   28  H   UNL     1      42.083  -4.166  15.239  1.00  0.00     0.126 HD
ENDBRANCH  12  26
TORSDOF 3
ENDMDL
MODEL 6
REMARK VINA RESULT:      -7.0      5.893      9.320
REMARK  3 active torsions:
REMARK  status: ('A' for Active; 'I' for Inactive)
REMARK    1  A    between atoms: C_8  and  C_9 
REMARK    2  A    between atoms: C_10  and  O_11 
REMARK    3  A    between atoms: C_24  and  N_25 
ROOT
HETATM    1  C   UNL     1      44.382 -11.844   6.981  1.00  0.00     0.070 C 
HETATM    2  C   UNL     1      42.954 -11.589   6.694  1.00  0.00     0.035 A 
HETATM    3  N   UNL     1      42.088 -12.580   6.288  1.00  0.00    -0.280 N 
HETATM    4  H   UNL     1      42.289 -13.563   6.140  1.00  0.00     0.189 HD
HETATM    5  N   UNL     1      40.834 -12.144   6.051  1.00  0.00    -0.148 NA
HETATM    6  C   UNL     1      40.924 -10.850   6.327  1.00  0.00     0.199 A 
HETATM    7  C   UNL     1      42.190 -10.440   6.756  1.00  0.00     0.034 A 
HETATM    8  C   UNL     1      42.447  -9.016   7.108  1.00  0.00     0.107 C 
HETATM    9  C   UNL     1      41.295  -8.147   6.635  1.00  0.00     0.067 C 
HETATM   10  C   UNL     1      41.584  -6.670   6.419  1.00  0.00     0.020 C 
HETATM   11  N   UNL     1      41.824  -5.445   6.239  1.00  0.00    -0.096 N 
HETATM   12  C   UNL     1      40.105  -8.653   6.214  1.00  0.00     0.139 C 
HETATM   13  O   UNL     1      39.864 -10.036   6.162  1.00  0.00    -0.277 OA
ENDROOT
BRANCH   8  14
HETATM   14  C   UNL     1      42.617  -8.981   8.623  1.00  0.00    -0.010 A 
HETATM   15  C   UNL     1      43.813  -8.526   9.196  1.00  0.00     0.076 A 
HETATM   16  C   UNL     1      43.952  -8.434  10.587  1.00  0.00     0.049 A 
HETATM   17  C   UNL     1      42.915  -8.839  11.444  1.00  0.00    -0.023 A 
HETATM   18  C   UNL     1      41.713  -9.322  10.888  1.00  0.00    -0.025 A 
HETATM   19  C   UNL     1      43.041  -8.767  12.841  1.00  0.00     0.012 A 
HETATM   20  C   UNL     1      41.574  -9.371   9.493  1.00  0.00     0.023 A 
HETATM   21  C   UNL     1      40.676  -9.738  11.739  1.00  0.00     0.012 A 
HETATM   22  C   UNL     1      40.820  -9.670  13.124  1.00  0.00     0.001 A 
HETATM   23  C   UNL     1      42.000  -9.180  13.675  1.00  0.00     0.001 A 
BRANCH  15  24
HETATM   24  O   UNL     1      44.805  -8.100   8.349  1.00  0.00    -0.355 OA
HETATM   25  C   UNL     1      45.968  -8.924   8.391  1.00  0.00     0.210 C 
ENDBRANCH  15  24
ENDBRANCH   8  14
BRANCH  12  26
HETATM   26  N   UNL     1      39.038  -7.911   5.756  1.00  0.00    -0.282 NA
HETATM   27  H   UNL     1      38.115  -8.221   6.048  1.00  0.00     0.126 HD
HETATM   28  H   UNL     1      39.185  -6.913   5.885  1.00  0.00     0.126 HD
ENDBRANCH  12  26
TORSDOF 3
ENDMDL
MODEL 7
REMARK VINA RESULT:      -7.0     14.949     17.771
REMARK  3 active torsions:
REMARK  status: ('A' for Active; 'I' for Inactive)
REMARK    1  A    between atoms: C_8  and  C_9 
REMARK    2  A    between atoms: C_10  and  O_11 
REMARK    3  A    between atoms: C_24  and  N_25 
ROOT
HETATM    1  C   UNL     1      45.132 -27.746  -4.071  1.00  0.00     0.070 C 
HETATM    2  C   UNL     1      44.775 -29.173  -4.222  1.00  0.00     0.035 A 
HETATM    3  N   UNL     1      44.443 -29.731  -5.437  1.00  0.00    -0.280 N 
HETATM    4  H   UNL     1      44.401 -29.277  -6.343  1.00  0.00     0.189 HD
HETATM    5  N   UNL     1      44.124 -31.040  -5.365  1.00  0.00    -0.148 NA
HETATM    6  C   UNL     1      44.271 -31.300  -4.073  1.00  0.00     0.199 A 
HETATM    7  C   UNL     1      44.698 -30.207  -3.312  1.00  0.00     0.034 A 
HETATM    8  C   UNL     1      44.914 -30.344  -1.844  1.00  0.00     0.107 C 
HETATM    9  C   UNL     1      44.319 -31.650  -1.350  1.00  0.00     0.067 C 
HETATM   10  C   UNL     1      43.965 -31.737   0.126  1.00  0.00     0.020 C 
HETATM   11  N   UNL     1      43.672 -31.809   1.350  1.00  0.00    -0.096 N 
HETATM   12  C   UNL     1      43.913 -32.646  -2.183  1.00  0.00     0.139 C 
HETATM   13  O   UNL     1      43.992 -32.521  -3.580  1.00  0.00    -0.277 OA
ENDROOT
BRANCH   8  14
HETATM   14  C   UNL     1      46.422 -30.274  -1.632  1.00  0.00    -0.010 A 
HETATM   15  C   UNL     1      46.973 -29.362  -0.722  1.00  0.00     0.076 A 
HETATM   16  C   UNL     1      48.352 -29.337  -0.479  1.00  0.00     0.049 A 
HETATM   17  C   UNL     1      49.224 -30.192  -1.174  1.00  0.00    -0.023 A 
HETATM   18  C   UNL     1      48.692 -31.100  -2.111  1.00  0.00    -0.025 A 
HETATM   19  C   UNL     1      50.611 -30.172  -0.954  1.00  0.00     0.012 A 
HETATM   20  C   UNL     1      47.304 -31.141  -2.316  1.00  0.00     0.023 A 
HETATM   21  C   UNL     1      49.557 -31.952  -2.817  1.00  0.00     0.012 A 
HETATM   22  C   UNL     1      50.933 -31.913  -2.594  1.00  0.00     0.001 A 
HETATM   23  C   UNL     1      51.459 -31.027  -1.660  1.00  0.00     0.001 A 
BRANCH  15  24
HETATM   24  O   UNL     1      46.109 -28.557  -0.023  1.00  0.00    -0.355 OA
HETATM   25  C   UNL     1      46.307 -28.617   1.387  1.00  0.00     0.210 C 
ENDBRANCH  15  24
ENDBRANCH   8  14
BRANCH  12  26
HETATM   26  N   UNL     1      43.348 -33.839  -1.788  1.00  0.00    -0.282 NA
HETATM   27  H   UNL     1      43.489 -34.104  -0.817  1.00  0.00     0.126 HD
HETATM   28  H   UNL     1      42.380 -33.920  -2.090  1.00  0.00     0.126 HD
ENDBRANCH  12  26
TORSDOF 3
ENDMDL
MODEL 8
REMARK VINA RESULT:      -6.9     13.790     16.959
REMARK  3 active torsions:
REMARK  status: ('A' for Active; 'I' for Inactive)
REMARK    1  A    between atoms: C_8  and  C_9 
REMARK    2  A    between atoms: C_10  and  O_11 
REMARK    3  A    between atoms: C_24  and  N_25 
ROOT
HETATM    1  C   UNL     1      42.568  -6.943  14.176  1.00  0.00     0.070 C 
HETATM    2  C   UNL     1      41.096  -6.906  14.042  1.00  0.00     0.035 A 
HETATM    3  N   UNL     1      40.400  -7.784  13.240  1.00  0.00    -0.280 N 
HETATM    4  H   UNL     1      40.771  -8.535  12.667  1.00  0.00     0.189 HD
HETATM    5  N   UNL     1      39.068  -7.573  13.230  1.00  0.00    -0.148 NA
HETATM    6  C   UNL     1      38.935  -6.543  14.054  1.00  0.00     0.199 A 
HETATM    7  C   UNL     1      40.136  -6.096  14.614  1.00  0.00     0.034 A 
HETATM    8  C   UNL     1      40.148  -4.949  15.565  1.00  0.00     0.107 C 
HETATM    9  C   UNL     1      38.809  -4.235  15.536  1.00  0.00     0.067 C 
HETATM   10  C   UNL     1      38.784  -2.788  16.001  1.00  0.00     0.020 C 
HETATM   11  N   UNL     1      38.764  -1.587  16.387  1.00  0.00    -0.096 N 
HETATM   12  C   UNL     1      37.702  -4.753  14.940  1.00  0.00     0.139 C 
HETATM   13  O   UNL     1      37.727  -5.991  14.276  1.00  0.00    -0.277 OA
ENDROOT
BRANCH   8  14
HETATM   14  C   UNL     1      40.462  -5.541  16.934  1.00  0.00    -0.010 A 
HETATM   15  C   UNL     1      41.381  -4.914  17.788  1.00  0.00     0.076 A 
HETATM   16  C   UNL     1      41.626  -5.420  19.071  1.00  0.00     0.049 A 
HETATM   17  C   UNL     1      40.995  -6.592  19.518  1.00  0.00    -0.023 A 
HETATM   18  C   UNL     1      40.086  -7.251  18.666  1.00  0.00    -0.025 A 
HETATM   19  C   UNL     1      41.238  -7.122  20.796  1.00  0.00     0.012 A 
HETATM   20  C   UNL     1      39.820  -6.711  17.398  1.00  0.00     0.023 A 
HETATM   21  C   UNL     1      39.457  -8.428  19.102  1.00  0.00     0.012 A 
HETATM   22  C   UNL     1      39.718  -8.947  20.370  1.00  0.00     0.001 A 
HETATM   23  C   UNL     1      40.604  -8.291  21.219  1.00  0.00     0.001 A 
BRANCH  15  24
HETATM   24  O   UNL     1      41.965  -3.751  17.354  1.00  0.00    -0.355 OA
HETATM   25  C   UNL     1      42.432  -2.929  18.421  1.00  0.00     0.210 C 
ENDBRANCH  15  24
ENDBRANCH   8  14
BRANCH  12  26
HETATM   26  N   UNL     1      36.471  -4.138  14.867  1.00  0.00    -0.282 NA
HETATM   27  H   UNL     1      35.979  -4.219  13.981  1.00  0.00     0.126 HD
HETATM   28  H   UNL     1      35.888  -4.356  15.672  1.00  0.00     0.126 HD
ENDBRANCH  12  26
TORSDOF 3
ENDMDL
MODEL 9
REMARK VINA RESULT:      -6.9      3.602      7.315
REMARK  3 active torsions:
REMARK  status: ('A' for Active; 'I' for Inactive)
REMARK    1  A    between atoms: C_8  and  C_9 
REMARK    2  A    between atoms: C_10  and  O_11 
REMARK    3  A    between atoms: C_24  and  N_25 
ROOT
HETATM    1  C   UNL     1      40.158  -8.524   3.744  1.00  0.00     0.070 C 
HETATM    2  C   UNL     1      40.951  -9.626   3.158  1.00  0.00     0.035 A 
HETATM    3  N   UNL     1      41.503  -9.556   1.898  1.00  0.00    -0.280 N 
HETATM    4  H   UNL     1      41.453  -8.790   1.235  1.00  0.00     0.189 HD
HETATM    5  N   UNL     1      42.168 -10.672   1.532  1.00  0.00    -0.148 NA
HETATM    6  C   UNL     1      42.030 -11.449   2.598  1.00  0.00     0.199 A 
HETATM    7  C   UNL     1      41.319 -10.863   3.649  1.00  0.00     0.034 A 
HETATM    8  C   UNL     1      41.086 -11.610   4.917  1.00  0.00     0.107 C 
HETATM    9  C   UNL     1      41.434 -13.076   4.728  1.00  0.00     0.067 C 
HETATM   10  C   UNL     1      40.792 -14.070   5.682  1.00  0.00     0.020 C 
HETATM   11  N   UNL     1      40.259 -14.894   6.474  1.00  0.00    -0.096 N 
HETATM   12  C   UNL     1      42.116 -13.546   3.650  1.00  0.00     0.139 C 
HETATM   13  O   UNL     1      42.528 -12.700   2.606  1.00  0.00    -0.277 OA
ENDROOT
BRANCH   8  14
HETATM   14  C   UNL     1      41.958 -10.935   5.969  1.00  0.00    -0.010 A 
HETATM   15  C   UNL     1      41.389 -10.090   6.932  1.00  0.00     0.076 A 
HETATM   16  C   UNL     1      42.178  -9.517   7.938  1.00  0.00     0.049 A 
HETATM   17  C   UNL     1      43.565  -9.736   7.982  1.00  0.00    -0.023 A 
HETATM   18  C   UNL     1      44.160 -10.564   7.008  1.00  0.00    -0.025 A 
HETATM   19  C   UNL     1      44.373  -9.160   8.974  1.00  0.00     0.012 A 
HETATM   20  C   UNL     1      43.352 -11.163   6.030  1.00  0.00     0.023 A 
HETATM   21  C   UNL     1      45.547 -10.781   7.040  1.00  0.00     0.012 A 
HETATM   22  C   UNL     1      46.338 -10.193   8.026  1.00  0.00     0.001 A 
HETATM   23  C   UNL     1      45.751  -9.387   8.996  1.00  0.00     0.001 A 
BRANCH  15  24
HETATM   24  O   UNL     1      40.030  -9.911   6.900  1.00  0.00    -0.355 OA
HETATM   25  C   UNL     1      39.451  -9.795   8.198  1.00  0.00     0.210 C 
ENDBRANCH  15  24
ENDBRANCH   8  14
BRANCH  12  26
HETATM   26  N   UNL     1      42.438 -14.866   3.420  1.00  0.00    -0.282 NA
HETATM   27  H   UNL     1      41.958 -15.553   3.995  1.00  0.00     0.126 HD
HETATM   28  H   UNL     1      42.427 -15.094   2.428  1.00  0.00     0.126 HD
ENDBRANCH  12  26
TORSDOF 3
ENDMDL
MODEL 10
REMARK VINA RESULT:      -6.8      4.792      8.159
REMARK  3 active torsions:
REMARK  status: ('A' for Active; 'I' for Inactive)
REMARK    1  A    between atoms: C_8  and  C_9 
REMARK    2  A    between atoms: C_10  and  O_11 
REMARK    3  A    between atoms: C_24  and  N_25 
ROOT
HETATM    1  C   UNL     1      43.091 -13.626   5.991  1.00  0.00     0.070 C 
HETATM    2  C   UNL     1      41.703 -13.129   6.106  1.00  0.00     0.035 A 
HETATM    3  N   UNL     1      40.626 -13.967   6.288  1.00  0.00    -0.280 N 
HETATM    4  H   UNL     1      40.627 -14.979   6.367  1.00  0.00     0.189 HD
HETATM    5  N   UNL     1      39.440 -13.326   6.343  1.00  0.00    -0.148 NA
HETATM    6  C   UNL     1      39.795 -12.056   6.201  1.00  0.00     0.199 A 
HETATM    7  C   UNL     1      41.173 -11.855   6.079  1.00  0.00     0.034 A 
HETATM    8  C   UNL     1      41.727 -10.481   5.918  1.00  0.00     0.107 C 
HETATM    9  C   UNL     1      40.609  -9.503   5.605  1.00  0.00     0.067 C 
HETATM   10  C   UNL     1      40.994  -8.210   4.904  1.00  0.00     0.020 C 
HETATM   11  N   UNL     1      41.314  -7.138   4.322  1.00  0.00    -0.096 N 
HETATM   12  C   UNL     1      39.291  -9.811   5.739  1.00  0.00     0.139 C 
HETATM   13  O   UNL     1      38.866 -11.083   6.155  1.00  0.00    -0.277 OA
ENDROOT
BRANCH   8  14
HETATM   14  C   UNL     1      42.434 -10.156   7.229  1.00  0.00    -0.010 A 
HETATM   15  C   UNL     1      43.819 -10.334   7.355  1.00  0.00     0.076 A 
HETATM   16  C   UNL     1      44.482  -9.979   8.537  1.00  0.00     0.049 A 
HETATM   17  C   UNL     1      43.772  -9.480   9.641  1.00  0.00    -0.023 A 
HETATM   18  C   UNL     1      42.376  -9.316   9.543  1.00  0.00    -0.025 A 
HETATM   19  C   UNL     1      44.418  -9.131  10.839  1.00  0.00     0.012 A 
HETATM   20  C   UNL     1      41.730  -9.638   8.339  1.00  0.00     0.023 A 
HETATM   21  C   UNL     1      41.657  -8.826  10.646  1.00  0.00     0.012 A 
HETATM   22  C   UNL     1      42.312  -8.494  11.832  1.00  0.00     0.001 A 
HETATM   23  C   UNL     1      43.692  -8.642  11.927  1.00  0.00     0.001 A 
BRANCH  15  24
HETATM   24  O   UNL     1      44.506 -10.789   6.259  1.00  0.00    -0.355 OA
HETATM   25  C   UNL     1      45.831 -11.216   6.567  1.00  0.00     0.210 C 
ENDBRANCH  15  24
ENDBRANCH   8  14
BRANCH  12  26
HETATM   26  N   UNL     1      38.240  -8.969   5.448  1.00  0.00    -0.282 NA
HETATM   27  H   UNL     1      38.456  -8.159   4.874  1.00  0.00     0.126 HD
HETATM   28  H   UNL     1      37.420  -9.480   5.128  1.00  0.00     0.126 HD
ENDBRANCH  12  26
TORSDOF 3
ENDMDL
