MODEL 1
REMARK VINA RESULT:      -8.4      0.000      0.000
REMARK  4 active torsions:
REMARK  status: ('A' for Active; 'I' for Inactive)
REMARK    1  A    between atoms: C_9  and  C_10 
REMARK    2  A    between atoms: C_18  and  C_19 
REMARK       I    between atoms: C_19  and  N_20 
REMARK    3  A    between atoms: N_20  and  C_21 
REMARK    4  A    between atoms: C_24  and  O_25 
ROOT
HETATM    1  C   UNL     1      44.421 -11.567   3.767  1.00  0.00     0.070 C 
HETATM    2  C   UNL     1      42.975 -11.657   3.345  1.00  0.00     0.037 C 
HETATM    3  N   UNL     1      42.223 -10.501   3.543  1.00  0.00    -0.192 N 
HETATM    4  C   UNL     1      40.875 -10.493   3.508  1.00  0.00     0.725 A 
HETATM    5  N   UNL     1      40.209 -11.605   3.075  1.00  0.00    -0.084 N 
HETATM    6  N   UNL     1      38.873 -11.450   3.177  1.00  0.00    -0.149 NA
HETATM    7  C   UNL     1      38.806 -10.201   3.653  1.00  0.00     0.275 A 
HETATM    8  N   UNL     1      40.011  -9.577   3.862  1.00  0.00    -0.054 NA
HETATM    9  C   UNL     1      40.872 -12.820   2.587  1.00  0.00     0.202 C 
HETATM   10  C   UNL     1      42.370 -12.779   2.878  1.00  0.00     0.062 C 
HETATM   11  H   UNL     1      42.686  -9.712   3.989  1.00  0.00     0.184 HD
ENDROOT
BRANCH  10  12
HETATM   12  C   UNL     1      43.036 -14.102   2.743  1.00  0.00     0.256 C 
HETATM   13  N   UNL     1      42.677 -15.017   3.707  1.00  0.00    -0.323 N 
HETATM   14  H   UNL     1      42.044 -14.704   4.430  1.00  0.00     0.169 HD
HETATM   15  O   UNL     1      43.863 -14.245   1.850  1.00  0.00    -0.267 OA
BRANCH  13  16
HETATM   16  C   UNL     1      43.086 -16.366   3.788  1.00  0.00     0.035 A 
HETATM   17  C   UNL     1      43.789 -16.905   4.866  1.00  0.00     0.032 A 
HETATM   18  C   UNL     1      44.172 -18.252   4.860  1.00  0.00     0.039 A 
HETATM   19  C   UNL     1      43.859 -19.082   3.785  1.00  0.00     0.068 A 
HETATM   20  C   UNL     1      43.167 -18.549   2.700  1.00  0.00     0.039 A 
HETATM   21  C   UNL     1      42.780 -17.200   2.705  1.00  0.00     0.032 A 
BRANCH  19  22
HETATM   22  O   UNL     1      44.292 -20.371   3.912  1.00  0.00    -0.356 OA
HETATM   23  C   UNL     1      44.268 -20.931   5.218  1.00  0.00     0.210 C 
ENDBRANCH  19  22
ENDBRANCH  13  16
ENDBRANCH  10  12
BRANCH   9  24
HETATM   24  C   UNL     1      40.586 -13.021   1.097  1.00  0.00    -0.026 A 
HETATM   25  C   UNL     1      40.910 -12.000   0.185  1.00  0.00     0.035 A 
HETATM   26  C   UNL     1      40.667 -12.156  -1.185  1.00  0.00     0.056 A 
HETATM   27 CL   UNL     1      41.103 -10.854  -2.234  1.00  0.00    -0.083 Cl
HETATM   28  C   UNL     1      40.088 -13.337  -1.661  1.00  0.00     0.055 A 
HETATM   29 CL   UNL     1      39.766 -13.607  -3.336  1.00  0.00    -0.083 Cl
HETATM   30  C   UNL     1      39.747 -14.351  -0.762  1.00  0.00     0.026 A 
HETATM   31  C   UNL     1      39.986 -14.193   0.606  1.00  0.00     0.011 A 
ENDBRANCH   9  24
TORSDOF 4
ENDMDL
MODEL 2
REMARK VINA RESULT:      -8.3      3.087      4.552
REMARK  4 active torsions:
REMARK  status: ('A' for Active; 'I' for Inactive)
REMARK    1  A    between atoms: C_9  and  C_10 
REMARK    2  A    between atoms: C_18  and  C_19 
REMARK       I    between atoms: C_19  and  N_20 
REMARK    3  A    between atoms: N_20  and  C_21 
REMARK    4  A    between atoms: C_24  and  O_25 
ROOT
HETATM    1  C   UNL     1      39.951 -15.268   0.766  1.00  0.00     0.070 C 
HETATM    2  C   UNL     1      40.523 -13.897   1.031  1.00  0.00     0.037 C 
HETATM    3  N   UNL     1      39.763 -12.831   0.555  1.00  0.00    -0.192 N 
HETATM    4  C   UNL     1      40.253 -11.581   0.437  1.00  0.00     0.725 A 
HETATM    5  N   UNL     1      41.474 -11.286   0.977  1.00  0.00    -0.084 N 
HETATM    6  N   UNL     1      41.842 -10.018   0.701  1.00  0.00    -0.149 NA
HETATM    7  C   UNL     1      40.773  -9.597   0.013  1.00  0.00     0.275 A 
HETATM    8  N   UNL     1      39.775 -10.522  -0.163  1.00  0.00    -0.054 NA
HETATM    9  C   UNL     1      42.288 -12.242   1.737  1.00  0.00     0.202 C 
HETATM   10  C   UNL     1      41.725 -13.657   1.613  1.00  0.00     0.062 C 
HETATM   11  H   UNL     1      38.917 -13.055   0.036  1.00  0.00     0.184 HD
ENDROOT
BRANCH  10  12
HETATM   12  C   UNL     1      42.679 -14.713   2.047  1.00  0.00     0.256 C 
HETATM   13  N   UNL     1      42.164 -15.598   2.966  1.00  0.00    -0.323 N 
HETATM   14  H   UNL     1      41.223 -15.430   3.294  1.00  0.00     0.169 HD
HETATM   15  O   UNL     1      43.823 -14.675   1.607  1.00  0.00    -0.267 OA
BRANCH  13  16
HETATM   16  C   UNL     1      42.807 -16.737   3.497  1.00  0.00     0.035 A 
HETATM   17  C   UNL     1      43.267 -16.833   4.811  1.00  0.00     0.032 A 
HETATM   18  C   UNL     1      43.909 -17.996   5.254  1.00  0.00     0.039 A 
HETATM   19  C   UNL     1      44.101 -19.079   4.398  1.00  0.00     0.068 A 
HETATM   20  C   UNL     1      43.655 -18.987   3.082  1.00  0.00     0.039 A 
HETATM   21  C   UNL     1      43.008 -17.824   2.637  1.00  0.00     0.032 A 
BRANCH  19  22
HETATM   22  O   UNL     1      44.741 -20.148   4.961  1.00  0.00    -0.356 OA
HETATM   23  C   UNL     1      43.947 -21.291   5.250  1.00  0.00     0.210 C 
ENDBRANCH  19  22
ENDBRANCH  13  16
ENDBRANCH  10  12
BRANCH   9  24
HETATM   24  C   UNL     1      42.403 -11.802   3.198  1.00  0.00    -0.026 A 
HETATM   25  C   UNL     1      43.670 -11.737   3.805  1.00  0.00     0.035 A 
HETATM   26  C   UNL     1      43.809 -11.332   5.139  1.00  0.00     0.056 A 
HETATM   27 CL   UNL     1      45.403 -11.274   5.801  1.00  0.00    -0.083 Cl
HETATM   28  C   UNL     1      42.676 -10.991   5.885  1.00  0.00     0.055 A 
HETATM   29 CL   UNL     1      42.767 -10.474   7.531  1.00  0.00    -0.083 Cl
HETATM   30  C   UNL     1      41.411 -11.068   5.297  1.00  0.00     0.026 A 
HETATM   31  C   UNL     1      41.273 -11.477   3.968  1.00  0.00     0.011 A 
ENDBRANCH   9  24
TORSDOF 4
ENDMDL
MODEL 3
REMARK VINA RESULT:      -8.1      3.674      7.298
REMARK  4 active torsions:
REMARK  status: ('A' for Active; 'I' for Inactive)
REMARK    1  A    between atoms: C_9  and  C_10 
REMARK    2  A    between atoms: C_18  and  C_19 
REMARK       I    between atoms: C_19  and  N_20 
REMARK    3  A    between atoms: N_20  and  C_21 
REMARK    4  A    between atoms: C_24  and  O_25 
ROOT
HETATM    1  C   UNL     1      43.199 -16.875   1.895  1.00  0.00     0.070 C 
HETATM    2  C   UNL     1      42.841 -16.312   3.248  1.00  0.00     0.037 C 
HETATM    3  N   UNL     1      43.737 -16.605   4.273  1.00  0.00    -0.192 N 
HETATM    4  C   UNL     1      43.432 -16.447   5.577  1.00  0.00     0.725 A 
HETATM    5  N   UNL     1      42.280 -15.796   5.922  1.00  0.00    -0.084 N 
HETATM    6  N   UNL     1      42.096 -15.794   7.258  1.00  0.00    -0.149 NA
HETATM    7  C   UNL     1      43.199 -16.439   7.658  1.00  0.00     0.275 A 
HETATM    8  N   UNL     1      44.047 -16.848   6.659  1.00  0.00    -0.054 NA
HETATM    9  C   UNL     1      41.353 -15.201   4.952  1.00  0.00     0.202 C 
HETATM   10  C   UNL     1      41.700 -15.633   3.529  1.00  0.00     0.062 C 
HETATM   11  H   UNL     1      44.530 -17.201   4.046  1.00  0.00     0.184 HD
ENDROOT
BRANCH  10  12
HETATM   12  C   UNL     1      40.611 -15.369   2.549  1.00  0.00     0.256 C 
HETATM   13  N   UNL     1      40.883 -14.353   1.662  1.00  0.00    -0.323 N 
HETATM   14  H   UNL     1      41.755 -13.856   1.779  1.00  0.00     0.169 HD
HETATM   15  O   UNL     1      39.576 -16.018   2.646  1.00  0.00    -0.267 OA
BRANCH  13  16
HETATM   16  C   UNL     1      40.075 -13.934   0.582  1.00  0.00     0.035 A 
HETATM   17  C   UNL     1      39.879 -14.679  -0.581  1.00  0.00     0.032 A 
HETATM   18  C   UNL     1      39.074 -14.183  -1.614  1.00  0.00     0.039 A 
HETATM   19  C   UNL     1      38.452 -12.940  -1.504  1.00  0.00     0.068 A 
HETATM   20  C   UNL     1      38.652 -12.185  -0.351  1.00  0.00     0.039 A 
HETATM   21  C   UNL     1      39.456 -12.681   0.686  1.00  0.00     0.032 A 
BRANCH  19  22
HETATM   22  O   UNL     1      37.696 -12.580  -2.584  1.00  0.00    -0.356 OA
HETATM   23  C   UNL     1      37.198 -11.248  -2.604  1.00  0.00     0.210 C 
ENDBRANCH  19  22
ENDBRANCH  13  16
ENDBRANCH  10  12
BRANCH   9  24
HETATM   24  C   UNL     1      41.337 -13.677   5.096  1.00  0.00    -0.026 A 
HETATM   25  C   UNL     1      40.190 -13.041   5.605  1.00  0.00     0.035 A 
HETATM   26  C   UNL     1      40.146 -11.649   5.755  1.00  0.00     0.056 A 
HETATM   27 CL   UNL     1      38.701 -10.953   6.395  1.00  0.00    -0.083 Cl
HETATM   28  C   UNL     1      41.251 -10.874   5.389  1.00  0.00     0.055 A 
HETATM   29 CL   UNL     1      41.277  -9.154   5.553  1.00  0.00    -0.083 Cl
HETATM   30  C   UNL     1      42.389 -11.493   4.867  1.00  0.00     0.026 A 
HETATM   31  C   UNL     1      42.430 -12.882   4.714  1.00  0.00     0.011 A 
ENDBRANCH   9  24
TORSDOF 4
ENDMDL
MODEL 4
REMARK VINA RESULT:      -8.1      3.973      6.883
REMARK  4 active torsions:
REMARK  status: ('A' for Active; 'I' for Inactive)
REMARK    1  A    between atoms: C_9  and  C_10 
REMARK    2  A    between atoms: C_18  and  C_19 
REMARK       I    between atoms: C_19  and  N_20 
REMARK    3  A    between atoms: N_20  and  C_21 
REMARK    4  A    between atoms: C_24  and  O_25 
ROOT
HETATM    1  C   UNL     1      39.734 -10.552   6.311  1.00  0.00     0.070 C 
HETATM    2  C   UNL     1      41.100 -11.192   6.294  1.00  0.00     0.037 C 
HETATM    3  N   UNL     1      42.012 -10.675   7.211  1.00  0.00    -0.192 N 
HETATM    4  C   UNL     1      43.338 -10.911   7.134  1.00  0.00     0.725 A 
HETATM    5  N   UNL     1      43.802 -11.843   6.248  1.00  0.00    -0.084 N 
HETATM    6  N   UNL     1      45.150 -11.895   6.249  1.00  0.00    -0.149 NA
HETATM    7  C   UNL     1      45.430 -10.984   7.188  1.00  0.00     0.275 A 
HETATM    8  N   UNL     1      44.347 -10.364   7.761  1.00  0.00    -0.054 NA
HETATM    9  C   UNL     1      42.938 -12.659   5.387  1.00  0.00     0.202 C 
HETATM   10  C   UNL     1      41.499 -12.148   5.417  1.00  0.00     0.062 C 
HETATM   11  H   UNL     1      41.708  -9.891   7.783  1.00  0.00     0.184 HD
ENDROOT
BRANCH  10  12
HETATM   12  C   UNL     1      40.657 -12.687   4.315  1.00  0.00     0.256 C 
HETATM   13  N   UNL     1      41.216 -12.562   3.064  1.00  0.00    -0.323 N 
HETATM   14  H   UNL     1      42.105 -12.087   2.998  1.00  0.00     0.169 HD
HETATM   15  O   UNL     1      39.549 -13.130   4.597  1.00  0.00    -0.267 OA
BRANCH  13  16
HETATM   16  C   UNL     1      40.685 -13.046   1.848  1.00  0.00     0.035 A 
HETATM   17  C   UNL     1      40.038 -12.247   0.905  1.00  0.00     0.032 A 
HETATM   18  C   UNL     1      39.526 -12.810  -0.270  1.00  0.00     0.039 A 
HETATM   19  C   UNL     1      39.652 -14.175  -0.525  1.00  0.00     0.068 A 
HETATM   20  C   UNL     1      40.287 -14.981   0.416  1.00  0.00     0.039 A 
HETATM   21  C   UNL     1      40.803 -14.419   1.593  1.00  0.00     0.032 A 
BRANCH  19  22
HETATM   22  O   UNL     1      39.109 -14.589  -1.708  1.00  0.00    -0.356 OA
HETATM   23  C   UNL     1      38.234 -13.681  -2.366  1.00  0.00     0.210 C 
ENDBRANCH  19  22
ENDBRANCH  13  16
ENDBRANCH  10  12
BRANCH   9  24
HETATM   24  C   UNL     1      43.027 -14.133   5.788  1.00  0.00    -0.026 A 
HETATM   25  C   UNL     1      43.237 -15.110   4.798  1.00  0.00     0.035 A 
HETATM   26  C   UNL     1      43.328 -16.467   5.134  1.00  0.00     0.056 A 
HETATM   27 CL   UNL     1      43.595 -17.597   3.854  1.00  0.00    -0.083 Cl
HETATM   28  C   UNL     1      43.204 -16.865   6.468  1.00  0.00     0.055 A 
HETATM   29 CL   UNL     1      43.315 -18.517   6.962  1.00  0.00    -0.083 Cl
HETATM   30  C   UNL     1      42.979 -15.905   7.458  1.00  0.00     0.026 A 
HETATM   31  C   UNL     1      42.883 -14.552   7.122  1.00  0.00     0.011 A 
ENDBRANCH   9  24
TORSDOF 4
ENDMDL
MODEL 5
REMARK VINA RESULT:      -8.1      3.129      4.665
REMARK  4 active torsions:
REMARK  status: ('A' for Active; 'I' for Inactive)
REMARK    1  A    between atoms: C_9  and  C_10 
REMARK    2  A    between atoms: C_18  and  C_19 
REMARK       I    between atoms: C_19  and  N_20 
REMARK    3  A    between atoms: N_20  and  C_21 
REMARK    4  A    between atoms: C_24  and  O_25 
ROOT
HETATM    1  C   UNL     1      39.445 -14.825  -1.427  1.00  0.00     0.070 C 
HETATM    2  C   UNL     1      39.992 -13.574  -0.782  1.00  0.00     0.037 C 
HETATM    3  N   UNL     1      39.892 -12.415  -1.548  1.00  0.00    -0.192 N 
HETATM    4  C   UNL     1      40.584 -11.293  -1.266  1.00  0.00     0.725 A 
HETATM    5  N   UNL     1      41.264 -11.204  -0.083  1.00  0.00    -0.084 N 
HETATM    6  N   UNL     1      41.958 -10.050   0.001  1.00  0.00    -0.149 NA
HETATM    7  C   UNL     1      41.622  -9.477  -1.161  1.00  0.00     0.275 A 
HETATM    8  N   UNL     1      40.776 -10.202  -1.962  1.00  0.00    -0.054 NA
HETATM    9  C   UNL     1      41.256 -12.248   0.948  1.00  0.00     0.202 C 
HETATM   10  C   UNL     1      40.622 -13.533   0.419  1.00  0.00     0.062 C 
HETATM   11  H   UNL     1      39.505 -12.505  -2.484  1.00  0.00     0.184 HD
ENDROOT
BRANCH  10  12
HETATM   12  C   UNL     1      40.900 -14.722   1.269  1.00  0.00     0.256 C 
HETATM   13  N   UNL     1      42.237 -14.945   1.511  1.00  0.00    -0.323 N 
HETATM   14  H   UNL     1      42.898 -14.325   1.065  1.00  0.00     0.169 HD
HETATM   15  O   UNL     1      39.952 -15.414   1.622  1.00  0.00    -0.267 OA
BRANCH  13  16
HETATM   16  C   UNL     1      42.792 -15.946   2.338  1.00  0.00     0.035 A 
HETATM   17  C   UNL     1      43.053 -17.250   1.916  1.00  0.00     0.032 A 
HETATM   18  C   UNL     1      43.591 -18.188   2.806  1.00  0.00     0.039 A 
HETATM   19  C   UNL     1      43.879 -17.841   4.125  1.00  0.00     0.068 A 
HETATM   20  C   UNL     1      43.611 -16.545   4.556  1.00  0.00     0.039 A 
HETATM   21  C   UNL     1      43.074 -15.603   3.666  1.00  0.00     0.032 A 
BRANCH  19  22
HETATM   22  O   UNL     1      44.401 -18.853   4.882  1.00  0.00    -0.356 OA
HETATM   23  C   UNL     1      44.104 -20.181   4.471  1.00  0.00     0.210 C 
ENDBRANCH  19  22
ENDBRANCH  13  16
ENDBRANCH  10  12
BRANCH   9  24
HETATM   24  C   UNL     1      40.552 -11.744   2.211  1.00  0.00    -0.026 A 
HETATM   25  C   UNL     1      41.216 -11.812   3.449  1.00  0.00     0.035 A 
HETATM   26  C   UNL     1      40.601 -11.354   4.621  1.00  0.00     0.056 A 
HETATM   27 CL   UNL     1      41.494 -11.468   6.096  1.00  0.00    -0.083 Cl
HETATM   28  C   UNL     1      39.307 -10.827   4.569  1.00  0.00     0.055 A 
HETATM   29 CL   UNL     1      38.486 -10.234   5.969  1.00  0.00    -0.083 Cl
HETATM   30  C   UNL     1      38.631 -10.771   3.348  1.00  0.00     0.026 A 
HETATM   31  C   UNL     1      39.244 -11.232   2.179  1.00  0.00     0.011 A 
ENDBRANCH   9  24
TORSDOF 4
ENDMDL
MODEL 6
REMARK VINA RESULT:      -8.0      3.698      6.559
REMARK  4 active torsions:
REMARK  status: ('A' for Active; 'I' for Inactive)
REMARK    1  A    between atoms: C_9  and  C_10 
REMARK    2  A    between atoms: C_18  and  C_19 
REMARK       I    between atoms: C_19  and  N_20 
REMARK    3  A    between atoms: N_20  and  C_21 
REMARK    4  A    between atoms: C_24  and  O_25 
ROOT
HETATM    1  C   UNL     1      39.524 -10.073   4.434  1.00  0.00     0.070 C 
HETATM    2  C   UNL     1      40.896 -10.698   4.497  1.00  0.00     0.037 C 
HETATM    3  N   UNL     1      41.536 -10.612   5.731  1.00  0.00    -0.192 N 
HETATM    4  C   UNL     1      42.855 -10.841   5.887  1.00  0.00     0.725 A 
HETATM    5  N   UNL     1      43.572 -11.365   4.847  1.00  0.00    -0.084 N 
HETATM    6  N   UNL     1      44.883 -11.457   5.149  1.00  0.00    -0.149 NA
HETATM    7  C   UNL     1      44.879 -10.997   6.406  1.00  0.00     0.275 A 
HETATM    8  N   UNL     1      43.655 -10.617   6.898  1.00  0.00    -0.054 NA
HETATM    9  C   UNL     1      42.985 -11.751   3.558  1.00  0.00     0.202 C 
HETATM   10  C   UNL     1      41.548 -11.247   3.440  1.00  0.00     0.062 C 
HETATM   11  H   UNL     1      41.057 -10.105   6.473  1.00  0.00     0.184 HD
ENDROOT
BRANCH  10  12
HETATM   12  C   UNL     1      41.021 -11.283   2.050  1.00  0.00     0.256 C 
HETATM   13  N   UNL     1      40.298 -12.415   1.748  1.00  0.00    -0.323 N 
HETATM   14  H   UNL     1      40.229 -13.125   2.463  1.00  0.00     0.169 HD
HETATM   15  O   UNL     1      41.312 -10.361   1.297  1.00  0.00    -0.267 OA
BRANCH  13  16
HETATM   16  C   UNL     1      39.619 -12.689   0.541  1.00  0.00     0.035 A 
HETATM   17  C   UNL     1      38.560 -11.924   0.050  1.00  0.00     0.032 A 
HETATM   18  C   UNL     1      37.930 -12.275  -1.150  1.00  0.00     0.039 A 
HETATM   19  C   UNL     1      38.344 -13.388  -1.880  1.00  0.00     0.068 A 
HETATM   20  C   UNL     1      39.393 -14.163  -1.390  1.00  0.00     0.039 A 
HETATM   21  C   UNL     1      40.028 -13.812  -0.190  1.00  0.00     0.032 A 
BRANCH  19  22
HETATM   22  O   UNL     1      37.642 -13.613  -3.030  1.00  0.00    -0.356 OA
HETATM   23  C   UNL     1      37.999 -14.764  -3.785  1.00  0.00     0.210 C 
ENDBRANCH  19  22
ENDBRANCH  13  16
ENDBRANCH  10  12
BRANCH   9  24
HETATM   24  C   UNL     1      43.074 -13.266   3.365  1.00  0.00    -0.026 A 
HETATM   25  C   UNL     1      42.802 -14.121   4.448  1.00  0.00     0.035 A 
HETATM   26  C   UNL     1      42.870 -15.513   4.301  1.00  0.00     0.056 A 
HETATM   27 CL   UNL     1      42.512 -16.486   5.683  1.00  0.00    -0.083 Cl
HETATM   28  C   UNL     1      43.218 -16.067   3.066  1.00  0.00     0.055 A 
HETATM   29 CL   UNL     1      43.313 -17.772   2.804  1.00  0.00    -0.083 Cl
HETATM   30  C   UNL     1      43.506 -15.227   1.987  1.00  0.00     0.026 A 
HETATM   31  C   UNL     1      43.443 -13.839   2.136  1.00  0.00     0.011 A 
ENDBRANCH   9  24
TORSDOF 4
ENDMDL
MODEL 7
REMARK VINA RESULT:      -7.6      4.078      6.384
REMARK  4 active torsions:
REMARK  status: ('A' for Active; 'I' for Inactive)
REMARK    1  A    between atoms: C_9  and  C_10 
REMARK    2  A    between atoms: C_18  and  C_19 
REMARK       I    between atoms: C_19  and  N_20 
REMARK    3  A    between atoms: N_20  and  C_21 
REMARK    4  A    between atoms: C_24  and  O_25 
ROOT
HETATM    1  C   UNL     1      41.748 -10.351   1.068  1.00  0.00     0.070 C 
HETATM    2  C   UNL     1      41.312 -11.791   0.946  1.00  0.00     0.037 C 
HETATM    3  N   UNL     1      41.098 -12.242  -0.354  1.00  0.00    -0.192 N 
HETATM    4  C   UNL     1      40.430 -13.380  -0.631  1.00  0.00     0.725 A 
HETATM    5  N   UNL     1      40.112 -14.235   0.387  1.00  0.00    -0.084 N 
HETATM    6  N   UNL     1      39.382 -15.279  -0.057  1.00  0.00    -0.149 NA
HETATM    7  C   UNL     1      39.326 -15.001  -1.365  1.00  0.00     0.275 A 
HETATM    8  N   UNL     1      39.962 -13.851  -1.759  1.00  0.00    -0.054 NA
HETATM    9  C   UNL     1      40.496 -14.022   1.787  1.00  0.00     0.202 C 
HETATM   10  C   UNL     1      41.051 -12.614   1.993  1.00  0.00     0.062 C 
HETATM   11  H   UNL     1      41.207 -11.567  -1.108  1.00  0.00     0.184 HD
ENDROOT
BRANCH  10  12
HETATM   12  C   UNL     1      41.121 -12.209   3.423  1.00  0.00     0.256 C 
HETATM   13  N   UNL     1      42.400 -12.127   3.925  1.00  0.00    -0.323 N 
HETATM   14  H   UNL     1      43.158 -12.387   3.309  1.00  0.00     0.169 HD
HETATM   15  O   UNL     1      40.070 -12.044   4.030  1.00  0.00    -0.267 OA
BRANCH  13  16
HETATM   16  C   UNL     1      42.777 -11.698   5.217  1.00  0.00     0.035 A 
HETATM   17  C   UNL     1      42.431 -10.460   5.760  1.00  0.00     0.032 A 
HETATM   18  C   UNL     1      42.860 -10.106   7.045  1.00  0.00     0.039 A 
HETATM   19  C   UNL     1      43.636 -10.977   7.808  1.00  0.00     0.068 A 
HETATM   20  C   UNL     1      43.994 -12.210   7.269  1.00  0.00     0.039 A 
HETATM   21  C   UNL     1      43.563 -12.568   5.982  1.00  0.00     0.032 A 
BRANCH  19  22
HETATM   22  O   UNL     1      43.982 -10.504   9.042  1.00  0.00    -0.356 OA
HETATM   23  C   UNL     1      45.342 -10.136   9.230  1.00  0.00     0.210 C 
ENDBRANCH  19  22
ENDBRANCH  13  16
ENDBRANCH  10  12
BRANCH   9  24
HETATM   24  C   UNL     1      41.490 -15.096   2.236  1.00  0.00    -0.026 A 
HETATM   25  C   UNL     1      41.433 -15.586   3.553  1.00  0.00     0.035 A 
HETATM   26  C   UNL     1      42.325 -16.573   3.993  1.00  0.00     0.056 A 
HETATM   27 CL   UNL     1      42.177 -17.123   5.624  1.00  0.00    -0.083 Cl
HETATM   28  C   UNL     1      43.291 -17.079   3.118  1.00  0.00     0.055 A 
HETATM   29 CL   UNL     1      44.419 -18.302   3.583  1.00  0.00    -0.083 Cl
HETATM   30  C   UNL     1      43.368 -16.587   1.813  1.00  0.00     0.026 A 
HETATM   31  C   UNL     1      42.481 -15.599   1.376  1.00  0.00     0.011 A 
ENDBRANCH   9  24
TORSDOF 4
ENDMDL
MODEL 8
REMARK VINA RESULT:      -7.5     15.690     17.656
REMARK  4 active torsions:
REMARK  status: ('A' for Active; 'I' for Inactive)
REMARK    1  A    between atoms: C_9  and  C_10 
REMARK    2  A    between atoms: C_18  and  C_19 
REMARK       I    between atoms: C_19  and  N_20 
REMARK    3  A    between atoms: N_20  and  C_21 
REMARK    4  A    between atoms: C_24  and  O_25 
ROOT
HETATM    1  C   UNL     1      47.372 -30.093   3.521  1.00  0.00     0.070 C 
HETATM    2  C   UNL     1      46.169 -30.129   2.611  1.00  0.00     0.037 C 
HETATM    3  N   UNL     1      44.991 -29.628   3.159  1.00  0.00    -0.192 N 
HETATM    4  C   UNL     1      43.779 -29.854   2.614  1.00  0.00     0.725 A 
HETATM    5  N   UNL     1      43.697 -30.427   1.375  1.00  0.00    -0.084 N 
HETATM    6  N   UNL     1      42.415 -30.648   1.018  1.00  0.00    -0.149 NA
HETATM    7  C   UNL     1      41.774 -30.152   2.083  1.00  0.00     0.275 A 
HETATM    8  N   UNL     1      42.573 -29.648   3.079  1.00  0.00    -0.054 NA
HETATM    9  C   UNL     1      44.863 -30.779   0.556  1.00  0.00     0.202 C 
HETATM   10  C   UNL     1      46.152 -30.673   1.367  1.00  0.00     0.062 C 
HETATM   11  H   UNL     1      45.019 -29.322   4.129  1.00  0.00     0.184 HD
ENDROOT
BRANCH  10  12
HETATM   12  C   UNL     1      47.312 -31.348   0.726  1.00  0.00     0.256 C 
HETATM   13  N   UNL     1      48.298 -30.490   0.293  1.00  0.00    -0.323 N 
HETATM   14  H   UNL     1      48.132 -29.500   0.403  1.00  0.00     0.169 HD
HETATM   15  O   UNL     1      47.270 -32.565   0.589  1.00  0.00    -0.267 OA
BRANCH  13  16
HETATM   16  C   UNL     1      49.538 -30.846  -0.280  1.00  0.00     0.035 A 
HETATM   17  C   UNL     1      50.524 -31.577   0.384  1.00  0.00     0.032 A 
HETATM   18  C   UNL     1      51.735 -31.875  -0.252  1.00  0.00     0.039 A 
HETATM   19  C   UNL     1      51.982 -31.452  -1.558  1.00  0.00     0.068 A 
HETATM   20  C   UNL     1      51.008 -30.712  -2.223  1.00  0.00     0.039 A 
HETATM   21  C   UNL     1      49.793 -30.415  -1.589  1.00  0.00     0.032 A 
BRANCH  19  22
HETATM   22  O   UNL     1      53.203 -31.812  -2.055  1.00  0.00    -0.356 OA
HETATM   23  C   UNL     1      53.936 -32.782  -1.318  1.00  0.00     0.210 C 
ENDBRANCH  19  22
ENDBRANCH  13  16
ENDBRANCH  10  12
BRANCH   9  24
HETATM   24  C   UNL     1      44.910 -29.912  -0.704  1.00  0.00    -0.026 A 
HETATM   25  C   UNL     1      44.510 -30.457  -1.937  1.00  0.00     0.035 A 
HETATM   26  C   UNL     1      44.536 -29.687  -3.107  1.00  0.00     0.056 A 
HETATM   27 CL   UNL     1      44.019 -30.437  -4.576  1.00  0.00    -0.083 Cl
HETATM   28  C   UNL     1      44.971 -28.360  -3.058  1.00  0.00     0.055 A 
HETATM   29 CL   UNL     1      45.023 -27.345  -4.455  1.00  0.00    -0.083 Cl
HETATM   30  C   UNL     1      45.387 -27.812  -1.842  1.00  0.00     0.026 A 
HETATM   31  C   UNL     1      45.364 -28.582  -0.676  1.00  0.00     0.011 A 
ENDBRANCH   9  24
TORSDOF 4
ENDMDL
MODEL 9
REMARK VINA RESULT:      -7.5      3.322      5.675
REMARK  4 active torsions:
REMARK  status: ('A' for Active; 'I' for Inactive)
REMARK    1  A    between atoms: C_9  and  C_10 
REMARK    2  A    between atoms: C_18  and  C_19 
REMARK       I    between atoms: C_19  and  N_20 
REMARK    3  A    between atoms: N_20  and  C_21 
REMARK    4  A    between atoms: C_24  and  O_25 
ROOT
HETATM    1  C   UNL     1      40.908 -16.179   2.452  1.00  0.00     0.070 C 
HETATM    2  C   UNL     1      40.631 -15.037   1.505  1.00  0.00     0.037 C 
HETATM    3  N   UNL     1      39.776 -15.333   0.447  1.00  0.00    -0.192 N 
HETATM    4  C   UNL     1      39.659 -14.543  -0.639  1.00  0.00     0.725 A 
HETATM    5  N   UNL     1      40.244 -13.307  -0.636  1.00  0.00    -0.084 N 
HETATM    6  N   UNL     1      40.092 -12.687  -1.824  1.00  0.00    -0.149 NA
HETATM    7  C   UNL     1      39.374 -13.600  -2.488  1.00  0.00     0.275 A 
HETATM    8  N   UNL     1      39.080 -14.748  -1.795  1.00  0.00    -0.054 NA
HETATM    9  C   UNL     1      40.968 -12.746   0.510  1.00  0.00     0.202 C 
HETATM   10  C   UNL     1      41.209 -13.811   1.578  1.00  0.00     0.062 C 
HETATM   11  H   UNL     1      39.442 -16.291   0.368  1.00  0.00     0.184 HD
ENDROOT
BRANCH  10  12
HETATM   12  C   UNL     1      42.230 -13.418   2.586  1.00  0.00     0.256 C 
HETATM   13  N   UNL     1      41.707 -12.909   3.753  1.00  0.00    -0.323 N 
HETATM   14  H   UNL     1      40.703 -12.806   3.805  1.00  0.00     0.169 HD
HETATM   15  O   UNL     1      43.413 -13.522   2.282  1.00  0.00    -0.267 OA
BRANCH  13  16
HETATM   16  C   UNL     1      42.426 -12.526   4.907  1.00  0.00     0.035 A 
HETATM   17  C   UNL     1      42.671 -11.202   5.270  1.00  0.00     0.032 A 
HETATM   18  C   UNL     1      43.408 -10.908   6.424  1.00  0.00     0.039 A 
HETATM   19  C   UNL     1      43.908 -11.926   7.234  1.00  0.00     0.068 A 
HETATM   20  C   UNL     1      43.677 -13.251   6.872  1.00  0.00     0.039 A 
HETATM   21  C   UNL     1      42.937 -13.548   5.718  1.00  0.00     0.032 A 
BRANCH  19  22
HETATM   22  O   UNL     1      44.607 -11.498   8.327  1.00  0.00    -0.356 OA
HETATM   23  C   UNL     1      45.752 -10.691   8.082  1.00  0.00     0.210 C 
ENDBRANCH  19  22
ENDBRANCH  13  16
ENDBRANCH  10  12
BRANCH   9  24
HETATM   24  C   UNL     1      40.220 -11.535   1.072  1.00  0.00    -0.026 A 
HETATM   25  C   UNL     1      40.743 -10.244   0.876  1.00  0.00     0.035 A 
HETATM   26  C   UNL     1      40.078  -9.115   1.373  1.00  0.00     0.056 A 
HETATM   27 CL   UNL     1      40.789  -7.568   1.078  1.00  0.00    -0.083 Cl
HETATM   28  C   UNL     1      38.882  -9.266   2.080  1.00  0.00     0.055 A 
HETATM   29 CL   UNL     1      38.000  -7.923   2.715  1.00  0.00    -0.083 Cl
HETATM   30  C   UNL     1      38.362 -10.545   2.296  1.00  0.00     0.026 A 
HETATM   31  C   UNL     1      39.027 -11.671   1.803  1.00  0.00     0.011 A 
ENDBRANCH   9  24
TORSDOF 4
ENDMDL
MODEL 10
REMARK VINA RESULT:      -7.2      3.928      6.737
REMARK  4 active torsions:
REMARK  status: ('A' for Active; 'I' for Inactive)
REMARK    1  A    between atoms: C_9  and  C_10 
REMARK    2  A    between atoms: C_18  and  C_19 
REMARK       I    between atoms: C_19  and  N_20 
REMARK    3  A    between atoms: N_20  and  C_21 
REMARK    4  A    between atoms: C_24  and  O_25 
ROOT
HETATM    1  C   UNL     1      41.619  -9.660  -0.442  1.00  0.00     0.070 C 
HETATM    2  C   UNL     1      41.028 -11.048  -0.496  1.00  0.00     0.037 C 
HETATM    3  N   UNL     1      41.157 -11.704  -1.718  1.00  0.00    -0.192 N 
HETATM    4  C   UNL     1      40.441 -12.802  -2.036  1.00  0.00     0.725 A 
HETATM    5  N   UNL     1      39.700 -13.422  -1.069  1.00  0.00    -0.084 N 
HETATM    6  N   UNL     1      38.992 -14.452  -1.575  1.00  0.00    -0.149 NA
HETATM    7  C   UNL     1      39.382 -14.413  -2.855  1.00  0.00     0.275 A 
HETATM    8  N   UNL     1      40.276 -13.422  -3.176  1.00  0.00    -0.054 NA
HETATM    9  C   UNL     1      39.663 -12.997   0.336  1.00  0.00     0.202 C 
HETATM   10  C   UNL     1      40.335 -11.637   0.512  1.00  0.00     0.062 C 
HETATM   11  H   UNL     1      41.594 -11.192  -2.481  1.00  0.00     0.184 HD
ENDROOT
BRANCH  10  12
HETATM   12  C   UNL     1      40.024 -10.987   1.814  1.00  0.00     0.256 C 
HETATM   13  N   UNL     1      40.904 -11.298   2.825  1.00  0.00    -0.323 N 
HETATM   14  H   UNL     1      41.639 -11.959   2.614  1.00  0.00     0.169 HD
HETATM   15  O   UNL     1      39.013 -10.299   1.890  1.00  0.00    -0.267 OA
BRANCH  13  16
HETATM   16  C   UNL     1      40.904 -10.775   4.137  1.00  0.00     0.035 A 
HETATM   17  C   UNL     1      41.669  -9.680   4.542  1.00  0.00     0.032 A 
HETATM   18  C   UNL     1      41.623  -9.235   5.868  1.00  0.00     0.039 A 
HETATM   19  C   UNL     1      40.816  -9.870   6.810  1.00  0.00     0.068 A 
HETATM   20  C   UNL     1      40.058 -10.971   6.417  1.00  0.00     0.039 A 
HETATM   21  C   UNL     1      40.100 -11.417   5.088  1.00  0.00     0.032 A 
BRANCH  19  22
HETATM   22  O   UNL     1      40.867  -9.331   8.065  1.00  0.00    -0.356 OA
HETATM   23  C   UNL     1      39.647  -9.280   8.792  1.00  0.00     0.210 C 
ENDBRANCH  19  22
ENDBRANCH  13  16
ENDBRANCH  10  12
BRANCH   9  24
HETATM   24  C   UNL     1      40.295 -14.064   1.232  1.00  0.00    -0.026 A 
HETATM   25  C   UNL     1      41.629 -14.453   1.012  1.00  0.00     0.035 A 
HETATM   26  C   UNL     1      42.238 -15.423   1.819  1.00  0.00     0.056 A 
HETATM   27 CL   UNL     1      43.882 -15.833   1.483  1.00  0.00    -0.083 Cl
HETATM   28  C   UNL     1      41.514 -16.022   2.855  1.00  0.00     0.055 A 
HETATM   29 CL   UNL     1      42.198 -17.218   3.897  1.00  0.00    -0.083 Cl
HETATM   30  C   UNL     1      40.184 -15.656   3.071  1.00  0.00     0.026 A 
HETATM   31  C   UNL     1      39.576 -14.691   2.263  1.00  0.00     0.011 A 
ENDBRANCH   9  24
TORSDOF 4
ENDMDL
