MODEL 1
REMARK VINA RESULT:      -9.1      0.000      0.000
REMARK  2 active torsions:
REMARK  status: ('A' for Active; 'I' for Inactive)
REMARK    1  A    between atoms: C_9  and  C_10 
REMARK       I    between atoms: C_10  and  N_11 
REMARK    2  A    between atoms: N_11  and  C_12 
ROOT
HETATM    1  C   UNL     1      42.769 -14.969   2.977  1.00  0.00     0.277 C 
HETATM    2  N   UNL     1      41.448 -15.135   2.600  1.00  0.00    -0.322 N 
HETATM    3  O   UNL     1      43.537 -14.104   2.571  1.00  0.00    -0.266 OA
HETATM    4  H   UNL     1      41.003 -15.928   3.056  1.00  0.00     0.169 HD
ENDROOT
BRANCH   1   5
HETATM    5  C   UNL     1      43.183 -15.989   3.959  1.00  0.00     0.157 A 
HETATM    6  C   UNL     1      43.418 -17.377   3.725  1.00  0.00     0.029 A 
HETATM    7  C   UNL     1      43.355 -18.244   2.616  1.00  0.00     0.023 A 
HETATM    8  C   UNL     1      43.784 -17.895   4.960  1.00  0.00     0.063 A 
HETATM    9  C   UNL     1      43.658 -19.607   2.784  1.00  0.00    -0.061 A 
HETATM   10  C   UNL     1      43.588 -20.550   1.620  1.00  0.00     0.048 C 
HETATM   11  C   UNL     1      44.030 -20.086   4.047  1.00  0.00     0.009 A 
HETATM   12  C   UNL     1      44.102 -19.241   5.161  1.00  0.00     0.032 A 
HETATM   13  N   UNL     1      43.749 -16.834   5.822  1.00  0.00    -0.277 N 
HETATM   14  H   UNL     1      43.962 -16.845   6.813  1.00  0.00     0.189 HD
HETATM   15  N   UNL     1      43.378 -15.670   5.260  1.00  0.00    -0.168 NA
ENDBRANCH   1   5
BRANCH   2  16
HETATM   16  C   UNL     1      40.691 -14.379   1.691  1.00  0.00     0.037 A 
HETATM   17  C   UNL     1      40.494 -14.733   0.355  1.00  0.00     0.069 A 
HETATM   18  C   UNL     1      39.741 -13.910  -0.490  1.00  0.00     0.104 A 
HETATM   19  C   UNL     1      39.152 -12.745   0.005  1.00  0.00     0.102 A 
HETATM   20  O   UNL     1      39.539 -14.360  -1.767  1.00  0.00    -0.348 OA
HETATM   21  O   UNL     1      38.318 -11.953  -0.735  1.00  0.00    -0.348 OA
HETATM   22  C   UNL     1      39.317 -12.403   1.344  1.00  0.00     0.042 A 
HETATM   23  C   UNL     1      38.985 -11.366  -1.853  1.00  0.00     0.178 C 
HETATM   24  C   UNL     1      39.082 -12.322  -3.031  1.00  0.00     0.053 C 
HETATM   25  C   UNL     1      40.055 -13.454  -2.742  1.00  0.00     0.178 C 
HETATM   26  C   UNL     1      40.098 -13.207   2.178  1.00  0.00     0.032 A 
ENDBRANCH   2  16
TORSDOF 2
ENDMDL
MODEL 2
REMARK VINA RESULT:      -8.9      2.296      8.003
REMARK  2 active torsions:
REMARK  status: ('A' for Active; 'I' for Inactive)
REMARK    1  A    between atoms: C_9  and  C_10 
REMARK       I    between atoms: C_10  and  N_11 
REMARK    2  A    between atoms: N_11  and  C_12 
ROOT
HETATM    1  C   UNL     1      40.928 -14.752   1.610  1.00  0.00     0.277 C 
HETATM    2  N   UNL     1      42.255 -15.019   1.895  1.00  0.00    -0.322 N 
HETATM    3  O   UNL     1      39.957 -15.379   2.017  1.00  0.00    -0.266 OA
HETATM    4  H   UNL     1      42.896 -14.375   1.438  1.00  0.00     0.169 HD
ENDROOT
BRANCH   1   5
HETATM    5  C   UNL     1      40.792 -13.585   0.719  1.00  0.00     0.157 A 
HETATM    6  C   UNL     1      40.140 -13.530  -0.550  1.00  0.00     0.029 A 
HETATM    7  C   UNL     1      39.455 -14.440  -1.379  1.00  0.00     0.023 A 
HETATM    8  C   UNL     1      40.288 -12.216  -0.976  1.00  0.00     0.063 A 
HETATM    9  C   UNL     1      38.943 -14.003  -2.613  1.00  0.00    -0.061 A 
HETATM   10  C   UNL     1      38.219 -14.957  -3.517  1.00  0.00     0.048 C 
HETATM   11  C   UNL     1      39.108 -12.667  -3.001  1.00  0.00     0.009 A 
HETATM   12  C   UNL     1      39.782 -11.746  -2.191  1.00  0.00     0.032 A 
HETATM   13  N   UNL     1      40.987 -11.590   0.018  1.00  0.00    -0.277 N 
HETATM   14  H   UNL     1      41.273 -10.618   0.045  1.00  0.00     0.189 HD
HETATM   15  N   UNL     1      41.321 -12.384   1.052  1.00  0.00    -0.168 NA
ENDBRANCH   1   5
BRANCH   2  16
HETATM   16  C   UNL     1      42.796 -16.039   2.694  1.00  0.00     0.037 A 
HETATM   17  C   UNL     1      43.217 -17.276   2.202  1.00  0.00     0.069 A 
HETATM   18  C   UNL     1      43.724 -18.247   3.072  1.00  0.00     0.104 A 
HETATM   19  C   UNL     1      43.847 -17.974   4.436  1.00  0.00     0.102 A 
HETATM   20  O   UNL     1      44.177 -19.407   2.504  1.00  0.00    -0.348 OA
HETATM   21  O   UNL     1      44.431 -18.834   5.324  1.00  0.00    -0.348 OA
HETATM   22  C   UNL     1      43.459 -16.731   4.929  1.00  0.00     0.042 A 
HETATM   23  C   UNL     1      43.710 -20.060   5.442  1.00  0.00     0.178 C 
HETATM   24  C   UNL     1      44.041 -21.032   4.321  1.00  0.00     0.053 C 
HETATM   25  C   UNL     1      43.477 -20.551   2.992  1.00  0.00     0.178 C 
HETATM   26  C   UNL     1      42.920 -15.775   4.064  1.00  0.00     0.032 A 
ENDBRANCH   2  16
TORSDOF 2
ENDMDL
MODEL 3
REMARK VINA RESULT:      -8.8      1.601      2.375
REMARK  2 active torsions:
REMARK  status: ('A' for Active; 'I' for Inactive)
REMARK    1  A    between atoms: C_9  and  C_10 
REMARK       I    between atoms: C_10  and  N_11 
REMARK    2  A    between atoms: N_11  and  C_12 
ROOT
HETATM    1  C   UNL     1      40.626 -15.311   2.341  1.00  0.00     0.277 C 
HETATM    2  N   UNL     1      41.068 -14.415   1.385  1.00  0.00    -0.322 N 
HETATM    3  O   UNL     1      39.486 -15.747   2.456  1.00  0.00    -0.266 OA
HETATM    4  H   UNL     1      42.054 -14.182   1.486  1.00  0.00     0.169 HD
ENDROOT
BRANCH   1   5
HETATM    5  C   UNL     1      41.713 -15.705   3.257  1.00  0.00     0.157 A 
HETATM    6  C   UNL     1      42.502 -16.894   3.212  1.00  0.00     0.029 A 
HETATM    7  C   UNL     1      42.563 -18.041   2.395  1.00  0.00     0.023 A 
HETATM    8  C   UNL     1      43.380 -16.786   4.281  1.00  0.00     0.063 A 
HETATM    9  C   UNL     1      43.502 -19.046   2.682  1.00  0.00    -0.061 A 
HETATM   10  C   UNL     1      43.578 -20.281   1.832  1.00  0.00     0.048 C 
HETATM   11  C   UNL     1      44.374 -18.894   3.767  1.00  0.00     0.009 A 
HETATM   12  C   UNL     1      44.333 -17.762   4.589  1.00  0.00     0.032 A 
HETATM   13  N   UNL     1      43.080 -15.593   4.877  1.00  0.00    -0.277 N 
HETATM   14  H   UNL     1      43.527 -15.187   5.691  1.00  0.00     0.189 HD
HETATM   15  N   UNL     1      42.072 -14.917   4.297  1.00  0.00    -0.168 NA
ENDBRANCH   1   5
BRANCH   2  16
HETATM   16  C   UNL     1      40.345 -13.806   0.347  1.00  0.00     0.037 A 
HETATM   17  C   UNL     1      40.088 -12.435   0.274  1.00  0.00     0.069 A 
HETATM   18  C   UNL     1      39.338 -11.913  -0.785  1.00  0.00     0.104 A 
HETATM   19  C   UNL     1      38.870 -12.753  -1.797  1.00  0.00     0.102 A 
HETATM   20  O   UNL     1      39.187 -10.552  -0.819  1.00  0.00    -0.348 OA
HETATM   21  O   UNL     1      38.224 -12.296  -2.912  1.00  0.00    -0.348 OA
HETATM   22  C   UNL     1      39.149 -14.115  -1.748  1.00  0.00     0.042 A 
HETATM   23  C   UNL     1      36.981 -11.669  -2.597  1.00  0.00     0.178 C 
HETATM   24  C   UNL     1      37.162 -10.230  -2.143  1.00  0.00     0.053 C 
HETATM   25  C   UNL     1      37.815 -10.164  -0.771  1.00  0.00     0.178 C 
HETATM   26  C   UNL     1      39.868 -14.642  -0.671  1.00  0.00     0.032 A 
ENDBRANCH   2  16
TORSDOF 2
ENDMDL
MODEL 4
REMARK VINA RESULT:      -8.4      1.237      2.109
REMARK  2 active torsions:
REMARK  status: ('A' for Active; 'I' for Inactive)
REMARK    1  A    between atoms: C_9  and  C_10 
REMARK       I    between atoms: C_10  and  N_11 
REMARK    2  A    between atoms: N_11  and  C_12 
ROOT
HETATM    1  C   UNL     1      42.647 -15.214   4.061  1.00  0.00     0.277 C 
HETATM    2  N   UNL     1      41.634 -15.501   3.164  1.00  0.00    -0.322 N 
HETATM    3  O   UNL     1      43.207 -14.133   4.204  1.00  0.00    -0.266 OA
HETATM    4  H   UNL     1      41.326 -16.470   3.211  1.00  0.00     0.169 HD
ENDROOT
BRANCH   1   5
HETATM    5  C   UNL     1      43.009 -16.398   4.865  1.00  0.00     0.157 A 
HETATM    6  C   UNL     1      43.318 -17.708   4.392  1.00  0.00     0.029 A 
HETATM    7  C   UNL     1      43.391 -18.344   3.137  1.00  0.00     0.023 A 
HETATM    8  C   UNL     1      43.590 -18.450   5.534  1.00  0.00     0.063 A 
HETATM    9  C   UNL     1      43.730 -19.706   3.068  1.00  0.00    -0.061 A 
HETATM   10  C   UNL     1      43.804 -20.406   1.743  1.00  0.00     0.048 C 
HETATM   11  C   UNL     1      44.003 -20.415   4.245  1.00  0.00     0.009 A 
HETATM   12  C   UNL     1      43.940 -19.802   5.502  1.00  0.00     0.032 A 
HETATM   13  N   UNL     1      43.434 -17.579   6.577  1.00  0.00    -0.277 N 
HETATM   14  H   UNL     1      43.556 -17.778   7.563  1.00  0.00     0.189 HD
HETATM   15  N   UNL     1      43.071 -16.335   6.216  1.00  0.00    -0.168 NA
ENDBRANCH   1   5
BRANCH   2  16
HETATM   16  C   UNL     1      41.020 -14.653   2.230  1.00  0.00     0.037 A 
HETATM   17  C   UNL     1      40.393 -13.450   2.560  1.00  0.00     0.069 A 
HETATM   18  C   UNL     1      39.785 -12.674   1.567  1.00  0.00     0.104 A 
HETATM   19  C   UNL     1      39.831 -13.079   0.232  1.00  0.00     0.102 A 
HETATM   20  O   UNL     1      39.250 -11.478   1.963  1.00  0.00    -0.348 OA
HETATM   21  O   UNL     1      39.352 -12.319  -0.800  1.00  0.00    -0.348 OA
HETATM   22  C   UNL     1      40.482 -14.261  -0.110  1.00  0.00     0.042 A 
HETATM   23  C   UNL     1      37.941 -12.119  -0.712  1.00  0.00     0.178 C 
HETATM   24  C   UNL     1      37.578 -10.998   0.249  1.00  0.00     0.053 C 
HETATM   25  C   UNL     1      37.851 -11.400   1.690  1.00  0.00     0.178 C 
HETATM   26  C   UNL     1      41.058 -15.053   0.887  1.00  0.00     0.032 A 
ENDBRANCH   2  16
TORSDOF 2
ENDMDL
MODEL 5
REMARK VINA RESULT:      -8.3      5.274      7.681
REMARK  2 active torsions:
REMARK  status: ('A' for Active; 'I' for Inactive)
REMARK    1  A    between atoms: C_9  and  C_10 
REMARK       I    between atoms: C_10  and  N_11 
REMARK    2  A    between atoms: N_11  and  C_12 
ROOT
HETATM    1  C   UNL     1      42.795 -14.069   5.547  1.00  0.00     0.277 C 
HETATM    2  N   UNL     1      43.405 -12.834   5.423  1.00  0.00    -0.322 N 
HETATM    3  O   UNL     1      42.171 -14.477   6.520  1.00  0.00    -0.266 OA
HETATM    4  H   UNL     1      43.878 -12.714   4.530  1.00  0.00     0.169 HD
ENDROOT
BRANCH   1   5
HETATM    5  C   UNL     1      42.984 -14.889   4.335  1.00  0.00     0.157 A 
HETATM    6  C   UNL     1      43.257 -16.288   4.265  1.00  0.00     0.029 A 
HETATM    7  C   UNL     1      43.445 -17.333   5.192  1.00  0.00     0.023 A 
HETATM    8  C   UNL     1      43.344 -16.573   2.909  1.00  0.00     0.063 A 
HETATM    9  C   UNL     1      43.720 -18.631   4.726  1.00  0.00    -0.061 A 
HETATM   10  C   UNL     1      43.934 -19.757   5.695  1.00  0.00     0.048 C 
HETATM   11  C   UNL     1      43.791 -18.875   3.349  1.00  0.00     0.009 A 
HETATM   12  C   UNL     1      43.604 -17.852   2.412  1.00  0.00     0.032 A 
HETATM   13  N   UNL     1      43.127 -15.381   2.275  1.00  0.00    -0.277 N 
HETATM   14  H   UNL     1      43.115 -15.214   1.276  1.00  0.00     0.189 HD
HETATM   15  N   UNL     1      42.919 -14.339   3.100  1.00  0.00    -0.168 NA
ENDBRANCH   1   5
BRANCH   2  16
HETATM   16  C   UNL     1      43.457 -11.781   6.349  1.00  0.00     0.037 A 
HETATM   17  C   UNL     1      44.283 -11.771   7.475  1.00  0.00     0.069 A 
HETATM   18  C   UNL     1      44.257 -10.689   8.361  1.00  0.00     0.104 A 
HETATM   19  C   UNL     1      43.430  -9.593   8.109  1.00  0.00     0.102 A 
HETATM   20  O   UNL     1      45.143 -10.725   9.404  1.00  0.00    -0.348 OA
HETATM   21  O   UNL     1      43.432  -8.459   8.872  1.00  0.00    -0.348 OA
HETATM   22  C   UNL     1      42.628  -9.581   6.971  1.00  0.00     0.042 A 
HETATM   23  C   UNL     1      43.008  -8.710  10.212  1.00  0.00     0.178 C 
HETATM   24  C   UNL     1      44.129  -9.265  11.076  1.00  0.00     0.053 C 
HETATM   25  C   UNL     1      44.484 -10.686  10.669  1.00  0.00     0.178 C 
HETATM   26  C   UNL     1      42.628 -10.678   6.105  1.00  0.00     0.032 A 
ENDBRANCH   2  16
TORSDOF 2
ENDMDL
MODEL 6
REMARK VINA RESULT:      -8.2      4.871      6.321
REMARK  2 active torsions:
REMARK  status: ('A' for Active; 'I' for Inactive)
REMARK    1  A    between atoms: C_9  and  C_10 
REMARK       I    between atoms: C_10  and  N_11 
REMARK    2  A    between atoms: N_11  and  C_12 
ROOT
HETATM    1  C   UNL     1      43.240 -15.823   5.342  1.00  0.00     0.277 C 
HETATM    2  N   UNL     1      43.230 -14.975   6.435  1.00  0.00    -0.322 N 
HETATM    3  O   UNL     1      43.127 -15.496   4.167  1.00  0.00    -0.266 OA
HETATM    4  H   UNL     1      43.327 -15.468   7.320  1.00  0.00     0.169 HD
ENDROOT
BRANCH   1   5
HETATM    5  C   UNL     1      43.401 -17.231   5.753  1.00  0.00     0.157 A 
HETATM    6  C   UNL     1      43.569 -18.370   4.910  1.00  0.00     0.029 A 
HETATM    7  C   UNL     1      43.634 -18.605   3.522  1.00  0.00     0.023 A 
HETATM    8  C   UNL     1      43.678 -19.449   5.777  1.00  0.00     0.063 A 
HETATM    9  C   UNL     1      43.801 -19.917   3.048  1.00  0.00    -0.061 A 
HETATM   10  C   UNL     1      43.862 -20.191   1.574  1.00  0.00     0.048 C 
HETATM   11  C   UNL     1      43.913 -20.976   3.958  1.00  0.00     0.009 A 
HETATM   12  C   UNL     1      43.855 -20.765   5.340  1.00  0.00     0.032 A 
HETATM   13  N   UNL     1      43.573 -18.917   7.032  1.00  0.00    -0.277 N 
HETATM   14  H   UNL     1      43.611 -19.417   7.912  1.00  0.00     0.189 HD
HETATM   15  N   UNL     1      43.393 -17.584   7.060  1.00  0.00    -0.168 NA
ENDBRANCH   1   5
BRANCH   2  16
HETATM   16  C   UNL     1      43.093 -13.578   6.463  1.00  0.00     0.037 A 
HETATM   17  C   UNL     1      44.049 -12.711   6.995  1.00  0.00     0.069 A 
HETATM   18  C   UNL     1      43.823 -11.330   7.003  1.00  0.00     0.104 A 
HETATM   19  C   UNL     1      42.654 -10.805   6.448  1.00  0.00     0.102 A 
HETATM   20  O   UNL     1      44.836 -10.543   7.481  1.00  0.00    -0.348 OA
HETATM   21  O   UNL     1      42.418  -9.464   6.326  1.00  0.00    -0.348 OA
HETATM   22  C   UNL     1      41.712 -11.662   5.887  1.00  0.00     0.042 A 
HETATM   23  C   UNL     1      42.331  -8.815   7.595  1.00  0.00     0.178 C 
HETATM   24  C   UNL     1      43.701  -8.496   8.172  1.00  0.00     0.053 C 
HETATM   25  C   UNL     1      44.424  -9.762   8.603  1.00  0.00     0.178 C 
HETATM   26  C   UNL     1      41.922 -13.043   5.911  1.00  0.00     0.032 A 
ENDBRANCH   2  16
TORSDOF 2
ENDMDL
MODEL 7
REMARK VINA RESULT:      -8.1      2.322      8.408
REMARK  2 active torsions:
REMARK  status: ('A' for Active; 'I' for Inactive)
REMARK    1  A    between atoms: C_9  and  C_10 
REMARK       I    between atoms: C_10  and  N_11 
REMARK    2  A    between atoms: N_11  and  C_12 
ROOT
HETATM    1  C   UNL     1      41.197 -14.454   1.058  1.00  0.00     0.277 C 
HETATM    2  N   UNL     1      40.987 -15.711   1.598  1.00  0.00    -0.322 N 
HETATM    3  O   UNL     1      42.111 -13.687   1.337  1.00  0.00    -0.266 OA
HETATM    4  H   UNL     1      40.157 -16.168   1.227  1.00  0.00     0.169 HD
ENDROOT
BRANCH   1   5
HETATM    5  C   UNL     1      40.157 -14.111   0.069  1.00  0.00     0.157 A 
HETATM    6  C   UNL     1      39.608 -12.822  -0.205  1.00  0.00     0.029 A 
HETATM    7  C   UNL     1      39.791 -11.515   0.288  1.00  0.00     0.023 A 
HETATM    8  C   UNL     1      38.675 -13.033  -1.211  1.00  0.00     0.063 A 
HETATM    9  C   UNL     1      39.028 -10.461  -0.242  1.00  0.00    -0.061 A 
HETATM   10  C   UNL     1      39.200  -9.063   0.275  1.00  0.00     0.048 C 
HETATM   11  C   UNL     1      38.103 -10.717  -1.262  1.00  0.00     0.009 A 
HETATM   12  C   UNL     1      37.907 -12.007  -1.768  1.00  0.00     0.032 A 
HETATM   13  N   UNL     1      38.718 -14.375  -1.470  1.00  0.00    -0.277 N 
HETATM   14  H   UNL     1      38.169 -14.884  -2.152  1.00  0.00     0.189 HD
HETATM   15  N   UNL     1      39.590 -15.062  -0.710  1.00  0.00    -0.168 NA
ENDBRANCH   1   5
BRANCH   2  16
HETATM   16  C   UNL     1      41.744 -16.390   2.565  1.00  0.00     0.037 A 
HETATM   17  C   UNL     1      42.626 -17.433   2.274  1.00  0.00     0.069 A 
HETATM   18  C   UNL     1      43.327 -18.072   3.303  1.00  0.00     0.104 A 
HETATM   19  C   UNL     1      43.176 -17.650   4.625  1.00  0.00     0.102 A 
HETATM   20  O   UNL     1      44.220 -19.040   2.930  1.00  0.00    -0.348 OA
HETATM   21  O   UNL     1      43.908 -18.157   5.663  1.00  0.00    -0.348 OA
HETATM   22  C   UNL     1      42.324 -16.589   4.918  1.00  0.00     0.042 A 
HETATM   23  C   UNL     1      43.648 -19.544   5.879  1.00  0.00     0.178 C 
HETATM   24  C   UNL     1      44.433 -20.431   4.925  1.00  0.00     0.053 C 
HETATM   25  C   UNL     1      43.907 -20.309   3.503  1.00  0.00     0.178 C 
HETATM   26  C   UNL     1      41.598 -15.974   3.895  1.00  0.00     0.032 A 
ENDBRANCH   2  16
TORSDOF 2
ENDMDL
MODEL 8
REMARK VINA RESULT:      -8.1      2.725      8.569
REMARK  2 active torsions:
REMARK  status: ('A' for Active; 'I' for Inactive)
REMARK    1  A    between atoms: C_9  and  C_10 
REMARK       I    between atoms: C_10  and  N_11 
REMARK    2  A    between atoms: N_11  and  C_12 
ROOT
HETATM    1  C   UNL     1      40.477 -14.059   0.363  1.00  0.00     0.277 C 
HETATM    2  N   UNL     1      40.357 -15.276   1.010  1.00  0.00    -0.322 N 
HETATM    3  O   UNL     1      41.284 -13.175   0.623  1.00  0.00    -0.266 OA
HETATM    4  H   UNL     1      39.607 -15.853   0.633  1.00  0.00     0.169 HD
ENDROOT
BRANCH   1   5
HETATM    5  C   UNL     1      39.484 -13.923  -0.720  1.00  0.00     0.157 A 
HETATM    6  C   UNL     1      38.694 -12.777  -1.037  1.00  0.00     0.029 A 
HETATM    7  C   UNL     1      38.541 -11.475  -0.520  1.00  0.00     0.023 A 
HETATM    8  C   UNL     1      37.928 -13.157  -2.131  1.00  0.00     0.063 A 
HETATM    9  C   UNL     1      37.618 -10.598  -1.115  1.00  0.00    -0.061 A 
HETATM   10  C   UNL     1      37.431  -9.210  -0.574  1.00  0.00     0.048 C 
HETATM   11  C   UNL     1      36.870 -11.020  -2.221  1.00  0.00     0.009 A 
HETATM   12  C   UNL     1      37.010 -12.307  -2.753  1.00  0.00     0.032 A 
HETATM   13  N   UNL     1      38.288 -14.450  -2.392  1.00  0.00    -0.277 N 
HETATM   14  H   UNL     1      37.929 -15.047  -3.129  1.00  0.00     0.189 HD
HETATM   15  N   UNL     1      39.214 -14.953  -1.556  1.00  0.00    -0.168 NA
ENDBRANCH   1   5
BRANCH   2  16
HETATM   16  C   UNL     1      41.105 -15.779   2.086  1.00  0.00     0.037 A 
HETATM   17  C   UNL     1      40.624 -15.878   3.393  1.00  0.00     0.069 A 
HETATM   18  C   UNL     1      41.446 -16.371   4.412  1.00  0.00     0.104 A 
HETATM   19  C   UNL     1      42.743 -16.801   4.124  1.00  0.00     0.102 A 
HETATM   20  O   UNL     1      40.879 -16.499   5.651  1.00  0.00    -0.348 OA
HETATM   21  O   UNL     1      43.561 -17.391   5.048  1.00  0.00    -0.348 OA
HETATM   22  C   UNL     1      43.218 -16.735   2.818  1.00  0.00     0.042 A 
HETATM   23  C   UNL     1      43.889 -16.506   6.120  1.00  0.00     0.178 C 
HETATM   24  C   UNL     1      42.791 -16.442   7.169  1.00  0.00     0.053 C 
HETATM   25  C   UNL     1      41.562 -15.722   6.636  1.00  0.00     0.178 C 
HETATM   26  C   UNL     1      42.409 -16.210   1.807  1.00  0.00     0.032 A 
ENDBRANCH   2  16
TORSDOF 2
ENDMDL
MODEL 9
REMARK VINA RESULT:      -7.8     14.199     16.463
REMARK  2 active torsions:
REMARK  status: ('A' for Active; 'I' for Inactive)
REMARK    1  A    between atoms: C_9  and  C_10 
REMARK       I    between atoms: C_10  and  N_11 
REMARK    2  A    between atoms: N_11  and  C_12 
ROOT
HETATM    1  C   UNL     1      43.054 -29.514   1.674  1.00  0.00     0.277 C 
HETATM    2  N   UNL     1      42.936 -30.544   2.589  1.00  0.00    -0.322 N 
HETATM    3  O   UNL     1      42.135 -28.948   1.093  1.00  0.00    -0.266 OA
HETATM    4  H   UNL     1      43.835 -30.870   2.937  1.00  0.00     0.169 HD
ENDROOT
BRANCH   1   5
HETATM    5  C   UNL     1      44.467 -29.149   1.451  1.00  0.00     0.157 A 
HETATM    6  C   UNL     1      45.081 -28.758   0.224  1.00  0.00     0.029 A 
HETATM    7  C   UNL     1      44.664 -28.586  -1.111  1.00  0.00     0.023 A 
HETATM    8  C   UNL     1      46.411 -28.521   0.545  1.00  0.00     0.063 A 
HETATM    9  C   UNL     1      45.597 -28.187  -2.083  1.00  0.00    -0.061 A 
HETATM   10  C   UNL     1      45.176 -28.007  -3.512  1.00  0.00     0.048 C 
HETATM   11  C   UNL     1      46.928 -27.952  -1.715  1.00  0.00     0.009 A 
HETATM   12  C   UNL     1      47.363 -28.113  -0.394  1.00  0.00     0.032 A 
HETATM   13  N   UNL     1      46.511 -28.773   1.885  1.00  0.00    -0.277 N 
HETATM   14  H   UNL     1      47.341 -28.700   2.460  1.00  0.00     0.189 HD
HETATM   15  N   UNL     1      45.363 -29.167   2.466  1.00  0.00    -0.168 NA
ENDBRANCH   1   5
BRANCH   2  16
HETATM   16  C   UNL     1      41.773 -31.173   3.061  1.00  0.00     0.037 A 
HETATM   17  C   UNL     1      41.278 -31.028   4.358  1.00  0.00     0.069 A 
HETATM   18  C   UNL     1      40.121 -31.709   4.753  1.00  0.00     0.104 A 
HETATM   19  C   UNL     1      39.433 -32.513   3.842  1.00  0.00     0.102 A 
HETATM   20  O   UNL     1      39.664 -31.463   6.020  1.00  0.00    -0.348 OA
HETATM   21  O   UNL     1      38.241 -33.120   4.128  1.00  0.00    -0.348 OA
HETATM   22  C   UNL     1      39.902 -32.636   2.538  1.00  0.00     0.042 A 
HETATM   23  C   UNL     1      38.366 -34.085   5.174  1.00  0.00     0.178 C 
HETATM   24  C   UNL     1      38.342 -33.445   6.553  1.00  0.00     0.053 C 
HETATM   25  C   UNL     1      39.612 -32.650   6.811  1.00  0.00     0.178 C 
HETATM   26  C   UNL     1      41.077 -31.983   2.154  1.00  0.00     0.032 A 
ENDBRANCH   2  16
TORSDOF 2
ENDMDL
MODEL 10
REMARK VINA RESULT:      -7.8      5.918      8.979
REMARK  2 active torsions:
REMARK  status: ('A' for Active; 'I' for Inactive)
REMARK    1  A    between atoms: C_9  and  C_10 
REMARK       I    between atoms: C_10  and  N_11 
REMARK    2  A    between atoms: N_11  and  C_12 
ROOT
HETATM    1  C   UNL     1      44.626 -11.590   7.306  1.00  0.00     0.277 C 
HETATM    2  N   UNL     1      43.518 -12.415   7.225  1.00  0.00    -0.322 N 
HETATM    3  O   UNL     1      45.601 -11.607   6.563  1.00  0.00    -0.266 OA
HETATM    4  H   UNL     1      42.833 -12.231   7.954  1.00  0.00     0.169 HD
ENDROOT
BRANCH   1   5
HETATM    5  C   UNL     1      44.514 -10.645   8.434  1.00  0.00     0.157 A 
HETATM    6  C   UNL     1      43.797  -9.412   8.468  1.00  0.00     0.029 A 
HETATM    7  C   UNL     1      43.008  -8.671   7.566  1.00  0.00     0.023 A 
HETATM    8  C   UNL     1      44.003  -8.909   9.746  1.00  0.00     0.063 A 
HETATM    9  C   UNL     1      42.456  -7.444   7.973  1.00  0.00    -0.061 A 
HETATM   10  C   UNL     1      41.622  -6.633   7.025  1.00  0.00     0.048 C 
HETATM   11  C   UNL     1      42.684  -6.977   9.274  1.00  0.00     0.009 A 
HETATM   12  C   UNL     1      43.461  -7.699  10.187  1.00  0.00     0.032 A 
HETATM   13  N   UNL     1      44.797  -9.829  10.373  1.00  0.00    -0.277 N 
HETATM   14  H   UNL     1      45.146  -9.788  11.323  1.00  0.00     0.189 HD
HETATM   15  N   UNL     1      45.138 -10.884   9.611  1.00  0.00    -0.168 NA
ENDBRANCH   1   5
BRANCH   2  16
HETATM   16  C   UNL     1      43.250 -13.439   6.303  1.00  0.00     0.037 A 
HETATM   17  C   UNL     1      43.464 -14.795   6.558  1.00  0.00     0.069 A 
HETATM   18  C   UNL     1      43.189 -15.750   5.574  1.00  0.00     0.104 A 
HETATM   19  C   UNL     1      42.665 -15.359   4.340  1.00  0.00     0.102 A 
HETATM   20  O   UNL     1      43.363 -17.062   5.925  1.00  0.00    -0.348 OA
HETATM   21  O   UNL     1      42.275 -16.246   3.375  1.00  0.00    -0.348 OA
HETATM   22  C   UNL     1      42.419 -14.013   4.091  1.00  0.00     0.042 A 
HETATM   23  C   UNL     1      43.368 -17.019   2.879  1.00  0.00     0.178 C 
HETATM   24  C   UNL     1      43.702 -18.191   3.787  1.00  0.00     0.053 C 
HETATM   25  C   UNL     1      44.321 -17.717   5.093  1.00  0.00     0.178 C 
HETATM   26  C   UNL     1      42.726 -13.055   5.061  1.00  0.00     0.032 A 
ENDBRANCH   2  16
TORSDOF 2
ENDMDL
