MODEL 1
REMARK VINA RESULT:      -8.3      0.000      0.000
REMARK  3 active torsions:
REMARK  status: ('A' for Active; 'I' for Inactive)
REMARK    1  A    between atoms: C_4  and  C_5 
REMARK    2  A    between atoms: C_14  and  C_15 
REMARK       I    between atoms: C_15  and  N_16 
REMARK    3  A    between atoms: N_16  and  C_17 
ROOT
HETATM    1  C   UNL     1      40.406 -13.497   4.414  1.00  0.00     0.222 C 
HETATM    2  N   UNL     1      40.188 -12.176   4.996  1.00  0.00    -0.090 N 
HETATM    3  C   UNL     1      40.968 -11.619   5.969  1.00  0.00     0.735 A 
HETATM    4  N   UNL     1      40.466 -10.449   6.277  1.00  0.00     0.030 NA
HETATM    5  N   UNL     1      39.330 -10.313   5.500  1.00  0.00     0.033 NA
HETATM    6  N   UNL     1      39.136 -11.383   4.735  1.00  0.00     0.012 NA
HETATM    7  N   UNL     1      42.006 -12.324   6.467  1.00  0.00    -0.191 N 
HETATM    8  C   UNL     1      42.227 -13.663   6.154  1.00  0.00     0.037 C 
HETATM    9  C   UNL     1      43.231 -14.373   7.028  1.00  0.00     0.070 C 
HETATM   10  C   UNL     1      41.497 -14.251   5.172  1.00  0.00     0.064 C 
HETATM   11  H   UNL     1      42.513 -11.935   7.259  1.00  0.00     0.184 HD
ENDROOT
BRANCH  10  12
HETATM   12  C   UNL     1      41.570 -15.693   4.809  1.00  0.00     0.256 C 
HETATM   13  N   UNL     1      42.666 -16.026   4.046  1.00  0.00    -0.323 N 
HETATM   14  H   UNL     1      43.274 -15.271   3.755  1.00  0.00     0.169 HD
HETATM   15  O   UNL     1      40.662 -16.429   5.173  1.00  0.00    -0.267 OA
BRANCH  13  16
HETATM   16  C   UNL     1      43.076 -17.322   3.665  1.00  0.00     0.035 A 
HETATM   17  C   UNL     1      42.771 -17.908   2.436  1.00  0.00     0.029 A 
HETATM   18  C   UNL     1      43.183 -19.214   2.148  1.00  0.00     0.002 A 
HETATM   19  C   UNL     1      43.900 -19.947   3.090  1.00  0.00     0.000 A 
HETATM   20  C   UNL     1      44.213 -19.373   4.319  1.00  0.00     0.002 A 
HETATM   21  C   UNL     1      43.808 -18.064   4.602  1.00  0.00     0.029 A 
ENDBRANCH  13  16
ENDBRANCH  10  12
BRANCH   1  22
HETATM   22  C   UNL     1      40.678 -13.344   2.946  1.00  0.00     0.083 A 
HETATM   23  O   UNL     1      39.969 -14.141   2.092  1.00  0.00    -0.317 OA
HETATM   24  C   UNL     1      40.419 -13.882   0.834  1.00  0.00     0.049 A 
HETATM   25  C   UNL     1      39.839 -14.693  -0.255  1.00  0.00     0.076 C 
HETATM   26  C   UNL     1      41.375 -12.890   0.868  1.00  0.00     0.035 A 
HETATM   27  C   UNL     1      41.538 -12.537   2.228  1.00  0.00     0.038 A 
ENDBRANCH   1  22
TORSDOF 3
ENDMDL
MODEL 2
REMARK VINA RESULT:      -8.1      1.920      4.046
REMARK  3 active torsions:
REMARK  status: ('A' for Active; 'I' for Inactive)
REMARK    1  A    between atoms: C_4  and  C_5 
REMARK    2  A    between atoms: C_14  and  C_15 
REMARK       I    between atoms: C_15  and  N_16 
REMARK    3  A    between atoms: N_16  and  C_17 
ROOT
HETATM    1  C   UNL     1      42.931 -13.628   3.944  1.00  0.00     0.222 C 
HETATM    2  N   UNL     1      42.441 -12.255   4.036  1.00  0.00    -0.090 N 
HETATM    3  C   UNL     1      41.485 -11.717   3.223  1.00  0.00     0.735 A 
HETATM    4  N   UNL     1      41.317 -10.463   3.561  1.00  0.00     0.030 NA
HETATM    5  N   UNL     1      42.224 -10.225   4.578  1.00  0.00     0.033 NA
HETATM    6  N   UNL     1      42.939 -11.312   4.852  1.00  0.00     0.012 NA
HETATM    7  N   UNL     1      40.952 -12.473   2.240  1.00  0.00    -0.191 N 
HETATM    8  C   UNL     1      41.448 -13.731   1.904  1.00  0.00     0.037 C 
HETATM    9  C   UNL     1      40.947 -14.294   0.597  1.00  0.00     0.070 C 
HETATM   10  C   UNL     1      42.378 -14.319   2.699  1.00  0.00     0.064 C 
HETATM   11  H   UNL     1      40.316 -12.027   1.583  1.00  0.00     0.184 HD
ENDROOT
BRANCH  10  12
HETATM   12  C   UNL     1      43.053 -15.613   2.401  1.00  0.00     0.256 C 
HETATM   13  N   UNL     1      42.767 -16.616   3.298  1.00  0.00    -0.323 N 
HETATM   14  H   UNL     1      42.189 -16.375   4.093  1.00  0.00     0.169 HD
HETATM   15  O   UNL     1      43.810 -15.663   1.440  1.00  0.00    -0.267 OA
BRANCH  13  16
HETATM   16  C   UNL     1      43.145 -17.974   3.205  1.00  0.00     0.035 A 
HETATM   17  C   UNL     1      42.864 -18.790   2.108  1.00  0.00     0.029 A 
HETATM   18  C   UNL     1      43.240 -20.137   2.109  1.00  0.00     0.002 A 
HETATM   19  C   UNL     1      43.897 -20.682   3.210  1.00  0.00     0.000 A 
HETATM   20  C   UNL     1      44.185 -19.877   4.309  1.00  0.00     0.002 A 
HETATM   21  C   UNL     1      43.817 -18.528   4.303  1.00  0.00     0.029 A 
ENDBRANCH  13  16
ENDBRANCH  10  12
BRANCH   1  22
HETATM   22  C   UNL     1      42.621 -14.342   5.227  1.00  0.00     0.083 A 
HETATM   23  O   UNL     1      43.600 -15.137   5.752  1.00  0.00    -0.317 OA
HETATM   24  C   UNL     1      43.085 -15.728   6.865  1.00  0.00     0.049 A 
HETATM   25  C   UNL     1      43.953 -16.700   7.559  1.00  0.00     0.076 C 
HETATM   26  C   UNL     1      41.800 -15.281   7.086  1.00  0.00     0.035 A 
HETATM   27  C   UNL     1      41.502 -14.383   6.035  1.00  0.00     0.038 A 
ENDBRANCH   1  22
TORSDOF 3
ENDMDL
MODEL 3
REMARK VINA RESULT:      -7.9      2.343      4.124
REMARK  3 active torsions:
REMARK  status: ('A' for Active; 'I' for Inactive)
REMARK    1  A    between atoms: C_4  and  C_5 
REMARK    2  A    between atoms: C_14  and  C_15 
REMARK       I    between atoms: C_15  and  N_16 
REMARK    3  A    between atoms: N_16  and  C_17 
ROOT
HETATM    1  C   UNL     1      42.261 -13.076   2.608  1.00  0.00     0.222 C 
HETATM    2  N   UNL     1      41.385 -11.957   2.275  1.00  0.00    -0.090 N 
HETATM    3  C   UNL     1      40.145 -12.082   1.717  1.00  0.00     0.735 A 
HETATM    4  N   UNL     1      39.659 -10.881   1.522  1.00  0.00     0.030 NA
HETATM    5  N   UNL     1      40.648 -10.006   1.935  1.00  0.00     0.033 NA
HETATM    6  N   UNL     1      41.722 -10.660   2.368  1.00  0.00     0.012 NA
HETATM    7  N   UNL     1      39.677 -13.312   1.417  1.00  0.00    -0.191 N 
HETATM    8  C   UNL     1      40.465 -14.458   1.497  1.00  0.00     0.037 C 
HETATM    9  C   UNL     1      39.888 -15.685   0.836  1.00  0.00     0.070 C 
HETATM   10  C   UNL     1      41.693 -14.389   2.072  1.00  0.00     0.064 C 
HETATM   11  H   UNL     1      38.797 -13.381   0.912  1.00  0.00     0.184 HD
ENDROOT
BRANCH  10  12
HETATM   12  C   UNL     1      42.666 -15.514   2.134  1.00  0.00     0.256 C 
HETATM   13  N   UNL     1      42.286 -16.541   2.967  1.00  0.00    -0.323 N 
HETATM   14  H   UNL     1      41.434 -16.414   3.498  1.00  0.00     0.169 HD
HETATM   15  O   UNL     1      43.703 -15.419   1.491  1.00  0.00    -0.267 OA
BRANCH  13  16
HETATM   16  C   UNL     1      42.927 -17.789   3.127  1.00  0.00     0.035 A 
HETATM   17  C   UNL     1      42.934 -18.793   2.159  1.00  0.00     0.029 A 
HETATM   18  C   UNL     1      43.561 -20.019   2.409  1.00  0.00     0.002 A 
HETATM   19  C   UNL     1      44.182 -20.252   3.633  1.00  0.00     0.000 A 
HETATM   20  C   UNL     1      44.185 -19.256   4.606  1.00  0.00     0.002 A 
HETATM   21  C   UNL     1      43.566 -18.029   4.352  1.00  0.00     0.029 A 
ENDBRANCH  13  16
ENDBRANCH  10  12
BRANCH   1  22
HETATM   22  C   UNL     1      42.507 -13.077   4.089  1.00  0.00     0.083 A 
HETATM   23  O   UNL     1      43.621 -12.427   4.538  1.00  0.00    -0.317 OA
HETATM   24  C   UNL     1      43.678 -12.610   5.886  1.00  0.00     0.049 A 
HETATM   25  C   UNL     1      44.855 -12.051   6.580  1.00  0.00     0.076 C 
HETATM   26  C   UNL     1      42.583 -13.330   6.312  1.00  0.00     0.035 A 
HETATM   27  C   UNL     1      41.824 -13.627   5.156  1.00  0.00     0.038 A 
ENDBRANCH   1  22
TORSDOF 3
ENDMDL
MODEL 4
REMARK VINA RESULT:      -7.8      1.451      1.834
REMARK  3 active torsions:
REMARK  status: ('A' for Active; 'I' for Inactive)
REMARK    1  A    between atoms: C_4  and  C_5 
REMARK    2  A    between atoms: C_14  and  C_15 
REMARK       I    between atoms: C_15  and  N_16 
REMARK    3  A    between atoms: N_16  and  C_17 
ROOT
HETATM    1  C   UNL     1      40.544 -13.058   4.689  1.00  0.00     0.222 C 
HETATM    2  N   UNL     1      39.870 -12.169   5.630  1.00  0.00    -0.090 N 
HETATM    3  C   UNL     1      40.508 -11.304   6.473  1.00  0.00     0.735 A 
HETATM    4  N   UNL     1      39.603 -10.693   7.196  1.00  0.00     0.030 NA
HETATM    5  N   UNL     1      38.389 -11.231   6.808  1.00  0.00     0.033 NA
HETATM    6  N   UNL     1      38.549 -12.160   5.871  1.00  0.00     0.012 NA
HETATM    7  N   UNL     1      41.857 -11.262   6.479  1.00  0.00    -0.191 N 
HETATM    8  C   UNL     1      42.642 -12.178   5.782  1.00  0.00     0.037 C 
HETATM    9  C   UNL     1      44.107 -12.180   6.145  1.00  0.00     0.070 C 
HETATM   10  C   UNL     1      42.056 -13.037   4.909  1.00  0.00     0.064 C 
HETATM   11  H   UNL     1      42.316 -10.687   7.181  1.00  0.00     0.184 HD
ENDROOT
BRANCH  10  12
HETATM   12  C   UNL     1      42.768 -14.121   4.178  1.00  0.00     0.256 C 
HETATM   13  N   UNL     1      42.619 -15.369   4.738  1.00  0.00    -0.323 N 
HETATM   14  H   UNL     1      42.105 -15.427   5.608  1.00  0.00     0.169 HD
HETATM   15  O   UNL     1      43.435 -13.817   3.197  1.00  0.00    -0.267 OA
BRANCH  13  16
HETATM   16  C   UNL     1      43.058 -16.600   4.203  1.00  0.00     0.035 A 
HETATM   17  C   UNL     1      44.014 -17.417   4.806  1.00  0.00     0.029 A 
HETATM   18  C   UNL     1      44.423 -18.606   4.192  1.00  0.00     0.002 A 
HETATM   19  C   UNL     1      43.883 -18.985   2.966  1.00  0.00     0.000 A 
HETATM   20  C   UNL     1      42.925 -18.180   2.356  1.00  0.00     0.002 A 
HETATM   21  C   UNL     1      42.510 -16.996   2.975  1.00  0.00     0.029 A 
ENDBRANCH  13  16
ENDBRANCH  10  12
BRANCH   1  22
HETATM   22  C   UNL     1      40.127 -12.697   3.293  1.00  0.00     0.083 A 
HETATM   23  O   UNL     1      40.147 -13.693   2.357  1.00  0.00    -0.317 OA
HETATM   24  C   UNL     1      39.798 -13.133   1.167  1.00  0.00     0.049 A 
HETATM   25  C   UNL     1      39.828 -14.019  -0.014  1.00  0.00     0.076 C 
HETATM   26  C   UNL     1      39.506 -11.797   1.340  1.00  0.00     0.035 A 
HETATM   27  C   UNL     1      39.711 -11.516   2.711  1.00  0.00     0.038 A 
ENDBRANCH   1  22
TORSDOF 3
ENDMDL
MODEL 5
REMARK VINA RESULT:      -7.7      2.793      5.763
REMARK  3 active torsions:
REMARK  status: ('A' for Active; 'I' for Inactive)
REMARK    1  A    between atoms: C_4  and  C_5 
REMARK    2  A    between atoms: C_14  and  C_15 
REMARK       I    between atoms: C_15  and  N_16 
REMARK    3  A    between atoms: N_16  and  C_17 
ROOT
HETATM    1  C   UNL     1      41.026 -15.116   4.742  1.00  0.00     0.222 C 
HETATM    2  N   UNL     1      41.994 -15.640   5.701  1.00  0.00    -0.090 N 
HETATM    3  C   UNL     1      43.214 -16.156   5.369  1.00  0.00     0.735 A 
HETATM    4  N   UNL     1      43.801 -16.562   6.467  1.00  0.00     0.030 NA
HETATM    5  N   UNL     1      42.895 -16.323   7.485  1.00  0.00     0.033 NA
HETATM    6  N   UNL     1      41.772 -15.788   7.018  1.00  0.00     0.012 NA
HETATM    7  N   UNL     1      43.571 -16.222   4.069  1.00  0.00    -0.191 N 
HETATM    8  C   UNL     1      42.687 -15.941   3.030  1.00  0.00     0.037 C 
HETATM    9  C   UNL     1      43.150 -16.363   1.657  1.00  0.00     0.070 C 
HETATM   10  C   UNL     1      41.474 -15.399   3.309  1.00  0.00     0.064 C 
HETATM   11  H   UNL     1      44.438 -16.699   3.833  1.00  0.00     0.184 HD
ENDROOT
BRANCH  10  12
HETATM   12  C   UNL     1      40.407 -15.142   2.303  1.00  0.00     0.256 C 
HETATM   13  N   UNL     1      40.619 -14.021   1.533  1.00  0.00    -0.323 N 
HETATM   14  H   UNL     1      41.426 -13.452   1.756  1.00  0.00     0.169 HD
HETATM   15  O   UNL     1      39.446 -15.900   2.271  1.00  0.00    -0.267 OA
BRANCH  13  16
HETATM   16  C   UNL     1      39.862 -13.598   0.419  1.00  0.00     0.035 A 
HETATM   17  C   UNL     1      39.144 -12.403   0.370  1.00  0.00     0.029 A 
HETATM   18  C   UNL     1      38.387 -12.073  -0.760  1.00  0.00     0.002 A 
HETATM   19  C   UNL     1      38.337 -12.939  -1.849  1.00  0.00     0.000 A 
HETATM   20  C   UNL     1      39.052 -14.133  -1.813  1.00  0.00     0.002 A 
HETATM   21  C   UNL     1      39.815 -14.458  -0.688  1.00  0.00     0.029 A 
ENDBRANCH  13  16
ENDBRANCH  10  12
BRANCH   1  22
HETATM   22  C   UNL     1      40.792 -13.662   5.032  1.00  0.00     0.083 A 
HETATM   23  O   UNL     1      41.642 -12.764   4.449  1.00  0.00    -0.317 OA
HETATM   24  C   UNL     1      41.289 -11.528   4.895  1.00  0.00     0.049 A 
HETATM   25  C   UNL     1      42.129 -10.399   4.449  1.00  0.00     0.076 C 
HETATM   26  C   UNL     1      40.189 -11.620   5.721  1.00  0.00     0.035 A 
HETATM   27  C   UNL     1      39.863 -12.993   5.804  1.00  0.00     0.038 A 
ENDBRANCH   1  22
TORSDOF 3
ENDMDL
MODEL 6
REMARK VINA RESULT:      -7.4      3.008      4.912
REMARK  3 active torsions:
REMARK  status: ('A' for Active; 'I' for Inactive)
REMARK    1  A    between atoms: C_4  and  C_5 
REMARK    2  A    between atoms: C_14  and  C_15 
REMARK       I    between atoms: C_15  and  N_16 
REMARK    3  A    between atoms: N_16  and  C_17 
ROOT
HETATM    1  C   UNL     1      41.277 -12.311   1.213  1.00  0.00     0.222 C 
HETATM    2  N   UNL     1      41.222 -11.198   0.270  1.00  0.00    -0.090 N 
HETATM    3  C   UNL     1      40.539 -11.217  -0.912  1.00  0.00     0.735 A 
HETATM    4  N   UNL     1      40.736 -10.071  -1.517  1.00  0.00     0.030 NA
HETATM    5  N   UNL     1      41.593  -9.358  -0.698  1.00  0.00     0.033 NA
HETATM    6  N   UNL     1      41.921 -10.057   0.384  1.00  0.00     0.012 NA
HETATM    7  N   UNL     1      39.877 -12.335  -1.275  1.00  0.00    -0.191 N 
HETATM    8  C   UNL     1      39.991 -13.537  -0.580  1.00  0.00     0.037 C 
HETATM    9  C   UNL     1      39.442 -14.749  -1.291  1.00  0.00     0.070 C 
HETATM   10  C   UNL     1      40.635 -13.562   0.615  1.00  0.00     0.064 C 
HETATM   11  H   UNL     1      39.458 -12.366  -2.202  1.00  0.00     0.184 HD
ENDROOT
BRANCH  10  12
HETATM   12  C   UNL     1      40.905 -14.793   1.408  1.00  0.00     0.256 C 
HETATM   13  N   UNL     1      42.242 -15.076   1.568  1.00  0.00    -0.323 N 
HETATM   14  H   UNL     1      42.903 -14.475   1.093  1.00  0.00     0.169 HD
HETATM   15  O   UNL     1      39.950 -15.449   1.803  1.00  0.00    -0.267 OA
BRANCH  13  16
HETATM   16  C   UNL     1      42.807 -16.089   2.374  1.00  0.00     0.035 A 
HETATM   17  C   UNL     1      43.026 -17.398   1.945  1.00  0.00     0.029 A 
HETATM   18  C   UNL     1      43.557 -18.354   2.818  1.00  0.00     0.002 A 
HETATM   19  C   UNL     1      43.868 -18.010   4.130  1.00  0.00     0.000 A 
HETATM   20  C   UNL     1      43.657 -16.706   4.570  1.00  0.00     0.002 A 
HETATM   21  C   UNL     1      43.136 -15.749   3.694  1.00  0.00     0.029 A 
ENDBRANCH  13  16
ENDBRANCH  10  12
BRANCH   1  22
HETATM   22  C   UNL     1      40.669 -11.877   2.515  1.00  0.00     0.083 A 
HETATM   23  O   UNL     1      41.464 -11.931   3.625  1.00  0.00    -0.317 OA
HETATM   24  C   UNL     1      40.697 -11.558   4.687  1.00  0.00     0.049 A 
HETATM   25  C   UNL     1      41.337 -11.616   6.016  1.00  0.00     0.076 C 
HETATM   26  C   UNL     1      39.432 -11.219   4.261  1.00  0.00     0.035 A 
HETATM   27  C   UNL     1      39.413 -11.417   2.860  1.00  0.00     0.038 A 
ENDBRANCH   1  22
TORSDOF 3
ENDMDL
MODEL 7
REMARK VINA RESULT:      -7.3      2.490      5.697
REMARK  3 active torsions:
REMARK  status: ('A' for Active; 'I' for Inactive)
REMARK    1  A    between atoms: C_4  and  C_5 
REMARK    2  A    between atoms: C_14  and  C_15 
REMARK       I    between atoms: C_15  and  N_16 
REMARK    3  A    between atoms: N_16  and  C_17 
ROOT
HETATM    1  C   UNL     1      40.657 -13.905   3.990  1.00  0.00     0.222 C 
HETATM    2  N   UNL     1      40.500 -14.581   5.275  1.00  0.00    -0.090 N 
HETATM    3  C   UNL     1      40.957 -15.837   5.551  1.00  0.00     0.735 A 
HETATM    4  N   UNL     1      40.613 -16.138   6.779  1.00  0.00     0.030 NA
HETATM    5  N   UNL     1      39.895 -15.051   7.243  1.00  0.00     0.033 NA
HETATM    6  N   UNL     1      39.794 -14.106   6.314  1.00  0.00     0.012 NA
HETATM    7  N   UNL     1      41.581 -16.541   4.582  1.00  0.00    -0.191 N 
HETATM    8  C   UNL     1      41.638 -16.113   3.258  1.00  0.00     0.037 C 
HETATM    9  C   UNL     1      42.090 -17.152   2.263  1.00  0.00     0.070 C 
HETATM   10  C   UNL     1      41.223 -14.859   2.940  1.00  0.00     0.064 C 
HETATM   11  H   UNL     1      41.825 -17.509   4.775  1.00  0.00     0.184 HD
ENDROOT
BRANCH  10  12
HETATM   12  C   UNL     1      41.145 -14.317   1.556  1.00  0.00     0.256 C 
HETATM   13  N   UNL     1      39.920 -14.491   0.952  1.00  0.00    -0.323 N 
HETATM   14  H   UNL     1      39.221 -15.013   1.466  1.00  0.00     0.169 HD
HETATM   15  O   UNL     1      42.152 -13.816   1.072  1.00  0.00    -0.267 OA
BRANCH  13  16
HETATM   16  C   UNL     1      39.503 -13.970  -0.292  1.00  0.00     0.035 A 
HETATM   17  C   UNL     1      39.440 -14.716  -1.470  1.00  0.00     0.029 A 
HETATM   18  C   UNL     1      39.051 -14.116  -2.672  1.00  0.00     0.002 A 
HETATM   19  C   UNL     1      38.728 -12.763  -2.709  1.00  0.00     0.000 A 
HETATM   20  C   UNL     1      38.784 -12.008  -1.540  1.00  0.00     0.002 A 
HETATM   21  C   UNL     1      39.164 -12.611  -0.337  1.00  0.00     0.029 A 
ENDBRANCH  13  16
ENDBRANCH  10  12
BRANCH   1  22
HETATM   22  C   UNL     1      41.476 -12.663   4.190  1.00  0.00     0.083 A 
HETATM   23  O   UNL     1      42.696 -12.809   4.788  1.00  0.00    -0.317 OA
HETATM   24  C   UNL     1      43.229 -11.564   4.924  1.00  0.00     0.049 A 
HETATM   25  C   UNL     1      44.527 -11.473   5.622  1.00  0.00     0.076 C 
HETATM   26  C   UNL     1      42.383 -10.625   4.374  1.00  0.00     0.035 A 
HETATM   27  C   UNL     1      41.256 -11.332   3.895  1.00  0.00     0.038 A 
ENDBRANCH   1  22
TORSDOF 3
ENDMDL
MODEL 8
REMARK VINA RESULT:      -7.2      2.886      5.284
REMARK  3 active torsions:
REMARK  status: ('A' for Active; 'I' for Inactive)
REMARK    1  A    between atoms: C_4  and  C_5 
REMARK    2  A    between atoms: C_14  and  C_15 
REMARK       I    between atoms: C_15  and  N_16 
REMARK    3  A    between atoms: N_16  and  C_17 
ROOT
HETATM    1  C   UNL     1      43.489 -12.177   5.835  1.00  0.00     0.222 C 
HETATM    2  N   UNL     1      43.734 -11.453   7.079  1.00  0.00    -0.090 N 
HETATM    3  C   UNL     1      43.049 -10.341   7.477  1.00  0.00     0.735 A 
HETATM    4  N   UNL     1      43.552  -9.936   8.617  1.00  0.00     0.030 NA
HETATM    5  N   UNL     1      44.594 -10.802   8.895  1.00  0.00     0.033 NA
HETATM    6  N   UNL     1      44.732 -11.715   7.939  1.00  0.00     0.012 NA
HETATM    7  N   UNL     1      42.088  -9.835   6.676  1.00  0.00    -0.191 N 
HETATM    8  C   UNL     1      41.869 -10.296   5.380  1.00  0.00     0.037 C 
HETATM    9  C   UNL     1      40.982  -9.423   4.526  1.00  0.00     0.070 C 
HETATM   10  C   UNL     1      42.504 -11.416   4.949  1.00  0.00     0.064 C 
HETATM   11  H   UNL     1      41.658  -8.952   6.941  1.00  0.00     0.184 HD
ENDROOT
BRANCH  10  12
HETATM   12  C   UNL     1      42.429 -11.954   3.563  1.00  0.00     0.256 C 
HETATM   13  N   UNL     1      41.314 -12.723   3.318  1.00  0.00    -0.323 N 
HETATM   14  H   UNL     1      40.695 -12.901   4.099  1.00  0.00     0.169 HD
HETATM   15  O   UNL     1      43.351 -11.709   2.795  1.00  0.00    -0.267 OA
BRANCH  13  16
HETATM   16  C   UNL     1      40.901 -13.252   2.076  1.00  0.00     0.035 A 
HETATM   17  C   UNL     1      40.669 -12.480   0.937  1.00  0.00     0.029 A 
HETATM   18  C   UNL     1      40.225 -13.077  -0.249  1.00  0.00     0.002 A 
HETATM   19  C   UNL     1      40.003 -14.450  -0.302  1.00  0.00     0.000 A 
HETATM   20  C   UNL     1      40.233 -15.231   0.827  1.00  0.00     0.002 A 
HETATM   21  C   UNL     1      40.686 -14.635   2.008  1.00  0.00     0.029 A 
ENDBRANCH  13  16
ENDBRANCH  10  12
BRANCH   1  22
HETATM   22  C   UNL     1      43.058 -13.576   6.162  1.00  0.00     0.083 A 
HETATM   23  O   UNL     1      41.717 -13.838   6.144  1.00  0.00    -0.317 OA
HETATM   24  C   UNL     1      41.554 -15.133   6.529  1.00  0.00     0.049 A 
HETATM   25  C   UNL     1      40.164 -15.615   6.656  1.00  0.00     0.076 C 
HETATM   26  C   UNL     1      42.782 -15.719   6.747  1.00  0.00     0.035 A 
HETATM   27  C   UNL     1      43.753 -14.720   6.504  1.00  0.00     0.038 A 
ENDBRANCH   1  22
TORSDOF 3
ENDMDL
MODEL 9
REMARK VINA RESULT:      -7.2     15.296     17.145
REMARK  3 active torsions:
REMARK  status: ('A' for Active; 'I' for Inactive)
REMARK    1  A    between atoms: C_4  and  C_5 
REMARK    2  A    between atoms: C_14  and  C_15 
REMARK       I    between atoms: C_15  and  N_16 
REMARK    3  A    between atoms: N_16  and  C_17 
ROOT
HETATM    1  C   UNL     1      45.747 -30.031  -0.416  1.00  0.00     0.222 C 
HETATM    2  N   UNL     1      44.557 -30.171   0.418  1.00  0.00    -0.090 N 
HETATM    3  C   UNL     1      44.387 -29.571   1.633  1.00  0.00     0.735 A 
HETATM    4  N   UNL     1      43.226 -29.941   2.114  1.00  0.00     0.030 NA
HETATM    5  N   UNL     1      42.699 -30.819   1.184  1.00  0.00     0.033 NA
HETATM    6  N   UNL     1      43.525 -30.990   0.157  1.00  0.00     0.012 NA
HETATM    7  N   UNL     1      45.380 -28.808   2.138  1.00  0.00    -0.191 N 
HETATM    8  C   UNL     1      46.642 -28.733   1.555  1.00  0.00     0.037 C 
HETATM    9  C   UNL     1      47.710 -28.095   2.409  1.00  0.00     0.070 C 
HETATM   10  C   UNL     1      46.852 -29.288   0.333  1.00  0.00     0.064 C 
HETATM   11  H   UNL     1      45.276 -28.452   3.085  1.00  0.00     0.184 HD
ENDROOT
BRANCH  10  12
HETATM   12  C   UNL     1      48.172 -29.358  -0.352  1.00  0.00     0.256 C 
HETATM   13  N   UNL     1      48.923 -30.460  -0.013  1.00  0.00    -0.323 N 
HETATM   14  H   UNL     1      48.549 -31.074   0.699  1.00  0.00     0.169 HD
HETATM   15  O   UNL     1      48.484 -28.442  -1.102  1.00  0.00    -0.267 OA
BRANCH  13  16
HETATM   16  C   UNL     1      50.145 -30.867  -0.592  1.00  0.00     0.035 A 
HETATM   17  C   UNL     1      50.566 -30.497  -1.870  1.00  0.00     0.029 A 
HETATM   18  C   UNL     1      51.776 -30.974  -2.386  1.00  0.00     0.002 A 
HETATM   19  C   UNL     1      52.572 -31.830  -1.631  1.00  0.00     0.000 A 
HETATM   20  C   UNL     1      52.165 -32.205  -0.354  1.00  0.00     0.002 A 
HETATM   21  C   UNL     1      50.960 -31.720   0.165  1.00  0.00     0.029 A 
ENDBRANCH  13  16
ENDBRANCH  10  12
BRANCH   1  22
HETATM   22  C   UNL     1      45.358 -29.392  -1.717  1.00  0.00     0.083 A 
HETATM   23  O   UNL     1      45.156 -30.221  -2.785  1.00  0.00    -0.317 OA
HETATM   24  C   UNL     1      44.878 -29.432  -3.859  1.00  0.00     0.049 A 
HETATM   25  C   UNL     1      44.697 -30.119  -5.154  1.00  0.00     0.076 C 
HETATM   26  C   UNL     1      44.852 -28.108  -3.480  1.00  0.00     0.035 A 
HETATM   27  C   UNL     1      45.154 -28.080  -2.098  1.00  0.00     0.038 A 
ENDBRANCH   1  22
TORSDOF 3
ENDMDL
MODEL 10
REMARK VINA RESULT:      -7.2      3.798      6.975
REMARK  3 active torsions:
REMARK  status: ('A' for Active; 'I' for Inactive)
REMARK    1  A    between atoms: C_4  and  C_5 
REMARK    2  A    between atoms: C_14  and  C_15 
REMARK       I    between atoms: C_15  and  N_16 
REMARK    3  A    between atoms: N_16  and  C_17 
ROOT
HETATM    1  C   UNL     1      39.723 -13.316   0.159  1.00  0.00     0.222 C 
HETATM    2  N   UNL     1      39.805 -13.629  -1.264  1.00  0.00    -0.090 N 
HETATM    3  C   UNL     1      40.485 -12.885  -2.185  1.00  0.00     0.735 A 
HETATM    4  N   UNL     1      40.316 -13.434  -3.362  1.00  0.00     0.030 NA
HETATM    5  N   UNL     1      39.479 -14.515  -3.154  1.00  0.00     0.033 NA
HETATM    6  N   UNL     1      39.135 -14.621  -1.874  1.00  0.00     0.012 NA
HETATM    7  N   UNL     1      41.118 -11.761  -1.787  1.00  0.00    -0.191 N 
HETATM    8  C   UNL     1      40.975 -11.228  -0.509  1.00  0.00     0.037 C 
HETATM    9  C   UNL     1      41.492  -9.822  -0.334  1.00  0.00     0.070 C 
HETATM   10  C   UNL     1      40.333 -11.945   0.449  1.00  0.00     0.064 C 
HETATM   11  H   UNL     1      41.535 -11.168  -2.501  1.00  0.00     0.184 HD
ENDROOT
BRANCH  10  12
HETATM   12  C   UNL     1      40.033 -11.451   1.821  1.00  0.00     0.256 C 
HETATM   13  N   UNL     1      40.995 -11.761   2.753  1.00  0.00    -0.323 N 
HETATM   14  H   UNL     1      41.769 -12.336   2.446  1.00  0.00     0.169 HD
HETATM   15  O   UNL     1      38.974 -10.864   2.007  1.00  0.00    -0.267 OA
BRANCH  13  16
HETATM   16  C   UNL     1      41.057 -11.318   4.093  1.00  0.00     0.035 A 
HETATM   17  C   UNL     1      40.211 -11.771   5.106  1.00  0.00     0.029 A 
HETATM   18  C   UNL     1      40.312 -11.254   6.402  1.00  0.00     0.002 A 
HETATM   19  C   UNL     1      41.257 -10.274   6.695  1.00  0.00     0.000 A 
HETATM   20  C   UNL     1      42.109  -9.816   5.693  1.00  0.00     0.002 A 
HETATM   21  C   UNL     1      42.013 -10.340   4.401  1.00  0.00     0.029 A 
ENDBRANCH  13  16
ENDBRANCH  10  12
BRANCH   1  22
HETATM   22  C   UNL     1      40.344 -14.436   0.941  1.00  0.00     0.083 A 
HETATM   23  O   UNL     1      41.709 -14.488   0.982  1.00  0.00    -0.317 OA
HETATM   24  C   UNL     1      42.048 -15.605   1.681  1.00  0.00     0.049 A 
HETATM   25  C   UNL     1      43.490 -15.906   1.788  1.00  0.00     0.076 C 
HETATM   26  C   UNL     1      40.913 -16.245   2.131  1.00  0.00     0.035 A 
HETATM   27  C   UNL     1      39.814 -15.489   1.661  1.00  0.00     0.038 A 
ENDBRANCH   1  22
TORSDOF 3
ENDMDL
