MODEL 1
REMARK VINA RESULT:      -9.1      0.000      0.000
REMARK  7 active torsions:
REMARK  status: ('A' for Active; 'I' for Inactive)
REMARK    1  A    between atoms: C_7  and  C_8 
REMARK       I    between atoms: C_8  and  N_9 
REMARK    2  A    between atoms: N_9  and  C_10 
REMARK    3  A    between atoms: C_10  and  C_11 
REMARK    4  A    between atoms: C_11  and  O_12 
REMARK    5  A    between atoms: C_11  and  C_13 
REMARK    6  A    between atoms: C_15  and  O_16 
REMARK    7  A    between atoms: O_16  and  C_17 
ROOT
HETATM    1  C   UNL     1      43.207 -12.886   6.566  1.00  0.00     0.253 C 
HETATM    2  N   UNL     1      43.160 -13.938   7.448  1.00  0.00    -0.354 N 
HETATM    3  O   UNL     1      42.760 -12.945   5.427  1.00  0.00    -0.268 OA
HETATM    4  H   UNL     1      43.647 -13.896   8.333  1.00  0.00     0.162 HD
ENDROOT
BRANCH   2   5
HETATM    5  C   UNL     1      42.483 -15.182   7.098  1.00  0.00     0.159 C 
BRANCH   5   6
HETATM    6  C   UNL     1      43.457 -16.298   6.671  1.00  0.00     0.169 C 
BRANCH   6   7
HETATM    7  O   UNL     1      43.323 -17.409   7.568  1.00  0.00    -0.389 OA
HETATM    8  H   UNL     1      42.610 -17.955   7.197  1.00  0.00     0.210 HD
ENDBRANCH   6   7
BRANCH   6   9
HETATM    9  C   UNL     1      43.186 -16.747   5.250  1.00  0.00    -0.025 A 
HETATM   10  C   UNL     1      43.912 -17.794   4.655  1.00  0.00     0.046 A 
HETATM   11  C   UNL     1      43.633 -18.204   3.350  1.00  0.00     0.075 A 
HETATM   12  C   UNL     1      42.595 -17.591   2.646  1.00  0.00     0.037 A 
HETATM   13  C   UNL     1      41.860 -16.557   3.224  1.00  0.00     0.003 A 
HETATM   14  C   UNL     1      42.156 -16.135   4.519  1.00  0.00     0.010 A 
BRANCH  11  15
HETATM   15  O   UNL     1      44.277 -19.201   2.670  1.00  0.00    -0.290 OA
BRANCH  15  16
HETATM   16  C   UNL     1      43.525 -20.381   2.442  1.00  0.00     0.505 C 
HETATM   17  F   UNL     1      43.594 -20.703   1.125  1.00  0.00    -0.184 F 
HETATM   18  F   UNL     1      44.141 -21.387   3.116  1.00  0.00    -0.184 F 
ENDBRANCH  15  16
ENDBRANCH  11  15
ENDBRANCH   6   9
ENDBRANCH   5   6
ENDBRANCH   2   5
BRANCH   1  19
HETATM   19  C   UNL     1      43.913 -11.666   7.061  1.00  0.00     0.048 A 
HETATM   20  C   UNL     1      45.376 -11.628   7.058  1.00  0.00     0.022 A 
HETATM   21  C   UNL     1      46.058 -10.538   7.461  1.00  0.00     0.054 A 
HETATM   22  C   UNL     1      45.344  -9.387   7.889  1.00  0.00     0.157 A 
HETATM   23  N   UNL     1      43.959  -9.439   7.855  1.00  0.00    -0.291 N 
HETATM   24  N   UNL     1      45.731  -8.212   8.330  1.00  0.00    -0.130 NA
HETATM   25  C   UNL     1      43.546  -8.198   8.292  1.00  0.00     0.130 A 
HETATM   26  C   UNL     1      43.240 -10.562   7.444  1.00  0.00     0.117 A 
HETATM   27  C   UNL     1      42.133  -7.780   8.419  1.00  0.00     0.094 C 
HETATM   28  N   UNL     1      44.603  -7.467   8.584  1.00  0.00    -0.135 NA
ENDBRANCH   1  19
TORSDOF 7
ENDMDL
MODEL 2
REMARK VINA RESULT:      -8.6      5.055      9.666
REMARK  7 active torsions:
REMARK  status: ('A' for Active; 'I' for Inactive)
REMARK    1  A    between atoms: C_7  and  C_8 
REMARK       I    between atoms: C_8  and  N_9 
REMARK    2  A    between atoms: N_9  and  C_10 
REMARK    3  A    between atoms: C_10  and  C_11 
REMARK    4  A    between atoms: C_11  and  O_12 
REMARK    5  A    between atoms: C_11  and  C_13 
REMARK    6  A    between atoms: C_15  and  O_16 
REMARK    7  A    between atoms: O_16  and  C_17 
ROOT
HETATM    1  C   UNL     1      43.381 -15.507   5.271  1.00  0.00     0.253 C 
HETATM    2  N   UNL     1      42.756 -14.385   4.785  1.00  0.00    -0.354 N 
HETATM    3  O   UNL     1      43.970 -15.536   6.345  1.00  0.00    -0.268 OA
HETATM    4  H   UNL     1      42.389 -14.361   3.844  1.00  0.00     0.162 HD
ENDROOT
BRANCH   2   5
HETATM    5  C   UNL     1      42.683 -13.162   5.579  1.00  0.00     0.159 C 
BRANCH   5   6
HETATM    6  C   UNL     1      43.741 -12.117   5.173  1.00  0.00     0.169 C 
BRANCH   6   7
HETATM    7  O   UNL     1      43.127 -11.125   4.340  1.00  0.00    -0.389 OA
HETATM    8  H   UNL     1      43.097 -11.517   3.451  1.00  0.00     0.210 HD
ENDBRANCH   6   7
BRANCH   6   9
HETATM    9  C   UNL     1      44.356 -11.460   6.391  1.00  0.00    -0.025 A 
HETATM   10  C   UNL     1      43.578 -11.084   7.500  1.00  0.00     0.046 A 
HETATM   11  C   UNL     1      44.169 -10.496   8.621  1.00  0.00     0.075 A 
HETATM   12  C   UNL     1      45.553 -10.317   8.651  1.00  0.00     0.037 A 
HETATM   13  C   UNL     1      46.340 -10.692   7.563  1.00  0.00     0.003 A 
HETATM   14  C   UNL     1      45.744 -11.258   6.437  1.00  0.00     0.010 A 
BRANCH  11  15
HETATM   15  O   UNL     1      43.512 -10.085   9.747  1.00  0.00    -0.290 OA
BRANCH  15  16
HETATM   16  C   UNL     1      44.222 -10.229  10.966  1.00  0.00     0.505 C 
HETATM   17  F   UNL     1      44.187  -9.053  11.642  1.00  0.00    -0.184 F 
HETATM   18  F   UNL     1      43.543 -11.128  11.724  1.00  0.00    -0.184 F 
ENDBRANCH  15  16
ENDBRANCH  11  15
ENDBRANCH   6   9
ENDBRANCH   5   6
ENDBRANCH   2   5
BRANCH   1  19
HETATM   19  C   UNL     1      43.364 -16.694   4.364  1.00  0.00     0.048 A 
HETATM   20  C   UNL     1      43.084 -16.510   2.939  1.00  0.00     0.022 A 
HETATM   21  C   UNL     1      43.092 -17.544   2.076  1.00  0.00     0.054 A 
HETATM   22  C   UNL     1      43.392 -18.848   2.551  1.00  0.00     0.157 A 
HETATM   23  N   UNL     1      43.682 -18.991   3.900  1.00  0.00    -0.291 N 
HETATM   24  N   UNL     1      43.466 -20.018   1.958  1.00  0.00    -0.130 NA
HETATM   25  C   UNL     1      43.953 -20.333   4.065  1.00  0.00     0.130 A 
HETATM   26  C   UNL     1      43.673 -17.930   4.806  1.00  0.00     0.117 A 
HETATM   27  C   UNL     1      44.324 -20.962   5.351  1.00  0.00     0.094 C 
HETATM   28  N   UNL     1      43.817 -20.948   2.908  1.00  0.00    -0.135 NA
ENDBRANCH   1  19
TORSDOF 7
ENDMDL
MODEL 3
REMARK VINA RESULT:      -8.6      1.919      2.444
REMARK  7 active torsions:
REMARK  status: ('A' for Active; 'I' for Inactive)
REMARK    1  A    between atoms: C_7  and  C_8 
REMARK       I    between atoms: C_8  and  N_9 
REMARK    2  A    between atoms: N_9  and  C_10 
REMARK    3  A    between atoms: C_10  and  C_11 
REMARK    4  A    between atoms: C_11  and  O_12 
REMARK    5  A    between atoms: C_11  and  C_13 
REMARK    6  A    between atoms: C_15  and  O_16 
REMARK    7  A    between atoms: O_16  and  C_17 
ROOT
HETATM    1  C   UNL     1      43.367 -12.970   6.473  1.00  0.00     0.253 C 
HETATM    2  N   UNL     1      43.168 -13.969   7.393  1.00  0.00    -0.354 N 
HETATM    3  O   UNL     1      43.139 -13.103   5.276  1.00  0.00    -0.268 OA
HETATM    4  H   UNL     1      43.484 -13.867   8.348  1.00  0.00     0.162 HD
ENDROOT
BRANCH   2   5
HETATM    5  C   UNL     1      42.578 -15.245   7.001  1.00  0.00     0.159 C 
BRANCH   5   6
HETATM    6  C   UNL     1      43.630 -16.342   6.744  1.00  0.00     0.169 C 
BRANCH   6   7
HETATM    7  O   UNL     1      43.503 -17.360   7.745  1.00  0.00    -0.389 OA
HETATM    8  H   UNL     1      44.320 -17.884   7.685  1.00  0.00     0.210 HD
ENDBRANCH   6   7
BRANCH   6   9
HETATM    9  C   UNL     1      43.463 -16.948   5.366  1.00  0.00    -0.025 A 
HETATM   10  C   UNL     1      42.582 -16.397   4.418  1.00  0.00     0.046 A 
HETATM   11  C   UNL     1      42.457 -16.962   3.147  1.00  0.00     0.075 A 
HETATM   12  C   UNL     1      43.246 -18.062   2.805  1.00  0.00     0.037 A 
HETATM   13  C   UNL     1      44.130 -18.615   3.731  1.00  0.00     0.003 A 
HETATM   14  C   UNL     1      44.236 -18.063   5.006  1.00  0.00     0.010 A 
BRANCH  11  15
HETATM   15  O   UNL     1      41.631 -16.518   2.153  1.00  0.00    -0.290 OA
BRANCH  15  16
HETATM   16  C   UNL     1      41.939 -15.244   1.613  1.00  0.00     0.505 C 
HETATM   17  F   UNL     1      43.268 -15.186   1.344  1.00  0.00    -0.184 F 
HETATM   18  F   UNL     1      41.301 -15.148   0.418  1.00  0.00    -0.184 F 
ENDBRANCH  15  16
ENDBRANCH  11  15
ENDBRANCH   6   9
ENDBRANCH   5   6
ENDBRANCH   2   5
BRANCH   1  19
HETATM   19  C   UNL     1      43.960 -11.710   7.014  1.00  0.00     0.048 A 
HETATM   20  C   UNL     1      45.415 -11.581   7.114  1.00  0.00     0.022 A 
HETATM   21  C   UNL     1      45.997 -10.452   7.562  1.00  0.00     0.054 A 
HETATM   22  C   UNL     1      45.185  -9.349   7.937  1.00  0.00     0.157 A 
HETATM   23  N   UNL     1      43.812  -9.486   7.805  1.00  0.00    -0.291 N 
HETATM   24  N   UNL     1      45.466  -8.153   8.402  1.00  0.00    -0.130 NA
HETATM   25  C   UNL     1      43.293  -8.274   8.209  1.00  0.00     0.130 A 
HETATM   26  C   UNL     1      43.194 -10.650   7.347  1.00  0.00     0.117 A 
HETATM   27  C   UNL     1      41.851  -7.945   8.234  1.00  0.00     0.094 C 
HETATM   28  N   UNL     1      44.279  -7.480   8.574  1.00  0.00    -0.135 NA
ENDBRANCH   1  19
TORSDOF 7
ENDMDL
MODEL 4
REMARK VINA RESULT:      -8.5      1.585      1.965
REMARK  7 active torsions:
REMARK  status: ('A' for Active; 'I' for Inactive)
REMARK    1  A    between atoms: C_7  and  C_8 
REMARK       I    between atoms: C_8  and  N_9 
REMARK    2  A    between atoms: N_9  and  C_10 
REMARK    3  A    between atoms: C_10  and  C_11 
REMARK    4  A    between atoms: C_11  and  O_12 
REMARK    5  A    between atoms: C_11  and  C_13 
REMARK    6  A    between atoms: C_15  and  O_16 
REMARK    7  A    between atoms: O_16  and  C_17 
ROOT
HETATM    1  C   UNL     1      42.237 -12.349   5.916  1.00  0.00     0.253 C 
HETATM    2  N   UNL     1      42.680 -13.359   5.097  1.00  0.00    -0.354 N 
HETATM    3  O   UNL     1      41.051 -12.103   6.099  1.00  0.00    -0.268 OA
HETATM    4  H   UNL     1      43.661 -13.453   4.872  1.00  0.00     0.162 HD
ENDROOT
BRANCH   2   5
HETATM    5  C   UNL     1      41.739 -14.271   4.454  1.00  0.00     0.159 C 
BRANCH   5   6
HETATM    6  C   UNL     1      41.659 -15.643   5.153  1.00  0.00     0.169 C 
BRANCH   6   7
HETATM    7  O   UNL     1      40.283 -16.022   5.288  1.00  0.00    -0.389 OA
HETATM    8  H   UNL     1      40.299 -16.949   5.584  1.00  0.00     0.210 HD
ENDBRANCH   6   7
BRANCH   6   9
HETATM    9  C   UNL     1      42.412 -16.700   4.371  1.00  0.00    -0.025 A 
HETATM   10  C   UNL     1      43.282 -17.606   5.003  1.00  0.00     0.046 A 
HETATM   11  C   UNL     1      43.952 -18.585   4.265  1.00  0.00     0.075 A 
HETATM   12  C   UNL     1      43.721 -18.686   2.892  1.00  0.00     0.037 A 
HETATM   13  C   UNL     1      42.854 -17.801   2.252  1.00  0.00     0.003 A 
HETATM   14  C   UNL     1      42.205 -16.811   2.987  1.00  0.00     0.010 A 
BRANCH  11  15
HETATM   15  O   UNL     1      44.824 -19.508   4.769  1.00  0.00    -0.290 OA
BRANCH  15  16
HETATM   16  C   UNL     1      44.243 -20.698   5.275  1.00  0.00     0.505 C 
HETATM   17  F   UNL     1      43.238 -20.374   6.128  1.00  0.00    -0.184 F 
HETATM   18  F   UNL     1      43.665 -21.341   4.228  1.00  0.00    -0.184 F 
ENDBRANCH  15  16
ENDBRANCH  11  15
ENDBRANCH   6   9
ENDBRANCH   5   6
ENDBRANCH   2   5
BRANCH   1  19
HETATM   19  C   UNL     1      43.307 -11.503   6.525  1.00  0.00     0.048 A 
HETATM   20  C   UNL     1      44.709 -11.902   6.390  1.00  0.00     0.022 A 
HETATM   21  C   UNL     1      45.711 -11.154   6.892  1.00  0.00     0.054 A 
HETATM   22  C   UNL     1      45.407  -9.938   7.559  1.00  0.00     0.157 A 
HETATM   23  N   UNL     1      44.074  -9.568   7.648  1.00  0.00    -0.291 N 
HETATM   24  N   UNL     1      46.157  -9.029   8.139  1.00  0.00    -0.130 NA
HETATM   25  C   UNL     1      44.085  -8.358   8.310  1.00  0.00     0.130 A 
HETATM   26  C   UNL     1      43.026 -10.334   7.138  1.00  0.00     0.117 A 
HETATM   27  C   UNL     1      42.877  -7.567   8.632  1.00  0.00     0.094 C 
HETATM   28  N   UNL     1      45.327  -8.039   8.611  1.00  0.00    -0.135 NA
ENDBRANCH   1  19
TORSDOF 7
ENDMDL
MODEL 5
REMARK VINA RESULT:      -8.2      4.947      9.328
REMARK  7 active torsions:
REMARK  status: ('A' for Active; 'I' for Inactive)
REMARK    1  A    between atoms: C_7  and  C_8 
REMARK       I    between atoms: C_8  and  N_9 
REMARK    2  A    between atoms: N_9  and  C_10 
REMARK    3  A    between atoms: C_10  and  C_11 
REMARK    4  A    between atoms: C_11  and  O_12 
REMARK    5  A    between atoms: C_11  and  C_13 
REMARK    6  A    between atoms: C_15  and  O_16 
REMARK    7  A    between atoms: O_16  and  C_17 
ROOT
HETATM    1  C   UNL     1      43.151 -15.280   3.610  1.00  0.00     0.253 C 
HETATM    2  N   UNL     1      42.819 -14.388   4.599  1.00  0.00    -0.354 N 
HETATM    3  O   UNL     1      43.158 -14.991   2.419  1.00  0.00    -0.268 OA
HETATM    4  H   UNL     1      42.703 -14.692   5.556  1.00  0.00     0.162 HD
ENDROOT
BRANCH   2   5
HETATM    5  C   UNL     1      42.533 -12.991   4.286  1.00  0.00     0.159 C 
BRANCH   5   6
HETATM    6  C   UNL     1      42.264 -12.137   5.541  1.00  0.00     0.169 C 
BRANCH   6   7
HETATM    7  O   UNL     1      41.474 -12.896   6.467  1.00  0.00    -0.389 OA
HETATM    8  H   UNL     1      42.108 -13.453   6.949  1.00  0.00     0.210 HD
ENDBRANCH   6   7
BRANCH   6   9
HETATM    9  C   UNL     1      43.558 -11.706   6.199  1.00  0.00    -0.025 A 
HETATM   10  C   UNL     1      43.657 -11.534   7.591  1.00  0.00     0.046 A 
HETATM   11  C   UNL     1      44.866 -11.155   8.179  1.00  0.00     0.075 A 
HETATM   12  C   UNL     1      45.995 -10.983   7.376  1.00  0.00     0.037 A 
HETATM   13  C   UNL     1      45.915 -11.158   5.994  1.00  0.00     0.003 A 
HETATM   14  C   UNL     1      44.702 -11.514   5.409  1.00  0.00     0.010 A 
BRANCH  11  15
HETATM   15  O   UNL     1      45.076 -10.951   9.514  1.00  0.00    -0.290 OA
BRANCH  15  16
HETATM   16  C   UNL     1      44.180 -10.058  10.154  1.00  0.00     0.505 C 
HETATM   17  F   UNL     1      43.385 -10.759  11.002  1.00  0.00    -0.184 F 
HETATM   18  F   UNL     1      44.925  -9.226  10.926  1.00  0.00    -0.184 F 
ENDBRANCH  15  16
ENDBRANCH  11  15
ENDBRANCH   6   9
ENDBRANCH   5   6
ENDBRANCH   2   5
BRANCH   1  19
HETATM   19  C   UNL     1      43.439 -16.671   4.072  1.00  0.00     0.048 A 
HETATM   20  C   UNL     1      43.628 -16.934   5.499  1.00  0.00     0.022 A 
HETATM   21  C   UNL     1      43.855 -18.177   5.968  1.00  0.00     0.054 A 
HETATM   22  C   UNL     1      43.899 -19.267   5.060  1.00  0.00     0.157 A 
HETATM   23  N   UNL     1      43.688 -18.996   3.716  1.00  0.00    -0.291 N 
HETATM   24  N   UNL     1      44.102 -20.555   5.223  1.00  0.00    -0.130 NA
HETATM   25  C   UNL     1      43.761 -20.223   3.091  1.00  0.00     0.130 A 
HETATM   26  C   UNL     1      43.456 -17.714   3.216  1.00  0.00     0.117 A 
HETATM   27  C   UNL     1      43.590 -20.434   1.636  1.00  0.00     0.094 C 
HETATM   28  N   UNL     1      44.016 -21.153   3.988  1.00  0.00    -0.135 NA
ENDBRANCH   1  19
TORSDOF 7
ENDMDL
MODEL 6
REMARK VINA RESULT:      -8.2      4.931      8.133
REMARK  7 active torsions:
REMARK  status: ('A' for Active; 'I' for Inactive)
REMARK    1  A    between atoms: C_7  and  C_8 
REMARK       I    between atoms: C_8  and  N_9 
REMARK    2  A    between atoms: N_9  and  C_10 
REMARK    3  A    between atoms: C_10  and  C_11 
REMARK    4  A    between atoms: C_11  and  O_12 
REMARK    5  A    between atoms: C_11  and  C_13 
REMARK    6  A    between atoms: C_15  and  O_16 
REMARK    7  A    between atoms: O_16  and  C_17 
ROOT
HETATM    1  C   UNL     1      42.946 -15.110   2.149  1.00  0.00     0.253 C 
HETATM    2  N   UNL     1      41.619 -14.984   1.817  1.00  0.00    -0.354 N 
HETATM    3  O   UNL     1      43.814 -14.343   1.750  1.00  0.00    -0.268 OA
HETATM    4  H   UNL     1      40.952 -15.703   2.061  1.00  0.00     0.162 HD
ENDROOT
BRANCH   2   5
HETATM    5  C   UNL     1      41.147 -13.853   1.024  1.00  0.00     0.159 C 
BRANCH   5   6
HETATM    6  C   UNL     1      40.360 -12.822   1.857  1.00  0.00     0.169 C 
BRANCH   6   7
HETATM    7  O   UNL     1      38.956 -13.084   1.725  1.00  0.00    -0.389 OA
HETATM    8  H   UNL     1      38.894 -13.998   1.400  1.00  0.00     0.210 HD
ENDBRANCH   6   7
BRANCH   6   9
HETATM    9  C   UNL     1      40.760 -12.875   3.316  1.00  0.00    -0.025 A 
HETATM   10  C   UNL     1      40.061 -13.667   4.245  1.00  0.00     0.046 A 
HETATM   11  C   UNL     1      40.459 -13.716   5.583  1.00  0.00     0.075 A 
HETATM   12  C   UNL     1      41.587 -13.001   5.989  1.00  0.00     0.037 A 
HETATM   13  C   UNL     1      42.296 -12.219   5.079  1.00  0.00     0.003 A 
HETATM   14  C   UNL     1      41.883 -12.154   3.750  1.00  0.00     0.010 A 
BRANCH  11  15
HETATM   15  O   UNL     1      39.853 -14.441   6.571  1.00  0.00    -0.290 OA
BRANCH  15  16
HETATM   16  C   UNL     1      40.189 -15.817   6.627  1.00  0.00     0.505 C 
HETATM   17  F   UNL     1      40.340 -16.288   5.363  1.00  0.00    -0.184 F 
HETATM   18  F   UNL     1      41.408 -15.909   7.218  1.00  0.00    -0.184 F 
ENDBRANCH  15  16
ENDBRANCH  11  15
ENDBRANCH   6   9
ENDBRANCH   5   6
ENDBRANCH   2   5
BRANCH   1  19
HETATM   19  C   UNL     1      43.288 -16.302   2.981  1.00  0.00     0.048 A 
HETATM   20  C   UNL     1      43.479 -16.146   4.424  1.00  0.00     0.022 A 
HETATM   21  C   UNL     1      43.754 -17.196   5.221  1.00  0.00     0.054 A 
HETATM   22  C   UNL     1      43.849 -18.495   4.655  1.00  0.00     0.157 A 
HETATM   23  N   UNL     1      43.635 -18.621   3.291  1.00  0.00    -0.291 N 
HETATM   24  N   UNL     1      44.104 -19.676   5.172  1.00  0.00    -0.130 NA
HETATM   25  C   UNL     1      43.763 -19.970   3.034  1.00  0.00     0.130 A 
HETATM   26  C   UNL     1      43.354 -17.542   2.453  1.00  0.00     0.117 A 
HETATM   27  C   UNL     1      43.611 -20.588   1.698  1.00  0.00     0.094 C 
HETATM   28  N   UNL     1      44.052 -20.600   4.154  1.00  0.00    -0.135 NA
ENDBRANCH   1  19
TORSDOF 7
ENDMDL
MODEL 7
REMARK VINA RESULT:      -8.1      4.719      9.006
REMARK  7 active torsions:
REMARK  status: ('A' for Active; 'I' for Inactive)
REMARK    1  A    between atoms: C_7  and  C_8 
REMARK       I    between atoms: C_8  and  N_9 
REMARK    2  A    between atoms: N_9  and  C_10 
REMARK    3  A    between atoms: C_10  and  C_11 
REMARK    4  A    between atoms: C_11  and  O_12 
REMARK    5  A    between atoms: C_11  and  C_13 
REMARK    6  A    between atoms: C_15  and  O_16 
REMARK    7  A    between atoms: O_16  and  C_17 
ROOT
HETATM    1  C   UNL     1      43.132 -15.044   2.861  1.00  0.00     0.253 C 
HETATM    2  N   UNL     1      42.305 -14.218   3.583  1.00  0.00    -0.354 N 
HETATM    3  O   UNL     1      43.539 -14.772   1.737  1.00  0.00    -0.268 OA
HETATM    4  H   UNL     1      41.890 -14.528   4.451  1.00  0.00     0.162 HD
ENDROOT
BRANCH   2   5
HETATM    5  C   UNL     1      41.928 -12.903   3.075  1.00  0.00     0.159 C 
BRANCH   5   6
HETATM    6  C   UNL     1      43.011 -11.832   3.315  1.00  0.00     0.169 C 
BRANCH   6   7
HETATM    7  O   UNL     1      42.809 -10.745   2.402  1.00  0.00    -0.389 OA
HETATM    8  H   UNL     1      42.211 -11.092   1.718  1.00  0.00     0.210 HD
ENDBRANCH   6   7
BRANCH   6   9
HETATM    9  C   UNL     1      42.971 -11.323   4.741  1.00  0.00    -0.025 A 
HETATM   10  C   UNL     1      43.953 -11.684   5.682  1.00  0.00     0.046 A 
HETATM   11  C   UNL     1      43.907 -11.187   6.986  1.00  0.00     0.075 A 
HETATM   12  C   UNL     1      42.896 -10.293   7.344  1.00  0.00     0.037 A 
HETATM   13  C   UNL     1      41.921  -9.919   6.421  1.00  0.00     0.003 A 
HETATM   14  C   UNL     1      41.957 -10.434   5.127  1.00  0.00     0.010 A 
BRANCH  11  15
HETATM   15  O   UNL     1      44.798 -11.475   7.982  1.00  0.00    -0.290 OA
BRANCH  15  16
HETATM   16  C   UNL     1      46.009 -10.739   7.962  1.00  0.00     0.505 C 
HETATM   17  F   UNL     1      46.770 -11.165   6.923  1.00  0.00    -0.184 F 
HETATM   18  F   UNL     1      45.690  -9.445   7.698  1.00  0.00    -0.184 F 
ENDBRANCH  15  16
ENDBRANCH  11  15
ENDBRANCH   6   9
ENDBRANCH   5   6
ENDBRANCH   2   5
BRANCH   1  19
HETATM   19  C   UNL     1      43.454 -16.352   3.507  1.00  0.00     0.048 A 
HETATM   20  C   UNL     1      43.727 -16.400   4.944  1.00  0.00     0.022 A 
HETATM   21  C   UNL     1      43.987 -17.560   5.578  1.00  0.00     0.054 A 
HETATM   22  C   UNL     1      43.987 -18.773   4.841  1.00  0.00     0.157 A 
HETATM   23  N   UNL     1      43.697 -18.704   3.486  1.00  0.00    -0.291 N 
HETATM   24  N   UNL     1      44.206 -20.023   5.181  1.00  0.00    -0.130 NA
HETATM   25  C   UNL     1      43.742 -20.010   3.046  1.00  0.00     0.130 A 
HETATM   26  C   UNL     1      43.429 -17.510   2.816  1.00  0.00     0.117 A 
HETATM   27  C   UNL     1      43.489 -20.435   1.651  1.00  0.00     0.094 C 
HETATM   28  N   UNL     1      44.054 -20.798   4.055  1.00  0.00    -0.135 NA
ENDBRANCH   1  19
TORSDOF 7
ENDMDL
MODEL 8
REMARK VINA RESULT:      -7.9      4.905      7.313
REMARK  7 active torsions:
REMARK  status: ('A' for Active; 'I' for Inactive)
REMARK    1  A    between atoms: C_7  and  C_8 
REMARK       I    between atoms: C_8  and  N_9 
REMARK    2  A    between atoms: N_9  and  C_10 
REMARK    3  A    between atoms: C_10  and  C_11 
REMARK    4  A    between atoms: C_11  and  O_12 
REMARK    5  A    between atoms: C_11  and  C_13 
REMARK    6  A    between atoms: C_15  and  O_16 
REMARK    7  A    between atoms: O_16  and  C_17 
ROOT
HETATM    1  C   UNL     1      40.320 -14.436   2.481  1.00  0.00     0.253 C 
HETATM    2  N   UNL     1      40.832 -13.683   3.510  1.00  0.00    -0.354 N 
HETATM    3  O   UNL     1      39.910 -15.582   2.627  1.00  0.00    -0.268 OA
HETATM    4  H   UNL     1      41.275 -12.792   3.331  1.00  0.00     0.162 HD
ENDROOT
BRANCH   2   5
HETATM    5  C   UNL     1      40.835 -14.186   4.880  1.00  0.00     0.159 C 
BRANCH   5   6
HETATM    6  C   UNL     1      42.248 -14.260   5.491  1.00  0.00     0.169 C 
BRANCH   6   7
HETATM    7  O   UNL     1      42.217 -13.712   6.816  1.00  0.00    -0.389 OA
HETATM    8  H   UNL     1      43.094 -13.314   6.950  1.00  0.00     0.210 HD
ENDBRANCH   6   7
BRANCH   6   9
HETATM    9  C   UNL     1      42.752 -15.688   5.534  1.00  0.00    -0.025 A 
HETATM   10  C   UNL     1      43.188 -16.353   4.374  1.00  0.00     0.046 A 
HETATM   11  C   UNL     1      43.666 -17.663   4.441  1.00  0.00     0.075 A 
HETATM   12  C   UNL     1      43.746 -18.303   5.679  1.00  0.00     0.037 A 
HETATM   13  C   UNL     1      43.325 -17.654   6.840  1.00  0.00     0.003 A 
HETATM   14  C   UNL     1      42.827 -16.354   6.767  1.00  0.00     0.010 A 
BRANCH  11  15
HETATM   15  O   UNL     1      44.107 -18.407   3.382  1.00  0.00    -0.290 OA
BRANCH  15  16
HETATM   16  C   UNL     1      43.135 -18.726   2.400  1.00  0.00     0.505 C 
HETATM   17  F   UNL     1      43.055 -17.706   1.509  1.00  0.00    -0.184 F 
HETATM   18  F   UNL     1      43.597 -19.801   1.711  1.00  0.00    -0.184 F 
ENDBRANCH  15  16
ENDBRANCH  11  15
ENDBRANCH   6   9
ENDBRANCH   5   6
ENDBRANCH   2   5
BRANCH   1  19
HETATM   19  C   UNL     1      40.361 -13.792   1.134  1.00  0.00     0.048 A 
HETATM   20  C   UNL     1      41.065 -12.521   0.962  1.00  0.00     0.022 A 
HETATM   21  C   UNL     1      41.159 -11.919  -0.240  1.00  0.00     0.054 A 
HETATM   22  C   UNL     1      40.573 -12.536  -1.377  1.00  0.00     0.157 A 
HETATM   23  N   UNL     1      39.938 -13.755  -1.192  1.00  0.00    -0.291 N 
HETATM   24  N   UNL     1      40.503 -12.189  -2.642  1.00  0.00    -0.130 NA
HETATM   25  C   UNL     1      39.497 -14.119  -2.447  1.00  0.00     0.130 A 
HETATM   26  C   UNL     1      39.828 -14.387   0.047  1.00  0.00     0.117 A 
HETATM   27  C   UNL     1      38.760 -15.366  -2.749  1.00  0.00     0.094 C 
HETATM   28  N   UNL     1      39.827 -13.182  -3.312  1.00  0.00    -0.135 NA
ENDBRANCH   1  19
TORSDOF 7
ENDMDL
MODEL 9
REMARK VINA RESULT:      -7.9      5.410      8.639
REMARK  7 active torsions:
REMARK  status: ('A' for Active; 'I' for Inactive)
REMARK    1  A    between atoms: C_7  and  C_8 
REMARK       I    between atoms: C_8  and  N_9 
REMARK    2  A    between atoms: N_9  and  C_10 
REMARK    3  A    between atoms: C_10  and  C_11 
REMARK    4  A    between atoms: C_11  and  O_12 
REMARK    5  A    between atoms: C_11  and  C_13 
REMARK    6  A    between atoms: C_15  and  O_16 
REMARK    7  A    between atoms: O_16  and  C_17 
ROOT
HETATM    1  C   UNL     1      43.092 -15.142   3.274  1.00  0.00     0.253 C 
HETATM    2  N   UNL     1      42.247 -14.380   4.042  1.00  0.00    -0.354 N 
HETATM    3  O   UNL     1      43.503 -14.789   2.174  1.00  0.00    -0.268 OA
HETATM    4  H   UNL     1      41.830 -14.754   4.883  1.00  0.00     0.162 HD
ENDROOT
BRANCH   2   5
HETATM    5  C   UNL     1      41.853 -13.039   3.622  1.00  0.00     0.159 C 
BRANCH   5   6
HETATM    6  C   UNL     1      40.367 -12.945   3.223  1.00  0.00     0.169 C 
BRANCH   6   7
HETATM    7  O   UNL     1      39.920 -11.592   3.388  1.00  0.00    -0.389 OA
HETATM    8  H   UNL     1      39.193 -11.637   4.031  1.00  0.00     0.210 HD
ENDBRANCH   6   7
BRANCH   6   9
HETATM    9  C   UNL     1      40.155 -13.388   1.790  1.00  0.00    -0.025 A 
HETATM   10  C   UNL     1      40.185 -12.473   0.722  1.00  0.00     0.046 A 
HETATM   11  C   UNL     1      40.006 -12.906  -0.593  1.00  0.00     0.075 A 
HETATM   12  C   UNL     1      39.835 -14.268  -0.850  1.00  0.00     0.037 A 
HETATM   13  C   UNL     1      39.812 -15.188   0.197  1.00  0.00     0.003 A 
HETATM   14  C   UNL     1      39.968 -14.750   1.511  1.00  0.00     0.010 A 
BRANCH  11  15
HETATM   15  O   UNL     1      40.007 -12.109  -1.704  1.00  0.00    -0.290 OA
BRANCH  15  16
HETATM   16  C   UNL     1      41.282 -11.784  -2.233  1.00  0.00     0.505 C 
HETATM   17  F   UNL     1      41.514 -12.548  -3.330  1.00  0.00    -0.184 F 
HETATM   18  F   UNL     1      41.222 -10.499  -2.666  1.00  0.00    -0.184 F 
ENDBRANCH  15  16
ENDBRANCH  11  15
ENDBRANCH   6   9
ENDBRANCH   5   6
ENDBRANCH   2   5
BRANCH   1  19
HETATM   19  C   UNL     1      43.429 -16.486   3.832  1.00  0.00     0.048 A 
HETATM   20  C   UNL     1      43.697 -16.626   5.264  1.00  0.00     0.022 A 
HETATM   21  C   UNL     1      43.971 -17.823   5.821  1.00  0.00     0.054 A 
HETATM   22  C   UNL     1      43.988 -18.984   5.004  1.00  0.00     0.157 A 
HETATM   23  N   UNL     1      43.702 -18.829   3.656  1.00  0.00    -0.291 N 
HETATM   24  N   UNL     1      44.223 -20.251   5.262  1.00  0.00    -0.130 NA
HETATM   25  C   UNL     1      43.765 -20.102   3.130  1.00  0.00     0.130 A 
HETATM   26  C   UNL     1      43.421 -17.596   3.066  1.00  0.00     0.117 A 
HETATM   27  C   UNL     1      43.523 -20.436   1.710  1.00  0.00     0.094 C 
HETATM   28  N   UNL     1      44.085 -20.951   4.086  1.00  0.00    -0.135 NA
ENDBRANCH   1  19
TORSDOF 7
ENDMDL
MODEL 10
REMARK VINA RESULT:      -7.8      4.733      6.759
REMARK  7 active torsions:
REMARK  status: ('A' for Active; 'I' for Inactive)
REMARK    1  A    between atoms: C_7  and  C_8 
REMARK       I    between atoms: C_8  and  N_9 
REMARK    2  A    between atoms: N_9  and  C_10 
REMARK    3  A    between atoms: C_10  and  C_11 
REMARK    4  A    between atoms: C_11  and  O_12 
REMARK    5  A    between atoms: C_11  and  C_13 
REMARK    6  A    between atoms: C_15  and  O_16 
REMARK    7  A    between atoms: O_16  and  C_17 
ROOT
HETATM    1  C   UNL     1      40.702 -14.977   2.265  1.00  0.00     0.253 C 
HETATM    2  N   UNL     1      40.930 -14.167   3.350  1.00  0.00    -0.354 N 
HETATM    3  O   UNL     1      40.708 -16.201   2.329  1.00  0.00    -0.268 OA
HETATM    4  H   UNL     1      41.041 -13.168   3.238  1.00  0.00     0.162 HD
ENDROOT
BRANCH   2   5
HETATM    5  C   UNL     1      41.107 -14.729   4.685  1.00  0.00     0.159 C 
BRANCH   5   6
HETATM    6  C   UNL     1      42.589 -14.861   5.090  1.00  0.00     0.169 C 
BRANCH   6   7
HETATM    7  O   UNL     1      42.773 -14.289   6.392  1.00  0.00    -0.389 OA
HETATM    8  H   UNL     1      43.635 -14.619   6.699  1.00  0.00     0.210 HD
ENDBRANCH   6   7
BRANCH   6   9
HETATM    9  C   UNL     1      43.029 -16.310   5.095  1.00  0.00    -0.025 A 
HETATM   10  C   UNL     1      43.563 -16.924   3.948  1.00  0.00     0.046 A 
HETATM   11  C   UNL     1      43.979 -18.257   3.980  1.00  0.00     0.075 A 
HETATM   12  C   UNL     1      43.898 -18.971   5.177  1.00  0.00     0.037 A 
HETATM   13  C   UNL     1      43.379 -18.374   6.325  1.00  0.00     0.003 A 
HETATM   14  C   UNL     1      42.944 -17.052   6.283  1.00  0.00     0.010 A 
BRANCH  11  15
HETATM   15  O   UNL     1      44.503 -18.956   2.929  1.00  0.00    -0.290 OA
BRANCH  15  16
HETATM   16  C   UNL     1      43.578 -19.706   2.160  1.00  0.00     0.505 C 
HETATM   17  F   UNL     1      43.346 -20.891   2.778  1.00  0.00    -0.184 F 
HETATM   18  F   UNL     1      42.401 -19.028   2.174  1.00  0.00    -0.184 F 
ENDBRANCH  15  16
ENDBRANCH  11  15
ENDBRANCH   6   9
ENDBRANCH   5   6
ENDBRANCH   2   5
BRANCH   1  19
HETATM   19  C   UNL     1      40.517 -14.269   0.963  1.00  0.00     0.048 A 
HETATM   20  C   UNL     1      39.832 -14.948  -0.137  1.00  0.00     0.022 A 
HETATM   21  C   UNL     1      39.610 -14.339  -1.318  1.00  0.00     0.054 A 
HETATM   22  C   UNL     1      40.039 -12.998  -1.503  1.00  0.00     0.157 A 
HETATM   23  N   UNL     1      40.660 -12.368  -0.435  1.00  0.00    -0.291 N 
HETATM   24  N   UNL     1      39.966 -12.171  -2.521  1.00  0.00    -0.130 NA
HETATM   25  C   UNL     1      40.937 -11.095  -0.887  1.00  0.00     0.130 A 
HETATM   26  C   UNL     1      40.900 -12.987   0.791  1.00  0.00     0.117 A 
HETATM   27  C   UNL     1      41.599 -10.044  -0.082  1.00  0.00     0.094 C 
HETATM   28  N   UNL     1      40.531 -10.979  -2.135  1.00  0.00    -0.135 NA
ENDBRANCH   1  19
TORSDOF 7
ENDMDL
