MODEL 1
REMARK VINA RESULT:      -8.3      0.000      0.000
REMARK  4 active torsions:
REMARK  status: ('A' for Active; 'I' for Inactive)
REMARK    1  A    between atoms: C_2  and  C_3 
REMARK    2  A    between atoms: C_5  and  C_6 
REMARK       I    between atoms: C_6  and  N_7 
REMARK    3  A    between atoms: N_7  and  C_8 
REMARK    4  A    between atoms: C_10  and  C_11 
ROOT
HETATM    1  C   UNL     1      42.527 -15.758   2.600  1.00  0.00     0.035 A 
HETATM    2  C   UNL     1      42.836 -17.121   2.526  1.00  0.00     0.042 A 
HETATM    3  C   UNL     1      43.408 -17.798   3.618  1.00  0.00    -0.021 A 
HETATM    4  C   UNL     1      43.685 -17.078   4.786  1.00  0.00     0.012 A 
HETATM    5  C   UNL     1      43.390 -15.717   4.867  1.00  0.00     0.003 A 
HETATM    6  C   UNL     1      42.810 -15.063   3.779  1.00  0.00     0.029 A 
ENDROOT
BRANCH   1   7
HETATM    7  N   UNL     1      41.925 -15.031   1.556  1.00  0.00    -0.321 N 
HETATM    8  C   UNL     1      40.635 -15.131   1.066  1.00  0.00     0.280 C 
HETATM    9  O   UNL     1      39.791 -15.941   1.438  1.00  0.00    -0.265 OA
HETATM   10  H   UNL     1      42.491 -14.322   1.099  1.00  0.00     0.169 HD
BRANCH   8  11
HETATM   11  C   UNL     1      40.354 -14.151   0.031  1.00  0.00     0.144 A 
HETATM   12  O   UNL     1      39.411 -14.425  -0.924  1.00  0.00    -0.309 OA
HETATM   13  C   UNL     1      39.377 -13.364  -1.779  1.00  0.00     0.059 A 
HETATM   14  C   UNL     1      40.279 -12.393  -1.382  1.00  0.00    -0.029 A 
HETATM   15  C   UNL     1      40.902 -12.907  -0.212  1.00  0.00     0.052 A 
HETATM   16  C   UNL     1      40.548 -11.090  -2.039  1.00  0.00     0.050 C 
BRANCH  13  17
HETATM   17  C   UNL     1      38.432 -13.473  -2.921  1.00  0.00     0.061 C 
HETATM   18  C   UNL     1      38.283 -14.910  -3.392  1.00  0.00     0.012 C 
ENDBRANCH  13  17
ENDBRANCH   8  11
ENDBRANCH   1   7
BRANCH   3  19
HETATM   19  C   UNL     1      43.706 -19.222   3.550  1.00  0.00     0.010 A 
HETATM   20  C   UNL     1      43.680 -20.124   2.458  1.00  0.00     0.152 A 
HETATM   21  N   UNL     1      44.044 -21.365   2.798  1.00  0.00    -0.187 NA
HETATM   22  N   UNL     1      44.301 -21.264   4.112  1.00  0.00    -0.289 N 
HETATM   23  H   UNL     1      44.602 -22.095   4.609  1.00  0.00     0.188 HD
HETATM   24  C   UNL     1      44.121 -20.006   4.607  1.00  0.00     0.123 A 
ENDBRANCH   3  19
TORSDOF 4
ENDMDL
MODEL 2
REMARK VINA RESULT:      -8.0      0.921      1.929
REMARK  4 active torsions:
REMARK  status: ('A' for Active; 'I' for Inactive)
REMARK    1  A    between atoms: C_2  and  C_3 
REMARK    2  A    between atoms: C_5  and  C_6 
REMARK       I    between atoms: C_6  and  N_7 
REMARK    3  A    between atoms: N_7  and  C_8 
REMARK    4  A    between atoms: C_10  and  C_11 
ROOT
HETATM    1  C   UNL     1      42.516 -15.616   2.373  1.00  0.00     0.035 A 
HETATM    2  C   UNL     1      42.809 -16.982   2.299  1.00  0.00     0.042 A 
HETATM    3  C   UNL     1      43.383 -17.664   3.387  1.00  0.00    -0.021 A 
HETATM    4  C   UNL     1      43.677 -16.945   4.552  1.00  0.00     0.012 A 
HETATM    5  C   UNL     1      43.398 -15.581   4.634  1.00  0.00     0.003 A 
HETATM    6  C   UNL     1      42.816 -14.922   3.550  1.00  0.00     0.029 A 
ENDROOT
BRANCH   1   7
HETATM    7  N   UNL     1      41.915 -14.882   1.333  1.00  0.00    -0.321 N 
HETATM    8  C   UNL     1      40.631 -14.996   0.827  1.00  0.00     0.280 C 
HETATM    9  O   UNL     1      39.797 -15.824   1.178  1.00  0.00    -0.265 OA
HETATM   10  H   UNL     1      42.474 -14.159   0.893  1.00  0.00     0.169 HD
BRANCH   8  11
HETATM   11  C   UNL     1      40.347 -14.005  -0.196  1.00  0.00     0.144 A 
HETATM   12  O   UNL     1      41.151 -12.901  -0.312  1.00  0.00    -0.309 OA
HETATM   13  C   UNL     1      40.641 -12.130  -1.314  1.00  0.00     0.059 A 
HETATM   14  C   UNL     1      39.522 -12.729  -1.864  1.00  0.00    -0.029 A 
HETATM   15  C   UNL     1      39.341 -13.939  -1.140  1.00  0.00     0.052 A 
HETATM   16  C   UNL     1      38.680 -12.216  -2.973  1.00  0.00     0.050 C 
BRANCH  13  17
HETATM   17  C   UNL     1      41.354 -10.854  -1.586  1.00  0.00     0.061 C 
HETATM   18  C   UNL     1      41.475 -10.001  -0.334  1.00  0.00     0.012 C 
ENDBRANCH  13  17
ENDBRANCH   8  11
ENDBRANCH   1   7
BRANCH   3  19
HETATM   19  C   UNL     1      43.663 -19.091   3.318  1.00  0.00     0.010 A 
HETATM   20  C   UNL     1      43.622 -19.994   2.227  1.00  0.00     0.152 A 
HETATM   21  N   UNL     1      43.973 -21.238   2.566  1.00  0.00    -0.187 NA
HETATM   22  N   UNL     1      44.239 -21.140   3.878  1.00  0.00    -0.289 N 
HETATM   23  H   UNL     1      44.533 -21.974   4.374  1.00  0.00     0.188 HD
HETATM   24  C   UNL     1      44.075 -19.879   4.373  1.00  0.00     0.123 A 
ENDBRANCH   3  19
TORSDOF 4
ENDMDL
MODEL 3
REMARK VINA RESULT:      -7.9      2.219      3.153
REMARK  4 active torsions:
REMARK  status: ('A' for Active; 'I' for Inactive)
REMARK    1  A    between atoms: C_2  and  C_3 
REMARK    2  A    between atoms: C_5  and  C_6 
REMARK       I    between atoms: C_6  and  N_7 
REMARK    3  A    between atoms: N_7  and  C_8 
REMARK    4  A    between atoms: C_10  and  C_11 
ROOT
HETATM    1  C   UNL     1      42.499 -16.392   2.518  1.00  0.00     0.035 A 
HETATM    2  C   UNL     1      42.540 -16.008   3.862  1.00  0.00     0.042 A 
HETATM    3  C   UNL     1      43.207 -16.788   4.823  1.00  0.00    -0.021 A 
HETATM    4  C   UNL     1      43.822 -17.978   4.415  1.00  0.00     0.012 A 
HETATM    5  C   UNL     1      43.779 -18.376   3.078  1.00  0.00     0.003 A 
HETATM    6  C   UNL     1      43.125 -17.582   2.135  1.00  0.00     0.029 A 
ENDROOT
BRANCH   1   7
HETATM    7  N   UNL     1      41.877 -15.640   1.503  1.00  0.00    -0.321 N 
HETATM    8  C   UNL     1      40.531 -15.361   1.338  1.00  0.00     0.280 C 
HETATM    9  O   UNL     1      39.623 -15.787   2.043  1.00  0.00    -0.265 OA
HETATM   10  H   UNL     1      42.478 -15.227   0.798  1.00  0.00     0.169 HD
BRANCH   8  11
HETATM   11  C   UNL     1      40.280 -14.481   0.209  1.00  0.00     0.144 A 
HETATM   12  O   UNL     1      39.450 -14.895  -0.799  1.00  0.00    -0.309 OA
HETATM   13  C   UNL     1      39.422 -13.903  -1.735  1.00  0.00     0.059 A 
HETATM   14  C   UNL     1      40.214 -12.840  -1.338  1.00  0.00    -0.029 A 
HETATM   15  C   UNL     1      40.761 -13.220  -0.082  1.00  0.00     0.052 A 
HETATM   16  C   UNL     1      40.451 -11.571  -2.069  1.00  0.00     0.050 C 
BRANCH  13  17
HETATM   17  C   UNL     1      38.595 -14.164  -2.942  1.00  0.00     0.061 C 
HETATM   18  C   UNL     1      37.255 -13.452  -2.869  1.00  0.00     0.012 C 
ENDBRANCH  13  17
ENDBRANCH   8  11
ENDBRANCH   1   7
BRANCH   3  19
HETATM   19  C   UNL     1      43.270 -16.375   6.218  1.00  0.00     0.010 A 
HETATM   20  C   UNL     1      43.051 -15.113   6.823  1.00  0.00     0.152 A 
HETATM   21  N   UNL     1      43.185 -15.141   8.153  1.00  0.00    -0.187 NA
HETATM   22  N   UNL     1      43.495 -16.423   8.406  1.00  0.00    -0.289 N 
HETATM   23  H   UNL     1      43.649 -16.700   9.370  1.00  0.00     0.188 HD
HETATM   24  C   UNL     1      43.552 -17.201   7.287  1.00  0.00     0.123 A 
ENDBRANCH   3  19
TORSDOF 4
ENDMDL
MODEL 4
REMARK VINA RESULT:      -7.8      4.177      6.912
REMARK  4 active torsions:
REMARK  status: ('A' for Active; 'I' for Inactive)
REMARK    1  A    between atoms: C_2  and  C_3 
REMARK    2  A    between atoms: C_5  and  C_6 
REMARK       I    between atoms: C_6  and  N_7 
REMARK    3  A    between atoms: N_7  and  C_8 
REMARK    4  A    between atoms: C_10  and  C_11 
ROOT
HETATM    1  C   UNL     1      43.193 -15.268   3.897  1.00  0.00     0.035 A 
HETATM    2  C   UNL     1      43.450 -16.572   4.334  1.00  0.00     0.042 A 
HETATM    3  C   UNL     1      43.458 -17.654   3.435  1.00  0.00    -0.021 A 
HETATM    4  C   UNL     1      43.184 -17.408   2.084  1.00  0.00     0.012 A 
HETATM    5  C   UNL     1      42.917 -16.113   1.639  1.00  0.00     0.003 A 
HETATM    6  C   UNL     1      42.926 -15.049   2.542  1.00  0.00     0.029 A 
ENDROOT
BRANCH   1   7
HETATM    7  N   UNL     1      43.201 -14.140   4.739  1.00  0.00    -0.321 N 
HETATM    8  C   UNL     1      43.546 -14.064   6.077  1.00  0.00     0.280 C 
HETATM    9  O   UNL     1      43.859 -15.013   6.788  1.00  0.00    -0.265 OA
HETATM   10  H   UNL     1      42.936 -13.252   4.325  1.00  0.00     0.169 HD
BRANCH   8  11
HETATM   11  C   UNL     1      43.507 -12.703   6.585  1.00  0.00     0.144 A 
HETATM   12  O   UNL     1      44.455 -12.288   7.483  1.00  0.00    -0.309 OA
HETATM   13  C   UNL     1      44.163 -10.999   7.816  1.00  0.00     0.059 A 
HETATM   14  C   UNL     1      43.042 -10.564   7.132  1.00  0.00    -0.029 A 
HETATM   15  C   UNL     1      42.627 -11.668   6.338  1.00  0.00     0.052 A 
HETATM   16  C   UNL     1      42.399  -9.229   7.212  1.00  0.00     0.050 C 
BRANCH  13  17
HETATM   17  C   UNL     1      45.061 -10.361   8.814  1.00  0.00     0.061 C 
HETATM   18  C   UNL     1      46.053  -9.417   8.155  1.00  0.00     0.012 C 
ENDBRANCH  13  17
ENDBRANCH   8  11
ENDBRANCH   1   7
BRANCH   3  19
HETATM   19  C   UNL     1      43.751 -19.006   3.886  1.00  0.00     0.010 A 
HETATM   20  C   UNL     1      44.083 -19.506   5.170  1.00  0.00     0.152 A 
HETATM   21  N   UNL     1      44.262 -20.830   5.185  1.00  0.00    -0.187 NA
HETATM   22  N   UNL     1      44.049 -21.186   3.908  1.00  0.00    -0.289 N 
HETATM   23  H   UNL     1      44.129 -22.167   3.662  1.00  0.00     0.188 HD
HETATM   24  C   UNL     1      43.735 -20.137   3.095  1.00  0.00     0.123 A 
ENDBRANCH   3  19
TORSDOF 4
ENDMDL
MODEL 5
REMARK VINA RESULT:      -7.5      5.290      8.728
REMARK  4 active torsions:
REMARK  status: ('A' for Active; 'I' for Inactive)
REMARK    1  A    between atoms: C_2  and  C_3 
REMARK    2  A    between atoms: C_5  and  C_6 
REMARK       I    between atoms: C_6  and  N_7 
REMARK    3  A    between atoms: N_7  and  C_8 
REMARK    4  A    between atoms: C_10  and  C_11 
ROOT
HETATM    1  C   UNL     1      43.234 -13.660   5.840  1.00  0.00     0.035 A 
HETATM    2  C   UNL     1      43.877 -12.912   6.832  1.00  0.00     0.042 A 
HETATM    3  C   UNL     1      43.586 -11.549   7.020  1.00  0.00    -0.021 A 
HETATM    4  C   UNL     1      42.647 -10.939   6.179  1.00  0.00     0.012 A 
HETATM    5  C   UNL     1      42.006 -11.674   5.181  1.00  0.00     0.003 A 
HETATM    6  C   UNL     1      42.297 -13.029   5.016  1.00  0.00     0.029 A 
ENDROOT
BRANCH   1   7
HETATM    7  N   UNL     1      43.457 -15.033   5.621  1.00  0.00    -0.321 N 
HETATM    8  C   UNL     1      42.877 -16.114   6.262  1.00  0.00     0.280 C 
HETATM    9  O   UNL     1      42.088 -16.049   7.199  1.00  0.00    -0.265 OA
HETATM   10  H   UNL     1      44.114 -15.285   4.891  1.00  0.00     0.169 HD
BRANCH   8  11
HETATM   11  C   UNL     1      43.302 -17.386   5.703  1.00  0.00     0.144 A 
HETATM   12  O   UNL     1      43.559 -17.482   4.360  1.00  0.00    -0.309 OA
HETATM   13  C   UNL     1      43.898 -18.777   4.103  1.00  0.00     0.059 A 
HETATM   14  C   UNL     1      43.881 -19.523   5.268  1.00  0.00    -0.029 A 
HETATM   15  C   UNL     1      43.499 -18.617   6.296  1.00  0.00     0.052 A 
HETATM   16  C   UNL     1      44.189 -20.967   5.419  1.00  0.00     0.050 C 
BRANCH  13  17
HETATM   17  C   UNL     1      44.189 -19.109   2.684  1.00  0.00     0.061 C 
HETATM   18  C   UNL     1      43.165 -20.075   2.112  1.00  0.00     0.012 C 
ENDBRANCH  13  17
ENDBRANCH   8  11
ENDBRANCH   1   7
BRANCH   3  19
HETATM   19  C   UNL     1      44.237 -10.777   8.069  1.00  0.00     0.010 A 
HETATM   20  C   UNL     1      45.607 -10.507   8.310  1.00  0.00     0.152 A 
HETATM   21  N   UNL     1      45.806  -9.730   9.378  1.00  0.00    -0.187 NA
HETATM   22  N   UNL     1      44.563  -9.500   9.830  1.00  0.00    -0.289 N 
HETATM   23  H   UNL     1      44.450  -8.920  10.655  1.00  0.00     0.188 HD
HETATM   24  C   UNL     1      43.592 -10.096   9.081  1.00  0.00     0.123 A 
ENDBRANCH   3  19
TORSDOF 4
ENDMDL
MODEL 6
REMARK VINA RESULT:      -7.3      5.858      8.580
REMARK  4 active torsions:
REMARK  status: ('A' for Active; 'I' for Inactive)
REMARK    1  A    between atoms: C_2  and  C_3 
REMARK    2  A    between atoms: C_5  and  C_6 
REMARK       I    between atoms: C_6  and  N_7 
REMARK    3  A    between atoms: N_7  and  C_8 
REMARK    4  A    between atoms: C_10  and  C_11 
ROOT
HETATM    1  C   UNL     1      44.236 -12.176   6.721  1.00  0.00     0.035 A 
HETATM    2  C   UNL     1      43.647 -11.709   7.902  1.00  0.00     0.042 A 
HETATM    3  C   UNL     1      44.300 -10.768   8.718  1.00  0.00    -0.021 A 
HETATM    4  C   UNL     1      45.569 -10.314   8.340  1.00  0.00     0.012 A 
HETATM    5  C   UNL     1      46.169 -10.779   7.170  1.00  0.00     0.003 A 
HETATM    6  C   UNL     1      45.502 -11.702   6.363  1.00  0.00     0.029 A 
ENDROOT
BRANCH   1   7
HETATM    7  N   UNL     1      43.623 -13.091   5.845  1.00  0.00    -0.321 N 
HETATM    8  C   UNL     1      43.390 -14.442   6.033  1.00  0.00     0.280 C 
HETATM    9  O   UNL     1      43.745 -15.099   7.006  1.00  0.00    -0.265 OA
HETATM   10  H   UNL     1      43.286 -12.729   4.959  1.00  0.00     0.169 HD
BRANCH   8  11
HETATM   11  C   UNL     1      42.657 -15.039   4.930  1.00  0.00     0.144 A 
HETATM   12  O   UNL     1      43.188 -16.115   4.267  1.00  0.00    -0.309 OA
HETATM   13  C   UNL     1      42.320 -16.445   3.268  1.00  0.00     0.059 A 
HETATM   14  C   UNL     1      41.221 -15.606   3.284  1.00  0.00    -0.029 A 
HETATM   15  C   UNL     1      41.444 -14.704   4.360  1.00  0.00     0.052 A 
HETATM   16  C   UNL     1      40.055 -15.632   2.367  1.00  0.00     0.050 C 
BRANCH  13  17
HETATM   17  C   UNL     1      42.726 -17.580   2.398  1.00  0.00     0.061 C 
HETATM   18  C   UNL     1      43.834 -18.404   3.030  1.00  0.00     0.012 C 
ENDBRANCH  13  17
ENDBRANCH   8  11
ENDBRANCH   1   7
BRANCH   3  19
HETATM   19  C   UNL     1      43.676 -10.264   9.933  1.00  0.00     0.010 A 
HETATM   20  C   UNL     1      43.804 -10.675  11.283  1.00  0.00     0.152 A 
HETATM   21  N   UNL     1      43.073  -9.938  12.125  1.00  0.00    -0.187 NA
HETATM   22  N   UNL     1      42.468  -9.053  11.318  1.00  0.00    -0.289 N 
HETATM   23  H   UNL     1      41.844  -8.369  11.733  1.00  0.00     0.188 HD
HETATM   24  C   UNL     1      42.799  -9.201  10.002  1.00  0.00     0.123 A 
ENDBRANCH   3  19
TORSDOF 4
ENDMDL
MODEL 7
REMARK VINA RESULT:      -7.3      2.477      3.808
REMARK  4 active torsions:
REMARK  status: ('A' for Active; 'I' for Inactive)
REMARK    1  A    between atoms: C_2  and  C_3 
REMARK    2  A    between atoms: C_5  and  C_6 
REMARK       I    between atoms: C_6  and  N_7 
REMARK    3  A    between atoms: N_7  and  C_8 
REMARK    4  A    between atoms: C_10  and  C_11 
ROOT
HETATM    1  C   UNL     1      42.025 -16.103   2.318  1.00  0.00     0.035 A 
HETATM    2  C   UNL     1      42.064 -15.617   3.630  1.00  0.00     0.042 A 
HETATM    3  C   UNL     1      42.832 -16.255   4.621  1.00  0.00    -0.021 A 
HETATM    4  C   UNL     1      43.550 -17.407   4.278  1.00  0.00     0.012 A 
HETATM    5  C   UNL     1      43.511 -17.905   2.975  1.00  0.00     0.003 A 
HETATM    6  C   UNL     1      42.756 -17.252   2.001  1.00  0.00     0.029 A 
ENDROOT
BRANCH   1   7
HETATM    7  N   UNL     1      41.304 -15.494   1.274  1.00  0.00    -0.321 N 
HETATM    8  C   UNL     1      41.258 -14.156   0.922  1.00  0.00     0.280 C 
HETATM    9  O   UNL     1      41.816 -13.242   1.521  1.00  0.00    -0.265 OA
HETATM   10  H   UNL     1      40.749 -16.100   0.679  1.00  0.00     0.169 HD
BRANCH   8  11
HETATM   11  C   UNL     1      40.461 -13.921  -0.269  1.00  0.00     0.144 A 
HETATM   12  O   UNL     1      40.474 -12.684  -0.859  1.00  0.00    -0.309 OA
HETATM   13  C   UNL     1      39.621 -12.732  -1.922  1.00  0.00     0.059 A 
HETATM   14  C   UNL     1      39.065 -13.993  -2.040  1.00  0.00    -0.029 A 
HETATM   15  C   UNL     1      39.615 -14.754  -0.973  1.00  0.00     0.052 A 
HETATM   16  C   UNL     1      38.093 -14.456  -3.061  1.00  0.00     0.050 C 
BRANCH  13  17
HETATM   17  C   UNL     1      39.461 -11.470  -2.690  1.00  0.00     0.061 C 
HETATM   18  C   UNL     1      40.800 -10.805  -2.963  1.00  0.00     0.012 C 
ENDBRANCH  13  17
ENDBRANCH   8  11
ENDBRANCH   1   7
BRANCH   3  19
HETATM   19  C   UNL     1      42.891 -15.734   5.979  1.00  0.00     0.010 A 
HETATM   20  C   UNL     1      43.032 -16.398   7.223  1.00  0.00     0.152 A 
HETATM   21  N   UNL     1      43.066 -15.557   8.262  1.00  0.00    -0.187 NA
HETATM   22  N   UNL     1      42.945 -14.350   7.688  1.00  0.00    -0.289 N 
HETATM   23  H   UNL     1      42.944 -13.530   8.286  1.00  0.00     0.188 HD
HETATM   24  C   UNL     1      42.844 -14.400   6.329  1.00  0.00     0.123 A 
ENDBRANCH   3  19
TORSDOF 4
ENDMDL
MODEL 8
REMARK VINA RESULT:      -7.2      6.831      9.553
REMARK  4 active torsions:
REMARK  status: ('A' for Active; 'I' for Inactive)
REMARK    1  A    between atoms: C_2  and  C_3 
REMARK    2  A    between atoms: C_5  and  C_6 
REMARK       I    between atoms: C_6  and  N_7 
REMARK    3  A    between atoms: N_7  and  C_8 
REMARK    4  A    between atoms: C_10  and  C_11 
ROOT
HETATM    1  C   UNL     1      44.597 -11.289   7.921  1.00  0.00     0.035 A 
HETATM    2  C   UNL     1      43.986 -10.958   9.135  1.00  0.00     0.042 A 
HETATM    3  C   UNL     1      44.381  -9.822   9.864  1.00  0.00    -0.021 A 
HETATM    4  C   UNL     1      45.419  -9.028   9.362  1.00  0.00     0.012 A 
HETATM    5  C   UNL     1      46.042  -9.353   8.157  1.00  0.00     0.003 A 
HETATM    6  C   UNL     1      45.628 -10.476   7.439  1.00  0.00     0.029 A 
ENDROOT
BRANCH   1   7
HETATM    7  N   UNL     1      44.228 -12.392   7.128  1.00  0.00    -0.321 N 
HETATM    8  C   UNL     1      43.177 -12.499   6.234  1.00  0.00     0.280 C 
HETATM    9  O   UNL     1      42.332 -11.637   6.020  1.00  0.00    -0.265 OA
HETATM   10  H   UNL     1      44.805 -13.224   7.196  1.00  0.00     0.169 HD
BRANCH   8  11
HETATM   11  C   UNL     1      43.166 -13.775   5.539  1.00  0.00     0.144 A 
HETATM   12  O   UNL     1      42.704 -13.840   4.251  1.00  0.00    -0.309 OA
HETATM   13  C   UNL     1      42.770 -15.145   3.861  1.00  0.00     0.059 A 
HETATM   14  C   UNL     1      43.285 -15.929   4.878  1.00  0.00    -0.029 A 
HETATM   15  C   UNL     1      43.541 -15.037   5.955  1.00  0.00     0.052 A 
HETATM   16  C   UNL     1      43.517 -17.394   4.856  1.00  0.00     0.050 C 
BRANCH  13  17
HETATM   17  C   UNL     1      42.281 -15.444   2.490  1.00  0.00     0.061 C 
HETATM   18  C   UNL     1      43.425 -15.770   1.544  1.00  0.00     0.012 C 
ENDBRANCH  13  17
ENDBRANCH   8  11
ENDBRANCH   1   7
BRANCH   3  19
HETATM   19  C   UNL     1      43.727  -9.465  11.115  1.00  0.00     0.010 A 
HETATM   20  C   UNL     1      43.517  -8.204  11.726  1.00  0.00     0.152 A 
HETATM   21  N   UNL     1      42.847  -8.288  12.880  1.00  0.00    -0.187 NA
HETATM   22  N   UNL     1      42.627  -9.606  13.015  1.00  0.00    -0.289 N 
HETATM   23  H   UNL     1      42.123  -9.928  13.834  1.00  0.00     0.188 HD
HETATM   24  C   UNL     1      43.126 -10.350  11.987  1.00  0.00     0.123 A 
ENDBRANCH   3  19
TORSDOF 4
ENDMDL
MODEL 9
REMARK VINA RESULT:      -7.2      3.702      8.278
REMARK  4 active torsions:
REMARK  status: ('A' for Active; 'I' for Inactive)
REMARK    1  A    between atoms: C_2  and  C_3 
REMARK    2  A    between atoms: C_5  and  C_6 
REMARK       I    between atoms: C_6  and  N_7 
REMARK    3  A    between atoms: N_7  and  C_8 
REMARK    4  A    between atoms: C_10  and  C_11 
ROOT
HETATM    1  C   UNL     1      40.673 -14.347   4.297  1.00  0.00     0.035 A 
HETATM    2  C   UNL     1      40.099 -13.468   3.372  1.00  0.00     0.042 A 
HETATM    3  C   UNL     1      39.464 -12.284   3.789  1.00  0.00    -0.021 A 
HETATM    4  C   UNL     1      39.396 -12.004   5.159  1.00  0.00     0.012 A 
HETATM    5  C   UNL     1      39.957 -12.878   6.091  1.00  0.00     0.003 A 
HETATM    6  C   UNL     1      40.596 -14.041   5.659  1.00  0.00     0.029 A 
ENDROOT
BRANCH   1   7
HETATM    7  N   UNL     1      41.350 -15.529   3.943  1.00  0.00    -0.321 N 
HETATM    8  C   UNL     1      42.609 -15.670   3.385  1.00  0.00     0.280 C 
HETATM    9  O   UNL     1      43.343 -14.749   3.042  1.00  0.00    -0.265 OA
HETATM   10  H   UNL     1      40.876 -16.407   4.128  1.00  0.00     0.169 HD
BRANCH   8  11
HETATM   11  C   UNL     1      43.000 -17.061   3.237  1.00  0.00     0.144 A 
HETATM   12  O   UNL     1      43.612 -17.706   4.280  1.00  0.00    -0.309 OA
HETATM   13  C   UNL     1      43.899 -18.972   3.862  1.00  0.00     0.059 A 
HETATM   14  C   UNL     1      43.466 -19.163   2.562  1.00  0.00    -0.029 A 
HETATM   15  C   UNL     1      42.884 -17.926   2.168  1.00  0.00     0.052 A 
HETATM   16  C   UNL     1      43.588 -20.394   1.744  1.00  0.00     0.050 C 
BRANCH  13  17
HETATM   17  C   UNL     1      44.602 -19.841   4.842  1.00  0.00     0.061 C 
HETATM   18  C   UNL     1      43.732 -21.006   5.284  1.00  0.00     0.012 C 
ENDBRANCH  13  17
ENDBRANCH   8  11
ENDBRANCH   1   7
BRANCH   3  19
HETATM   19  C   UNL     1      38.889 -11.358   2.824  1.00  0.00     0.010 A 
HETATM   20  C   UNL     1      37.949 -11.563   1.785  1.00  0.00     0.152 A 
HETATM   21  N   UNL     1      37.652 -10.443   1.120  1.00  0.00    -0.187 NA
HETATM   22  N   UNL     1      38.405  -9.512   1.728  1.00  0.00    -0.289 N 
HETATM   23  H   UNL     1      38.353  -8.556   1.394  1.00  0.00     0.188 HD
HETATM   24  C   UNL     1      39.156 -10.005   2.755  1.00  0.00     0.123 A 
ENDBRANCH   3  19
TORSDOF 4
ENDMDL
MODEL 10
REMARK VINA RESULT:      -7.2      5.474      8.158
REMARK  4 active torsions:
REMARK  status: ('A' for Active; 'I' for Inactive)
REMARK    1  A    between atoms: C_2  and  C_3 
REMARK    2  A    between atoms: C_5  and  C_6 
REMARK       I    between atoms: C_6  and  N_7 
REMARK    3  A    between atoms: N_7  and  C_8 
REMARK    4  A    between atoms: C_10  and  C_11 
ROOT
HETATM    1  C   UNL     1      43.097 -13.813   5.373  1.00  0.00     0.035 A 
HETATM    2  C   UNL     1      43.323 -15.165   5.653  1.00  0.00     0.042 A 
HETATM    3  C   UNL     1      43.371 -16.123   4.624  1.00  0.00    -0.021 A 
HETATM    4  C   UNL     1      43.168 -15.704   3.304  1.00  0.00     0.012 A 
HETATM    5  C   UNL     1      42.933 -14.360   3.015  1.00  0.00     0.003 A 
HETATM    6  C   UNL     1      42.902 -13.420   4.045  1.00  0.00     0.029 A 
ENDROOT
BRANCH   1   7
HETATM    7  N   UNL     1      43.069 -12.801   6.351  1.00  0.00    -0.321 N 
HETATM    8  C   UNL     1      44.122 -12.056   6.853  1.00  0.00     0.280 C 
HETATM    9  O   UNL     1      45.303 -12.201   6.557  1.00  0.00    -0.265 OA
HETATM   10  H   UNL     1      42.164 -12.560   6.742  1.00  0.00     0.169 HD
BRANCH   8  11
HETATM   11  C   UNL     1      43.686 -11.043   7.799  1.00  0.00     0.144 A 
HETATM   12  O   UNL     1      44.234 -11.009   9.054  1.00  0.00    -0.309 OA
HETATM   13  C   UNL     1      43.625  -9.997   9.736  1.00  0.00     0.059 A 
HETATM   14  C   UNL     1      42.697  -9.361   8.931  1.00  0.00    -0.029 A 
HETATM   15  C   UNL     1      42.745 -10.040   7.683  1.00  0.00     0.052 A 
HETATM   16  C   UNL     1      41.826  -8.215   9.293  1.00  0.00     0.050 C 
BRANCH  13  17
HETATM   17  C   UNL     1      44.056  -9.805  11.146  1.00  0.00     0.061 C 
HETATM   18  C   UNL     1      43.268 -10.689  12.098  1.00  0.00     0.012 C 
ENDBRANCH  13  17
ENDBRANCH   8  11
ENDBRANCH   1   7
BRANCH   3  19
HETATM   19  C   UNL     1      43.632 -17.526   4.914  1.00  0.00     0.010 A 
HETATM   20  C   UNL     1      44.257 -18.534   4.139  1.00  0.00     0.152 A 
HETATM   21  N   UNL     1      44.328 -19.710   4.770  1.00  0.00    -0.187 NA
HETATM   22  N   UNL     1      43.744 -19.462   5.953  1.00  0.00    -0.289 N 
HETATM   23  H   UNL     1      43.675 -20.220   6.624  1.00  0.00     0.188 HD
HETATM   24  C   UNL     1      43.318 -18.174   6.091  1.00  0.00     0.123 A 
ENDBRANCH   3  19
TORSDOF 4
ENDMDL
