MODEL 1
REMARK VINA RESULT:     -10.5      0.000      0.000
REMARK  4 active torsions:
REMARK  status: ('A' for Active; 'I' for Inactive)
REMARK    1  A    between atoms: C_2  and  C_3 
REMARK    2  A    between atoms: N_16  and  C_17 
REMARK    3  A    between atoms: C_17  and  C_18 
REMARK       I    between atoms: C_18  and  N_19 
REMARK    4  A    between atoms: N_19  and  C_20 
ROOT
HETATM    1  C   UNL     1      43.429 -14.278   6.315  1.00  0.00     0.054 C 
HETATM    2  C   UNL     1      42.950 -14.357   4.863  1.00  0.00     0.140 A 
HETATM    3  N   UNL     1      43.574 -13.297   4.099  1.00  0.00    -0.321 N 
HETATM    4  C   UNL     1      42.677 -12.369   3.635  1.00  0.00     0.326 A 
HETATM    5  O   UNL     1      42.995 -11.386   2.991  1.00  0.00    -0.247 OA
HETATM    6  N   UNL     1      41.430 -12.734   4.030  1.00  0.00    -0.259 N 
HETATM    7  C   UNL     1      41.479 -13.882   4.768  1.00  0.00     0.261 A 
HETATM    8  O   UNL     1      40.507 -14.429   5.274  1.00  0.00    -0.270 OA
HETATM    9  H   UNL     1      44.566 -13.194   3.934  1.00  0.00     0.165 HD
ENDROOT
BRANCH   6  10
HETATM   10  C   UNL     1      40.233 -11.977   3.726  1.00  0.00     0.240 C 
BRANCH  10  11
HETATM   11  C   UNL     1      39.614 -12.405   2.396  1.00  0.00     0.240 C 
HETATM   12  N   UNL     1      40.519 -12.905   1.483  1.00  0.00    -0.324 N 
HETATM   13  H   UNL     1      41.465 -13.125   1.797  1.00  0.00     0.169 HD
HETATM   14  O   UNL     1      38.392 -12.414   2.256  1.00  0.00    -0.271 OA
BRANCH  12  15
HETATM   15  C   UNL     1      40.280 -13.302   0.145  1.00  0.00     0.064 A 
HETATM   16  C   UNL     1      40.503 -12.323  -0.838  1.00  0.00     0.093 A 
HETATM   17  C   UNL     1      40.269 -12.661  -2.189  1.00  0.00    -0.005 A 
HETATM   18  N   UNL     1      40.934 -11.092  -0.475  1.00  0.00    -0.258 NA
HETATM   19  C   UNL     1      40.504 -11.684  -3.166  1.00  0.00     0.015 A 
HETATM   20  C   UNL     1      39.815 -13.945  -2.531  1.00  0.00     0.014 A 
HETATM   21  C   UNL     1      40.949 -10.424  -2.792  1.00  0.00     0.020 A 
HETATM   22  C   UNL     1      41.145 -10.178  -1.446  1.00  0.00     0.117 A 
HETATM   23  C   UNL     1      39.589 -14.896  -1.540  1.00  0.00     0.003 A 
HETATM   24  C   UNL     1      39.821 -14.576  -0.204  1.00  0.00     0.032 A 
ENDBRANCH  12  15
ENDBRANCH  10  11
ENDBRANCH   6  10
BRANCH   2  25
HETATM   25  C   UNL     1      43.144 -15.741   4.251  1.00  0.00    -0.020 A 
HETATM   26  C   UNL     1      43.467 -16.871   5.025  1.00  0.00     0.022 A 
HETATM   27  C   UNL     1      43.632 -18.144   4.446  1.00  0.00    -0.025 A 
HETATM   28  C   UNL     1      43.475 -18.299   3.052  1.00  0.00    -0.026 A 
HETATM   29  C   UNL     1      43.949 -19.268   5.228  1.00  0.00     0.012 A 
HETATM   30  C   UNL     1      43.163 -17.178   2.275  1.00  0.00     0.013 A 
HETATM   31  C   UNL     1      43.637 -19.569   2.477  1.00  0.00     0.012 A 
HETATM   32  C   UNL     1      43.002 -15.920   2.864  1.00  0.00     0.011 A 
HETATM   33  C   UNL     1      43.949 -20.675   3.267  1.00  0.00     0.001 A 
HETATM   34  C   UNL     1      44.105 -20.525   4.642  1.00  0.00     0.001 A 
ENDBRANCH   2  25
TORSDOF 4
ENDMDL
MODEL 2
REMARK VINA RESULT:     -10.4      3.447      6.693
REMARK  4 active torsions:
REMARK  status: ('A' for Active; 'I' for Inactive)
REMARK    1  A    between atoms: C_2  and  C_3 
REMARK    2  A    between atoms: N_16  and  C_17 
REMARK    3  A    between atoms: C_17  and  C_18 
REMARK       I    between atoms: C_18  and  N_19 
REMARK    4  A    between atoms: N_19  and  C_20 
ROOT
HETATM    1  C   UNL     1      43.568 -13.606   2.588  1.00  0.00     0.054 C 
HETATM    2  C   UNL     1      42.547 -14.372   3.435  1.00  0.00     0.140 A 
HETATM    3  N   UNL     1      41.243 -14.269   2.815  1.00  0.00    -0.321 N 
HETATM    4  C   UNL     1      40.340 -13.570   3.575  1.00  0.00     0.326 A 
HETATM    5  O   UNL     1      39.194 -13.347   3.227  1.00  0.00    -0.247 OA
HETATM    6  N   UNL     1      40.948 -13.179   4.723  1.00  0.00    -0.259 N 
HETATM    7  C   UNL     1      42.251 -13.587   4.738  1.00  0.00     0.261 A 
HETATM    8  O   UNL     1      43.046 -13.355   5.639  1.00  0.00    -0.270 OA
HETATM    9  H   UNL     1      40.993 -14.627   1.903  1.00  0.00     0.165 HD
ENDROOT
BRANCH   6  10
HETATM   10  C   UNL     1      40.295 -12.407   5.761  1.00  0.00     0.240 C 
BRANCH  10  11
HETATM   11  C   UNL     1      40.963 -11.047   5.960  1.00  0.00     0.240 C 
HETATM   12  N   UNL     1      41.592 -10.896   7.178  1.00  0.00    -0.324 N 
HETATM   13  H   UNL     1      41.733 -11.719   7.766  1.00  0.00     0.169 HD
HETATM   14  O   UNL     1      41.025 -10.245   5.029  1.00  0.00    -0.271 OA
BRANCH  12  15
HETATM   15  C   UNL     1      42.222  -9.739   7.698  1.00  0.00     0.064 A 
HETATM   16  C   UNL     1      43.622  -9.791   7.798  1.00  0.00     0.093 A 
HETATM   17  C   UNL     1      44.301  -8.669   8.321  1.00  0.00    -0.005 A 
HETATM   18  N   UNL     1      44.285 -10.900   7.394  1.00  0.00    -0.258 NA
HETATM   19  C   UNL     1      45.698  -8.721   8.408  1.00  0.00     0.015 A 
HETATM   20  C   UNL     1      43.583  -7.536   8.738  1.00  0.00     0.014 A 
HETATM   21  C   UNL     1      46.376  -9.859   7.990  1.00  0.00     0.020 A 
HETATM   22  C   UNL     1      45.631 -10.913   7.498  1.00  0.00     0.117 A 
HETATM   23  C   UNL     1      42.195  -7.509   8.641  1.00  0.00     0.003 A 
HETATM   24  C   UNL     1      41.515  -8.609   8.122  1.00  0.00     0.032 A 
ENDBRANCH  12  15
ENDBRANCH  10  11
ENDBRANCH   6  10
BRANCH   2  25
HETATM   25  C   UNL     1      42.972 -15.809   3.718  1.00  0.00    -0.020 A 
HETATM   26  C   UNL     1      42.850 -16.835   2.762  1.00  0.00     0.022 A 
HETATM   27  C   UNL     1      43.257 -18.155   3.034  1.00  0.00    -0.025 A 
HETATM   28  C   UNL     1      43.798 -18.468   4.299  1.00  0.00    -0.026 A 
HETATM   29  C   UNL     1      43.137 -19.171   2.071  1.00  0.00     0.012 A 
HETATM   30  C   UNL     1      43.913 -17.456   5.258  1.00  0.00     0.013 A 
HETATM   31  C   UNL     1      44.205 -19.784   4.569  1.00  0.00     0.012 A 
HETATM   32  C   UNL     1      43.505 -16.149   4.973  1.00  0.00     0.011 A 
HETATM   33  C   UNL     1      44.082 -20.781   3.601  1.00  0.00     0.001 A 
HETATM   34  C   UNL     1      43.548 -20.475   2.352  1.00  0.00     0.001 A 
ENDBRANCH   2  25
TORSDOF 4
ENDMDL
MODEL 3
REMARK VINA RESULT:     -10.4      1.704      2.815
REMARK  4 active torsions:
REMARK  status: ('A' for Active; 'I' for Inactive)
REMARK    1  A    between atoms: C_2  and  C_3 
REMARK    2  A    between atoms: N_16  and  C_17 
REMARK    3  A    between atoms: C_17  and  C_18 
REMARK       I    between atoms: C_18  and  N_19 
REMARK    4  A    between atoms: N_19  and  C_20 
ROOT
HETATM    1  C   UNL     1      43.199 -15.856   7.908  1.00  0.00     0.054 C 
HETATM    2  C   UNL     1      43.152 -15.258   6.499  1.00  0.00     0.140 A 
HETATM    3  N   UNL     1      44.147 -14.212   6.393  1.00  0.00    -0.321 N 
HETATM    4  C   UNL     1      43.601 -12.967   6.208  1.00  0.00     0.326 A 
HETATM    5  O   UNL     1      44.260 -11.947   6.118  1.00  0.00    -0.247 OA
HETATM    6  N   UNL     1      42.249 -13.087   6.165  1.00  0.00    -0.259 N 
HETATM    7  C   UNL     1      41.879 -14.390   6.338  1.00  0.00     0.261 A 
HETATM    8  O   UNL     1      40.722 -14.789   6.367  1.00  0.00    -0.270 OA
HETATM    9  H   UNL     1      45.146 -14.337   6.480  1.00  0.00     0.165 HD
ENDROOT
BRANCH   6  10
HETATM   10  C   UNL     1      41.345 -11.969   5.992  1.00  0.00     0.240 C 
BRANCH  10  11
HETATM   11  C   UNL     1      40.704 -11.968   4.604  1.00  0.00     0.240 C 
HETATM   12  N   UNL     1      41.606 -12.033   3.563  1.00  0.00    -0.324 N 
HETATM   13  H   UNL     1      42.581 -12.258   3.768  1.00  0.00     0.169 HD
HETATM   14  O   UNL     1      39.482 -12.045   4.485  1.00  0.00    -0.271 OA
BRANCH  12  15
HETATM   15  C   UNL     1      41.341 -11.965   2.173  1.00  0.00     0.064 A 
HETATM   16  C   UNL     1      40.836 -13.135   1.583  1.00  0.00     0.093 A 
HETATM   17  C   UNL     1      40.566 -13.126   0.197  1.00  0.00    -0.005 A 
HETATM   18  N   UNL     1      40.620 -14.233   2.345  1.00  0.00    -0.258 NA
HETATM   19  C   UNL     1      40.051 -14.293  -0.385  1.00  0.00     0.015 A 
HETATM   20  C   UNL     1      40.808 -11.973  -0.566  1.00  0.00     0.014 A 
HETATM   21  C   UNL     1      39.827 -15.417   0.399  1.00  0.00     0.020 A 
HETATM   22  C   UNL     1      40.128 -15.339   1.746  1.00  0.00     0.117 A 
HETATM   23  C   UNL     1      41.320 -10.827   0.036  1.00  0.00     0.003 A 
HETATM   24  C   UNL     1      41.586 -10.823   1.403  1.00  0.00     0.032 A 
ENDBRANCH  12  15
ENDBRANCH  10  11
ENDBRANCH   6  10
BRANCH   2  25
HETATM   25  C   UNL     1      43.264 -16.314   5.404  1.00  0.00    -0.020 A 
HETATM   26  C   UNL     1      43.523 -17.669   5.685  1.00  0.00     0.022 A 
HETATM   27  C   UNL     1      43.614 -18.634   4.664  1.00  0.00    -0.025 A 
HETATM   28  C   UNL     1      43.446 -18.241   3.319  1.00  0.00    -0.026 A 
HETATM   29  C   UNL     1      43.866 -19.986   4.955  1.00  0.00     0.012 A 
HETATM   30  C   UNL     1      43.199 -16.894   3.031  1.00  0.00     0.013 A 
HETATM   31  C   UNL     1      43.534 -19.205   2.303  1.00  0.00     0.012 A 
HETATM   32  C   UNL     1      43.112 -15.947   4.057  1.00  0.00     0.011 A 
HETATM   33  C   UNL     1      43.783 -20.543   2.608  1.00  0.00     0.001 A 
HETATM   34  C   UNL     1      43.949 -20.934   3.934  1.00  0.00     0.001 A 
ENDBRANCH   2  25
TORSDOF 4
ENDMDL
MODEL 4
REMARK VINA RESULT:     -10.3      3.784      7.553
REMARK  4 active torsions:
REMARK  status: ('A' for Active; 'I' for Inactive)
REMARK    1  A    between atoms: C_2  and  C_3 
REMARK    2  A    between atoms: N_16  and  C_17 
REMARK    3  A    between atoms: C_17  and  C_18 
REMARK       I    between atoms: C_18  and  N_19 
REMARK    4  A    between atoms: N_19  and  C_20 
ROOT
HETATM    1  C   UNL     1      40.840 -14.346   1.660  1.00  0.00     0.054 C 
HETATM    2  C   UNL     1      41.285 -14.419   3.124  1.00  0.00     0.140 A 
HETATM    3  N   UNL     1      40.132 -14.231   3.980  1.00  0.00    -0.321 N 
HETATM    4  C   UNL     1      40.197 -13.079   4.722  1.00  0.00     0.326 A 
HETATM    5  O   UNL     1      39.321 -12.720   5.489  1.00  0.00    -0.247 OA
HETATM    6  N   UNL     1      41.361 -12.442   4.437  1.00  0.00    -0.259 N 
HETATM    7  C   UNL     1      42.070 -13.138   3.500  1.00  0.00     0.261 A 
HETATM    8  O   UNL     1      43.147 -12.787   3.036  1.00  0.00    -0.270 OA
HETATM    9  H   UNL     1      39.327 -14.840   4.028  1.00  0.00     0.165 HD
ENDROOT
BRANCH   6  10
HETATM   10  C   UNL     1      41.759 -11.183   5.031  1.00  0.00     0.240 C 
BRANCH  10  11
HETATM   11  C   UNL     1      42.663 -11.390   6.246  1.00  0.00     0.240 C 
HETATM   12  N   UNL     1      42.963 -10.233   6.934  1.00  0.00    -0.324 N 
HETATM   13  H   UNL     1      42.441  -9.382   6.720  1.00  0.00     0.169 HD
HETATM   14  O   UNL     1      42.953 -12.527   6.615  1.00  0.00    -0.271 OA
BRANCH  12  15
HETATM   15  C   UNL     1      43.835 -10.077   8.039  1.00  0.00     0.064 A 
HETATM   16  C   UNL     1      43.250  -9.598   9.223  1.00  0.00     0.093 A 
HETATM   17  C   UNL     1      44.075  -9.411  10.354  1.00  0.00    -0.005 A 
HETATM   18  N   UNL     1      41.923  -9.330   9.257  1.00  0.00    -0.258 NA
HETATM   19  C   UNL     1      43.484  -8.944  11.535  1.00  0.00     0.015 A 
HETATM   20  C   UNL     1      45.449  -9.692  10.283  1.00  0.00     0.014 A 
HETATM   21  C   UNL     1      42.123  -8.674  11.569  1.00  0.00     0.020 A 
HETATM   22  C   UNL     1      41.392  -8.878  10.414  1.00  0.00     0.117 A 
HETATM   23  C   UNL     1      46.011 -10.154   9.097  1.00  0.00     0.003 A 
HETATM   24  C   UNL     1      45.206 -10.346   7.976  1.00  0.00     0.032 A 
ENDBRANCH  12  15
ENDBRANCH  10  11
ENDBRANCH   6  10
BRANCH   2  25
HETATM   25  C   UNL     1      42.074 -15.686   3.440  1.00  0.00    -0.020 A 
HETATM   26  C   UNL     1      42.082 -16.804   2.584  1.00  0.00     0.022 A 
HETATM   27  C   UNL     1      42.824 -17.962   2.884  1.00  0.00    -0.025 A 
HETATM   28  C   UNL     1      43.580 -18.013   4.075  1.00  0.00    -0.026 A 
HETATM   29  C   UNL     1      42.831 -19.071   2.022  1.00  0.00     0.012 A 
HETATM   30  C   UNL     1      43.570 -16.909   4.935  1.00  0.00     0.013 A 
HETATM   31  C   UNL     1      44.322 -19.167   4.372  1.00  0.00     0.012 A 
HETATM   32  C   UNL     1      42.827 -15.766   4.623  1.00  0.00     0.011 A 
HETATM   33  C   UNL     1      44.320 -20.259   3.503  1.00  0.00     0.001 A 
HETATM   34  C   UNL     1      43.575 -20.212   2.329  1.00  0.00     0.001 A 
ENDBRANCH   2  25
TORSDOF 4
ENDMDL
MODEL 5
REMARK VINA RESULT:     -10.2      1.678      2.149
REMARK  4 active torsions:
REMARK  status: ('A' for Active; 'I' for Inactive)
REMARK    1  A    between atoms: C_2  and  C_3 
REMARK    2  A    between atoms: N_16  and  C_17 
REMARK    3  A    between atoms: C_17  and  C_18 
REMARK       I    between atoms: C_18  and  N_19 
REMARK    4  A    between atoms: N_19  and  C_20 
ROOT
HETATM    1  C   UNL     1      43.414 -12.813   6.524  1.00  0.00     0.054 C 
HETATM    2  C   UNL     1      42.938 -13.392   5.189  1.00  0.00     0.140 A 
HETATM    3  N   UNL     1      43.482 -12.598   4.106  1.00  0.00    -0.321 N 
HETATM    4  C   UNL     1      42.519 -11.934   3.391  1.00  0.00     0.326 A 
HETATM    5  O   UNL     1      42.763 -11.194   2.454  1.00  0.00    -0.247 OA
HETATM    6  N   UNL     1      41.303 -12.234   3.914  1.00  0.00    -0.259 N 
HETATM    7  C   UNL     1      41.436 -13.074   4.982  1.00  0.00     0.261 A 
HETATM    8  O   UNL     1      40.508 -13.491   5.663  1.00  0.00    -0.270 OA
HETATM    9  H   UNL     1      44.463 -12.487   3.891  1.00  0.00     0.165 HD
ENDROOT
BRANCH   6  10
HETATM   10  C   UNL     1      40.054 -11.700   3.412  1.00  0.00     0.240 C 
BRANCH  10  11
HETATM   11  C   UNL     1      39.441 -12.601   2.341  1.00  0.00     0.240 C 
HETATM   12  N   UNL     1      39.765 -12.248   1.048  1.00  0.00    -0.324 N 
HETATM   13  H   UNL     1      40.506 -11.562   0.896  1.00  0.00     0.169 HD
HETATM   14  O   UNL     1      38.836 -13.623   2.663  1.00  0.00    -0.271 OA
BRANCH  12  15
HETATM   15  C   UNL     1      39.294 -12.823  -0.158  1.00  0.00     0.064 A 
HETATM   16  C   UNL     1      38.326 -12.083  -0.856  1.00  0.00     0.093 A 
HETATM   17  C   UNL     1      37.812 -12.615  -2.059  1.00  0.00    -0.005 A 
HETATM   18  N   UNL     1      37.911 -10.890  -0.370  1.00  0.00    -0.258 NA
HETATM   19  C   UNL     1      36.855 -11.867  -2.758  1.00  0.00     0.015 A 
HETATM   20  C   UNL     1      38.259 -13.859  -2.533  1.00  0.00     0.014 A 
HETATM   21  C   UNL     1      36.433 -10.642  -2.259  1.00  0.00     0.020 A 
HETATM   22  C   UNL     1      36.984 -10.202  -1.070  1.00  0.00     0.117 A 
HETATM   23  C   UNL     1      39.210 -14.581  -1.820  1.00  0.00     0.003 A 
HETATM   24  C   UNL     1      39.728 -14.065  -0.633  1.00  0.00     0.032 A 
ENDBRANCH  12  15
ENDBRANCH  10  11
ENDBRANCH   6  10
BRANCH   2  25
HETATM   25  C   UNL     1      43.230 -14.883   5.053  1.00  0.00    -0.020 A 
HETATM   26  C   UNL     1      43.043 -15.581   3.845  1.00  0.00     0.022 A 
HETATM   27  C   UNL     1      43.327 -16.956   3.731  1.00  0.00    -0.025 A 
HETATM   28  C   UNL     1      43.807 -17.661   4.856  1.00  0.00    -0.026 A 
HETATM   29  C   UNL     1      43.144 -17.644   2.520  1.00  0.00     0.012 A 
HETATM   30  C   UNL     1      43.986 -16.975   6.062  1.00  0.00     0.013 A 
HETATM   31  C   UNL     1      44.092 -19.031   4.741  1.00  0.00     0.012 A 
HETATM   32  C   UNL     1      43.699 -15.610   6.159  1.00  0.00     0.011 A 
HETATM   33  C   UNL     1      43.907 -19.698   3.530  1.00  0.00     0.001 A 
HETATM   34  C   UNL     1      43.433 -19.006   2.420  1.00  0.00     0.001 A 
ENDBRANCH   2  25
TORSDOF 4
ENDMDL
MODEL 6
REMARK VINA RESULT:     -10.0      3.713      6.865
REMARK  4 active torsions:
REMARK  status: ('A' for Active; 'I' for Inactive)
REMARK    1  A    between atoms: C_2  and  C_3 
REMARK    2  A    between atoms: N_16  and  C_17 
REMARK    3  A    between atoms: C_17  and  C_18 
REMARK       I    between atoms: C_18  and  N_19 
REMARK    4  A    between atoms: N_19  and  C_20 
ROOT
HETATM    1  C   UNL     1      43.862 -14.312   6.691  1.00  0.00     0.054 C 
HETATM    2  C   UNL     1      42.997 -14.230   5.431  1.00  0.00     0.140 A 
HETATM    3  N   UNL     1      43.332 -13.024   4.702  1.00  0.00    -0.321 N 
HETATM    4  C   UNL     1      42.300 -12.122   4.652  1.00  0.00     0.326 A 
HETATM    5  O   UNL     1      42.379 -11.035   4.109  1.00  0.00    -0.247 OA
HETATM    6  N   UNL     1      41.233 -12.645   5.308  1.00  0.00    -0.259 N 
HETATM    7  C   UNL     1      41.539 -13.875   5.815  1.00  0.00     0.261 A 
HETATM    8  O   UNL     1      40.774 -14.570   6.473  1.00  0.00    -0.270 OA
HETATM    9  H   UNL     1      44.232 -12.813   4.292  1.00  0.00     0.165 HD
ENDROOT
BRANCH   6  10
HETATM   10  C   UNL     1      39.966 -11.960   5.464  1.00  0.00     0.240 C 
BRANCH  10  11
HETATM   11  C   UNL     1      39.918 -11.144   6.755  1.00  0.00     0.240 C 
HETATM   12  N   UNL     1      40.994 -10.300   6.933  1.00  0.00    -0.324 N 
HETATM   13  H   UNL     1      41.628 -10.136   6.150  1.00  0.00     0.169 HD
HETATM   14  O   UNL     1      38.916 -11.170   7.468  1.00  0.00    -0.271 OA
BRANCH  12  15
HETATM   15  C   UNL     1      41.287  -9.483   8.053  1.00  0.00     0.064 A 
HETATM   16  C   UNL     1      42.571  -9.627   8.602  1.00  0.00     0.093 A 
HETATM   17  C   UNL     1      42.913  -8.846   9.728  1.00  0.00    -0.005 A 
HETATM   18  N   UNL     1      43.446 -10.499   8.047  1.00  0.00    -0.258 NA
HETATM   19  C   UNL     1      44.200  -8.986  10.264  1.00  0.00     0.015 A 
HETATM   20  C   UNL     1      41.980  -7.956  10.284  1.00  0.00     0.014 A 
HETATM   21  C   UNL     1      45.097  -9.878   9.691  1.00  0.00     0.020 A 
HETATM   22  C   UNL     1      44.675 -10.607   8.596  1.00  0.00     0.117 A 
HETATM   23  C   UNL     1      40.708  -7.838   9.732  1.00  0.00     0.003 A 
HETATM   24  C   UNL     1      40.361  -8.600   8.618  1.00  0.00     0.032 A 
ENDBRANCH  12  15
ENDBRANCH  10  11
ENDBRANCH   6  10
BRANCH   2  25
HETATM   25  C   UNL     1      43.072 -15.493   4.578  1.00  0.00    -0.020 A 
HETATM   26  C   UNL     1      43.527 -16.723   5.090  1.00  0.00     0.022 A 
HETATM   27  C   UNL     1      43.580 -17.883   4.293  1.00  0.00    -0.025 A 
HETATM   28  C   UNL     1      43.172 -17.818   2.944  1.00  0.00    -0.026 A 
HETATM   29  C   UNL     1      44.030 -19.108   4.814  1.00  0.00     0.012 A 
HETATM   30  C   UNL     1      42.728 -16.597   2.426  1.00  0.00     0.013 A 
HETATM   31  C   UNL     1      43.223 -18.976   2.152  1.00  0.00     0.012 A 
HETATM   32  C   UNL     1      42.681 -15.453   3.230  1.00  0.00     0.011 A 
HETATM   33  C   UNL     1      43.670 -20.185   2.685  1.00  0.00     0.001 A 
HETATM   34  C   UNL     1      44.073 -20.252   4.015  1.00  0.00     0.001 A 
ENDBRANCH   2  25
TORSDOF 4
ENDMDL
MODEL 7
REMARK VINA RESULT:      -9.8      3.019      7.498
REMARK  4 active torsions:
REMARK  status: ('A' for Active; 'I' for Inactive)
REMARK    1  A    between atoms: C_2  and  C_3 
REMARK    2  A    between atoms: N_16  and  C_17 
REMARK    3  A    between atoms: C_17  and  C_18 
REMARK       I    between atoms: C_18  and  N_19 
REMARK    4  A    between atoms: N_19  and  C_20 
ROOT
HETATM    1  C   UNL     1      40.212 -10.218   5.101  1.00  0.00     0.054 C 
HETATM    2  C   UNL     1      41.551 -10.763   4.595  1.00  0.00     0.140 A 
HETATM    3  N   UNL     1      41.901 -10.091   3.361  1.00  0.00    -0.321 N 
HETATM    4  C   UNL     1      41.919 -10.932   2.277  1.00  0.00     0.326 A 
HETATM    5  O   UNL     1      42.166 -10.566   1.142  1.00  0.00    -0.247 OA
HETATM    6  N   UNL     1      41.605 -12.185   2.694  1.00  0.00    -0.259 N 
HETATM    7  C   UNL     1      41.359 -12.195   4.037  1.00  0.00     0.261 A 
HETATM    8  O   UNL     1      41.030 -13.184   4.679  1.00  0.00    -0.270 OA
HETATM    9  H   UNL     1      42.083  -9.102   3.258  1.00  0.00     0.165 HD
ENDROOT
BRANCH   6  10
HETATM   10  C   UNL     1      41.519 -13.332   1.812  1.00  0.00     0.240 C 
BRANCH  10  11
HETATM   11  C   UNL     1      42.559 -14.395   2.162  1.00  0.00     0.240 C 
HETATM   12  N   UNL     1      42.027 -15.579   2.627  1.00  0.00    -0.324 N 
HETATM   13  H   UNL     1      41.022 -15.737   2.538  1.00  0.00     0.169 HD
HETATM   14  O   UNL     1      43.746 -14.211   1.896  1.00  0.00    -0.271 OA
BRANCH  12  15
HETATM   15  C   UNL     1      42.718 -16.716   3.111  1.00  0.00     0.064 A 
HETATM   16  C   UNL     1      42.852 -16.810   4.506  1.00  0.00     0.093 A 
HETATM   17  C   UNL     1      43.543 -17.918   5.043  1.00  0.00    -0.005 A 
HETATM   18  N   UNL     1      42.320 -15.849   5.299  1.00  0.00    -0.258 NA
HETATM   19  C   UNL     1      43.663 -18.012   6.436  1.00  0.00     0.015 A 
HETATM   20  C   UNL     1      44.089 -18.893   4.194  1.00  0.00     0.014 A 
HETATM   21  C   UNL     1      43.114 -17.027   7.247  1.00  0.00     0.020 A 
HETATM   22  C   UNL     1      42.461 -15.974   6.636  1.00  0.00     0.117 A 
HETATM   23  C   UNL     1      43.956 -18.776   2.813  1.00  0.00     0.003 A 
HETATM   24  C   UNL     1      43.271 -17.689   2.272  1.00  0.00     0.032 A 
ENDBRANCH  12  15
ENDBRANCH  10  11
ENDBRANCH   6  10
BRANCH   2  25
HETATM   25  C   UNL     1      42.651 -10.704   5.650  1.00  0.00    -0.020 A 
HETATM   26  C   UNL     1      42.497 -10.005   6.862  1.00  0.00     0.022 A 
HETATM   27  C   UNL     1      43.518  -9.969   7.832  1.00  0.00    -0.025 A 
HETATM   28  C   UNL     1      44.732 -10.646   7.587  1.00  0.00    -0.026 A 
HETATM   29  C   UNL     1      43.354  -9.274   9.042  1.00  0.00     0.012 A 
HETATM   30  C   UNL     1      44.895 -11.334   6.380  1.00  0.00     0.013 A 
HETATM   31  C   UNL     1      45.748 -10.611   8.556  1.00  0.00     0.012 A 
HETATM   32  C   UNL     1      43.872 -11.361   5.427  1.00  0.00     0.011 A 
HETATM   33  C   UNL     1      45.568  -9.919   9.753  1.00  0.00     0.001 A 
HETATM   34  C   UNL     1      44.372  -9.250   9.996  1.00  0.00     0.001 A 
ENDBRANCH   2  25
TORSDOF 4
ENDMDL
MODEL 8
REMARK VINA RESULT:      -9.3      1.499      2.867
REMARK  4 active torsions:
REMARK  status: ('A' for Active; 'I' for Inactive)
REMARK    1  A    between atoms: C_2  and  C_3 
REMARK    2  A    between atoms: N_16  and  C_17 
REMARK    3  A    between atoms: C_17  and  C_18 
REMARK       I    between atoms: C_18  and  N_19 
REMARK    4  A    between atoms: N_19  and  C_20 
ROOT
HETATM    1  C   UNL     1      40.256 -14.765   6.765  1.00  0.00     0.054 C 
HETATM    2  C   UNL     1      41.441 -14.307   5.910  1.00  0.00     0.140 A 
HETATM    3  N   UNL     1      42.231 -13.355   6.664  1.00  0.00    -0.321 N 
HETATM    4  C   UNL     1      42.219 -12.097   6.119  1.00  0.00     0.326 A 
HETATM    5  O   UNL     1      42.800 -11.144   6.609  1.00  0.00    -0.247 OA
HETATM    6  N   UNL     1      41.460 -12.116   4.994  1.00  0.00    -0.259 N 
HETATM    7  C   UNL     1      40.944 -13.363   4.786  1.00  0.00     0.261 A 
HETATM    8  O   UNL     1      40.203 -13.667   3.861  1.00  0.00    -0.270 OA
HETATM    9  H   UNL     1      42.722 -13.548   7.526  1.00  0.00     0.165 HD
ENDROOT
BRANCH   6  10
HETATM   10  C   UNL     1      41.217 -10.954   4.164  1.00  0.00     0.240 C 
BRANCH  10  11
HETATM   11  C   UNL     1      41.750 -11.150   2.745  1.00  0.00     0.240 C 
HETATM   12  N   UNL     1      40.870 -10.775   1.752  1.00  0.00    -0.324 N 
HETATM   13  H   UNL     1      40.037 -10.242   2.006  1.00  0.00     0.169 HD
HETATM   14  O   UNL     1      42.920 -11.481   2.563  1.00  0.00    -0.271 OA
BRANCH  12  15
HETATM   15  C   UNL     1      41.027 -10.910   0.351  1.00  0.00     0.064 A 
HETATM   16  C   UNL     1      40.611 -12.132  -0.202  1.00  0.00     0.093 A 
HETATM   17  C   UNL     1      40.756 -12.325  -1.593  1.00  0.00    -0.005 A 
HETATM   18  N   UNL     1      40.085 -13.088   0.600  1.00  0.00    -0.258 NA
HETATM   19  C   UNL     1      40.329 -13.543  -2.141  1.00  0.00     0.015 A 
HETATM   20  C   UNL     1      41.312 -11.316  -2.396  1.00  0.00     0.014 A 
HETATM   21  C   UNL     1      39.787 -14.520  -1.317  1.00  0.00     0.020 A 
HETATM   22  C   UNL     1      39.689 -14.249   0.034  1.00  0.00     0.117 A 
HETATM   23  C   UNL     1      41.729 -10.117  -1.827  1.00  0.00     0.003 A 
HETATM   24  C   UNL     1      41.587  -9.913  -0.455  1.00  0.00     0.032 A 
ENDBRANCH  12  15
ENDBRANCH  10  11
ENDBRANCH   6  10
BRANCH   2  25
HETATM   25  C   UNL     1      42.258 -15.470   5.359  1.00  0.00    -0.020 A 
HETATM   26  C   UNL     1      41.912 -16.139   4.169  1.00  0.00     0.022 A 
HETATM   27  C   UNL     1      42.683 -17.205   3.667  1.00  0.00    -0.025 A 
HETATM   28  C   UNL     1      43.832 -17.623   4.371  1.00  0.00    -0.026 A 
HETATM   29  C   UNL     1      42.334 -17.863   2.475  1.00  0.00     0.012 A 
HETATM   30  C   UNL     1      44.177 -16.970   5.559  1.00  0.00     0.013 A 
HETATM   31  C   UNL     1      44.601 -18.685   3.867  1.00  0.00     0.012 A 
HETATM   32  C   UNL     1      43.401 -15.913   6.045  1.00  0.00     0.011 A 
HETATM   33  C   UNL     1      44.242 -19.325   2.681  1.00  0.00     0.001 A 
HETATM   34  C   UNL     1      43.109 -18.915   1.985  1.00  0.00     0.001 A 
ENDBRANCH   2  25
TORSDOF 4
ENDMDL
MODEL 9
REMARK VINA RESULT:      -9.2      1.966      8.649
REMARK  4 active torsions:
REMARK  status: ('A' for Active; 'I' for Inactive)
REMARK    1  A    between atoms: C_2  and  C_3 
REMARK    2  A    between atoms: N_16  and  C_17 
REMARK    3  A    between atoms: C_17  and  C_18 
REMARK       I    between atoms: C_18  and  N_19 
REMARK    4  A    between atoms: N_19  and  C_20 
ROOT
HETATM    1  C   UNL     1      38.311 -13.062  -2.111  1.00  0.00     0.054 C 
HETATM    2  C   UNL     1      39.512 -12.574  -1.297  1.00  0.00     0.140 A 
HETATM    3  N   UNL     1      40.442 -13.670  -1.119  1.00  0.00    -0.321 N 
HETATM    4  C   UNL     1      40.570 -14.059   0.190  1.00  0.00     0.326 A 
HETATM    5  O   UNL     1      41.282 -14.977   0.555  1.00  0.00    -0.247 OA
HETATM    6  N   UNL     1      39.774 -13.272   0.958  1.00  0.00    -0.259 N 
HETATM    7  C   UNL     1      39.099 -12.374   0.183  1.00  0.00     0.261 A 
HETATM    8  O   UNL     1      38.292 -11.554   0.604  1.00  0.00    -0.270 OA
HETATM    9  H   UNL     1      40.936 -14.151  -1.858  1.00  0.00     0.165 HD
ENDROOT
BRANCH   6  10
HETATM   10  C   UNL     1      39.649 -13.407   2.395  1.00  0.00     0.240 C 
BRANCH  10  11
HETATM   11  C   UNL     1      40.999 -13.678   3.058  1.00  0.00     0.240 C 
HETATM   12  N   UNL     1      41.116 -14.935   3.614  1.00  0.00    -0.324 N 
HETATM   13  H   UNL     1      40.407 -15.638   3.399  1.00  0.00     0.169 HD
HETATM   14  O   UNL     1      41.916 -12.866   2.951  1.00  0.00    -0.271 OA
BRANCH  12  15
HETATM   15  C   UNL     1      42.195 -15.459   4.367  1.00  0.00     0.064 A 
HETATM   16  C   UNL     1      42.764 -16.648   3.884  1.00  0.00     0.093 A 
HETATM   17  C   UNL     1      43.836 -17.222   4.602  1.00  0.00    -0.005 A 
HETATM   18  N   UNL     1      42.282 -17.213   2.752  1.00  0.00    -0.258 NA
HETATM   19  C   UNL     1      44.407 -18.403   4.109  1.00  0.00     0.015 A 
HETATM   20  C   UNL     1      44.308 -16.615   5.777  1.00  0.00     0.014 A 
HETATM   21  C   UNL     1      43.913 -18.978   2.947  1.00  0.00     0.020 A 
HETATM   22  C   UNL     1      42.857 -18.353   2.312  1.00  0.00     0.117 A 
HETATM   23  C   UNL     1      43.723 -15.443   6.246  1.00  0.00     0.003 A 
HETATM   24  C   UNL     1      42.668 -14.865   5.542  1.00  0.00     0.032 A 
ENDBRANCH  12  15
ENDBRANCH  10  11
ENDBRANCH   6  10
BRANCH   2  25
HETATM   25  C   UNL     1      40.156 -11.322  -1.884  1.00  0.00    -0.020 A 
HETATM   26  C   UNL     1      41.112 -10.564  -1.181  1.00  0.00     0.022 A 
HETATM   27  C   UNL     1      41.706  -9.417  -1.741  1.00  0.00    -0.025 A 
HETATM   28  C   UNL     1      41.335  -9.006  -3.039  1.00  0.00    -0.026 A 
HETATM   29  C   UNL     1      42.664  -8.670  -1.034  1.00  0.00     0.012 A 
HETATM   30  C   UNL     1      40.378  -9.748  -3.739  1.00  0.00     0.013 A 
HETATM   31  C   UNL     1      41.930  -7.863  -3.596  1.00  0.00     0.012 A 
HETATM   32  C   UNL     1      39.798 -10.886  -3.170  1.00  0.00     0.011 A 
HETATM   33  C   UNL     1      42.881  -7.134  -2.883  1.00  0.00     0.001 A 
HETATM   34  C   UNL     1      43.248  -7.537  -1.602  1.00  0.00     0.001 A 
ENDBRANCH   2  25
TORSDOF 4
ENDMDL
MODEL 10
REMARK VINA RESULT:      -9.1      4.902      8.216
REMARK  4 active torsions:
REMARK  status: ('A' for Active; 'I' for Inactive)
REMARK    1  A    between atoms: C_2  and  C_3 
REMARK    2  A    between atoms: N_16  and  C_17 
REMARK    3  A    between atoms: C_17  and  C_18 
REMARK       I    between atoms: C_18  and  N_19 
REMARK    4  A    between atoms: N_19  and  C_20 
ROOT
HETATM    1  C   UNL     1      41.998 -11.577   2.250  1.00  0.00     0.054 C 
HETATM    2  C   UNL     1      42.248 -12.397   3.518  1.00  0.00     0.140 A 
HETATM    3  N   UNL     1      41.113 -12.255   4.406  1.00  0.00    -0.321 N 
HETATM    4  C   UNL     1      41.422 -11.608   5.575  1.00  0.00     0.326 A 
HETATM    5  O   UNL     1      40.608 -11.365   6.449  1.00  0.00    -0.247 OA
HETATM    6  N   UNL     1      42.742 -11.293   5.562  1.00  0.00    -0.259 N 
HETATM    7  C   UNL     1      43.320 -11.700   4.393  1.00  0.00     0.261 A 
HETATM    8  O   UNL     1      44.495 -11.526   4.097  1.00  0.00    -0.270 OA
HETATM    9  H   UNL     1      40.167 -12.553   4.207  1.00  0.00     0.165 HD
ENDROOT
BRANCH   6  10
HETATM   10  C   UNL     1      43.416 -10.592   6.635  1.00  0.00     0.240 C 
BRANCH  10  11
HETATM   11  C   UNL     1      42.508  -9.553   7.292  1.00  0.00     0.240 C 
HETATM   12  N   UNL     1      42.115  -9.872   8.575  1.00  0.00    -0.324 N 
HETATM   13  H   UNL     1      42.580 -10.644   9.055  1.00  0.00     0.169 HD
HETATM   14  O   UNL     1      42.292  -8.477   6.735  1.00  0.00    -0.271 OA
BRANCH  12  15
HETATM   15  C   UNL     1      41.216  -9.169   9.413  1.00  0.00     0.064 A 
HETATM   16  C   UNL     1      41.741  -8.707  10.631  1.00  0.00     0.093 A 
HETATM   17  C   UNL     1      40.884  -8.010  11.511  1.00  0.00    -0.005 A 
HETATM   18  N   UNL     1      43.041  -8.935  10.933  1.00  0.00    -0.258 NA
HETATM   19  C   UNL     1      41.416  -7.541  12.720  1.00  0.00     0.015 A 
HETATM   20  C   UNL     1      39.539  -7.796  11.171  1.00  0.00     0.014 A 
HETATM   21  C   UNL     1      42.750  -7.774  13.026  1.00  0.00     0.020 A 
HETATM   22  C   UNL     1      43.514  -8.471  12.110  1.00  0.00     0.117 A 
HETATM   23  C   UNL     1      39.036  -8.272   9.965  1.00  0.00     0.003 A 
HETATM   24  C   UNL     1      39.872  -8.957   9.086  1.00  0.00     0.032 A 
ENDBRANCH  12  15
ENDBRANCH  10  11
ENDBRANCH   6  10
BRANCH   2  25
HETATM   25  C   UNL     1      42.608 -13.849   3.223  1.00  0.00    -0.020 A 
HETATM   26  C   UNL     1      42.948 -14.764   4.237  1.00  0.00     0.022 A 
HETATM   27  C   UNL     1      43.268 -16.105   3.950  1.00  0.00    -0.025 A 
HETATM   28  C   UNL     1      43.254 -16.551   2.611  1.00  0.00    -0.026 A 
HETATM   29  C   UNL     1      43.600 -17.013   4.969  1.00  0.00     0.012 A 
HETATM   30  C   UNL     1      42.927 -15.644   1.596  1.00  0.00     0.013 A 
HETATM   31  C   UNL     1      43.571 -17.888   2.326  1.00  0.00     0.012 A 
HETATM   32  C   UNL     1      42.612 -14.316   1.898  1.00  0.00     0.011 A 
HETATM   33  C   UNL     1      43.896 -18.778   3.350  1.00  0.00     0.001 A 
HETATM   34  C   UNL     1      43.912 -18.341   4.672  1.00  0.00     0.001 A 
ENDBRANCH   2  25
TORSDOF 4
ENDMDL
