MODEL 1
REMARK VINA RESULT:      -7.3      0.000      0.000
REMARK  5 active torsions:
REMARK  status: ('A' for Active; 'I' for Inactive)
REMARK    1  A    between atoms: C_2  and  O_3 
REMARK    2  A    between atoms: O_3  and  C_4 
REMARK    3  A    between atoms: C_9  and  C_10 
REMARK    4  A    between atoms: C_10  and  N_11 
REMARK       I    between atoms: N_11  and  C_12 
REMARK       I    between atoms: C_12  and  N_13 
REMARK    5  A    between atoms: N_13  and  C_14 
ROOT
HETATM    1  N   UNL     1      42.425 -16.003   5.436  1.00  0.00    -0.338 N 
HETATM    2  C   UNL     1      41.186 -15.741   5.922  1.00  0.00     0.320 C 
HETATM    3  N   UNL     1      40.327 -15.042   5.131  1.00  0.00    -0.309 N 
HETATM    4  O   UNL     1      40.826 -16.066   7.051  1.00  0.00    -0.247 OA
HETATM    5  H   UNL     1      42.799 -15.328   4.785  1.00  0.00     0.164 HD
HETATM    6  H   UNL     1      39.517 -14.747   5.665  1.00  0.00     0.170 HD
ENDROOT
BRANCH   1   7
HETATM    7  C   UNL     1      43.383 -16.817   6.158  1.00  0.00     0.167 C 
BRANCH   7   8
HETATM    8  C   UNL     1      43.641 -18.163   5.533  1.00  0.00     0.013 A 
HETATM    9  C   UNL     1      43.910 -18.275   4.168  1.00  0.00     0.172 A 
HETATM   10  N   UNL     1      44.114 -19.451   3.528  1.00  0.00    -0.237 NA
HETATM   11  C   UNL     1      44.018 -20.574   4.269  1.00  0.00     0.119 A 
HETATM   12  C   UNL     1      43.725 -20.580   5.619  1.00  0.00     0.020 A 
HETATM   13  C   UNL     1      43.527 -19.358   6.256  1.00  0.00     0.014 A 
BRANCH   9  14
HETATM   14  O   UNL     1      43.965 -17.104   3.437  1.00  0.00    -0.334 OA
BRANCH  14  15
HETATM   15  C   UNL     1      43.293 -17.178   2.179  1.00  0.00     0.173 C 
HETATM   16  C   UNL     1      43.486 -15.848   1.472  1.00  0.00     0.034 C 
ENDBRANCH  14  15
ENDBRANCH   9  14
ENDBRANCH   7   8
ENDBRANCH   1   7
BRANCH   3  17
HETATM   17  C   UNL     1      40.284 -14.787   3.748  1.00  0.00     0.037 A 
HETATM   18  C   UNL     1      40.652 -13.583   3.147  1.00  0.00     0.049 A 
HETATM   19  C   UNL     1      40.600 -13.435   1.753  1.00  0.00     0.019 A 
HETATM   20 BR   UNL     1      41.082 -11.739   1.040  1.00  0.00    -0.051 Br
HETATM   21  C   UNL     1      40.213 -14.501   0.928  1.00  0.00    -0.044 A 
HETATM   22  C   UNL     1      40.140 -14.386  -0.569  1.00  0.00     0.049 C 
HETATM   23  C   UNL     1      39.857 -15.711   1.536  1.00  0.00     0.010 A 
HETATM   24  C   UNL     1      39.899 -15.853   2.926  1.00  0.00     0.030 A 
ENDBRANCH   3  17
TORSDOF 5
ENDMDL
MODEL 2
REMARK VINA RESULT:      -7.0      3.638      6.963
REMARK  5 active torsions:
REMARK  status: ('A' for Active; 'I' for Inactive)
REMARK    1  A    between atoms: C_2  and  O_3 
REMARK    2  A    between atoms: O_3  and  C_4 
REMARK    3  A    between atoms: C_9  and  C_10 
REMARK    4  A    between atoms: C_10  and  N_11 
REMARK       I    between atoms: N_11  and  C_12 
REMARK       I    between atoms: C_12  and  N_13 
REMARK    5  A    between atoms: N_13  and  C_14 
ROOT
HETATM    1  N   UNL     1      41.638 -12.501   1.662  1.00  0.00    -0.338 N 
HETATM    2  C   UNL     1      42.586 -12.112   2.550  1.00  0.00     0.320 C 
HETATM    3  N   UNL     1      43.151 -13.067   3.337  1.00  0.00    -0.309 N 
HETATM    4  O   UNL     1      42.922 -10.940   2.702  1.00  0.00    -0.247 OA
HETATM    5  H   UNL     1      41.088 -13.307   1.923  1.00  0.00     0.164 HD
HETATM    6  H   UNL     1      43.695 -12.638   4.077  1.00  0.00     0.170 HD
ENDROOT
BRANCH   1   7
HETATM    7  C   UNL     1      41.040 -11.580   0.714  1.00  0.00     0.167 C 
BRANCH   7   8
HETATM    8  C   UNL     1      40.768 -12.182  -0.639  1.00  0.00     0.013 A 
HETATM    9  C   UNL     1      40.060 -13.380  -0.757  1.00  0.00     0.172 A 
HETATM   10  N   UNL     1      39.809 -14.001  -1.934  1.00  0.00    -0.237 NA
HETATM   11  C   UNL     1      40.307 -13.424  -3.047  1.00  0.00     0.119 A 
HETATM   12  C   UNL     1      41.048 -12.257  -3.042  1.00  0.00     0.020 A 
HETATM   13  C   UNL     1      41.286 -11.634  -1.819  1.00  0.00     0.014 A 
BRANCH   9  14
HETATM   14  O   UNL     1      39.597 -13.957   0.409  1.00  0.00    -0.334 OA
BRANCH  14  15
HETATM   15  C   UNL     1      39.926 -15.341   0.537  1.00  0.00     0.173 C 
HETATM   16  C   UNL     1      39.798 -15.714   2.003  1.00  0.00     0.034 C 
ENDBRANCH  14  15
ENDBRANCH   9  14
ENDBRANCH   7   8
ENDBRANCH   1   7
BRANCH   3  17
HETATM   17  C   UNL     1      43.236 -14.469   3.238  1.00  0.00     0.037 A 
HETATM   18  C   UNL     1      43.166 -15.349   4.318  1.00  0.00     0.049 A 
HETATM   19  C   UNL     1      43.234 -16.736   4.115  1.00  0.00     0.019 A 
HETATM   20 BR   UNL     1      43.172 -17.845   5.658  1.00  0.00    -0.051 Br
HETATM   21  C   UNL     1      43.336 -17.272   2.823  1.00  0.00    -0.044 A 
HETATM   22  C   UNL     1      43.413 -18.749   2.558  1.00  0.00     0.049 C 
HETATM   23  C   UNL     1      43.392 -16.383   1.742  1.00  0.00     0.010 A 
HETATM   24  C   UNL     1      43.336 -15.001   1.948  1.00  0.00     0.030 A 
ENDBRANCH   3  17
TORSDOF 5
ENDMDL
MODEL 3
REMARK VINA RESULT:      -6.9      3.063      6.201
REMARK  5 active torsions:
REMARK  status: ('A' for Active; 'I' for Inactive)
REMARK    1  A    between atoms: C_2  and  O_3 
REMARK    2  A    between atoms: O_3  and  C_4 
REMARK    3  A    between atoms: C_9  and  C_10 
REMARK    4  A    between atoms: C_10  and  N_11 
REMARK       I    between atoms: N_11  and  C_12 
REMARK       I    between atoms: C_12  and  N_13 
REMARK    5  A    between atoms: N_13  and  C_14 
ROOT
HETATM    1  N   UNL     1      41.440 -15.219   5.995  1.00  0.00    -0.338 N 
HETATM    2  C   UNL     1      42.725 -14.800   6.113  1.00  0.00     0.320 C 
HETATM    3  N   UNL     1      43.710 -15.649   5.716  1.00  0.00    -0.309 N 
HETATM    4  O   UNL     1      43.033 -13.715   6.600  1.00  0.00    -0.247 OA
HETATM    5  H   UNL     1      41.289 -16.215   6.072  1.00  0.00     0.164 HD
HETATM    6  H   UNL     1      44.615 -15.310   6.025  1.00  0.00     0.170 HD
ENDROOT
BRANCH   1   7
HETATM    7  C   UNL     1      40.314 -14.359   6.303  1.00  0.00     0.167 C 
BRANCH   7   8
HETATM    8  C   UNL     1      40.174 -13.177   5.381  1.00  0.00     0.013 A 
HETATM    9  C   UNL     1      40.167 -13.350   3.995  1.00  0.00     0.172 A 
HETATM   10  N   UNL     1      40.083 -12.334   3.103  1.00  0.00    -0.237 NA
HETATM   11  C   UNL     1      40.033 -11.083   3.606  1.00  0.00     0.119 A 
HETATM   12  C   UNL     1      40.067 -10.796   4.957  1.00  0.00     0.020 A 
HETATM   13  C   UNL     1      40.146 -11.859   5.854  1.00  0.00     0.014 A 
BRANCH   9  14
HETATM   14  O   UNL     1      40.255 -14.644   3.520  1.00  0.00    -0.334 OA
BRANCH  14  15
HETATM   15  C   UNL     1      40.675 -14.730   2.158  1.00  0.00     0.173 C 
HETATM   16  C   UNL     1      39.892 -15.854   1.502  1.00  0.00     0.034 C 
ENDBRANCH  14  15
ENDBRANCH   9  14
ENDBRANCH   7   8
ENDBRANCH   1   7
BRANCH   3  17
HETATM   17  C   UNL     1      43.727 -16.779   4.877  1.00  0.00     0.037 A 
HETATM   18  C   UNL     1      43.939 -18.089   5.307  1.00  0.00     0.049 A 
HETATM   19  C   UNL     1      43.909 -19.154   4.395  1.00  0.00     0.019 A 
HETATM   20 BR   UNL     1      44.252 -20.895   5.079  1.00  0.00    -0.051 Br
HETATM   21  C   UNL     1      43.631 -18.935   3.038  1.00  0.00    -0.044 A 
HETATM   22  C   UNL     1      43.592 -20.044   2.025  1.00  0.00     0.049 C 
HETATM   23  C   UNL     1      43.407 -17.619   2.614  1.00  0.00     0.010 A 
HETATM   24  C   UNL     1      43.448 -16.558   3.523  1.00  0.00     0.030 A 
ENDBRANCH   3  17
TORSDOF 5
ENDMDL
MODEL 4
REMARK VINA RESULT:      -6.9      4.079      5.767
REMARK  5 active torsions:
REMARK  status: ('A' for Active; 'I' for Inactive)
REMARK    1  A    between atoms: C_2  and  O_3 
REMARK    2  A    between atoms: O_3  and  C_4 
REMARK    3  A    between atoms: C_9  and  C_10 
REMARK    4  A    between atoms: C_10  and  N_11 
REMARK       I    between atoms: N_11  and  C_12 
REMARK       I    between atoms: C_12  and  N_13 
REMARK    5  A    between atoms: N_13  and  C_14 
ROOT
HETATM    1  N   UNL     1      41.320 -12.520   5.619  1.00  0.00    -0.338 N 
HETATM    2  C   UNL     1      40.132 -13.148   5.803  1.00  0.00     0.320 C 
HETATM    3  N   UNL     1      39.906 -14.298   5.113  1.00  0.00    -0.309 N 
HETATM    4  O   UNL     1      39.243 -12.703   6.527  1.00  0.00    -0.247 OA
HETATM    5  H   UNL     1      41.749 -12.638   4.712  1.00  0.00     0.164 HD
HETATM    6  H   UNL     1      38.931 -14.567   5.183  1.00  0.00     0.170 HD
ENDROOT
BRANCH   1   7
HETATM    7  C   UNL     1      41.697 -11.340   6.373  1.00  0.00     0.167 C 
BRANCH   7   8
HETATM    8  C   UNL     1      43.182 -11.186   6.570  1.00  0.00     0.013 A 
HETATM    9  C   UNL     1      44.049 -11.180   5.476  1.00  0.00     0.172 A 
HETATM   10  N   UNL     1      45.396 -11.083   5.575  1.00  0.00    -0.237 NA
HETATM   11  C   UNL     1      45.914 -11.018   6.819  1.00  0.00     0.119 A 
HETATM   12  C   UNL     1      45.151 -11.049   7.971  1.00  0.00     0.020 A 
HETATM   13  C   UNL     1      43.767 -11.141   7.842  1.00  0.00     0.014 A 
BRANCH   9  14
HETATM   14  O   UNL     1      43.482 -11.284   4.221  1.00  0.00    -0.334 OA
BRANCH  14  15
HETATM   15  C   UNL     1      44.212 -12.126   3.327  1.00  0.00     0.173 C 
HETATM   16  C   UNL     1      43.245 -13.151   2.762  1.00  0.00     0.034 C 
ENDBRANCH  14  15
ENDBRANCH   9  14
ENDBRANCH   7   8
ENDBRANCH   1   7
BRANCH   3  17
HETATM   17  C   UNL     1      40.757 -15.217   4.469  1.00  0.00     0.037 A 
HETATM   18  C   UNL     1      41.831 -15.869   5.075  1.00  0.00     0.049 A 
HETATM   19  C   UNL     1      42.606 -16.791   4.355  1.00  0.00     0.019 A 
HETATM   20 BR   UNL     1      44.072 -17.591   5.263  1.00  0.00    -0.051 Br
HETATM   21  C   UNL     1      42.299 -17.107   3.024  1.00  0.00    -0.044 A 
HETATM   22  C   UNL     1      43.102 -18.085   2.214  1.00  0.00     0.049 C 
HETATM   23  C   UNL     1      41.212 -16.458   2.425  1.00  0.00     0.010 A 
HETATM   24  C   UNL     1      40.448 -15.532   3.141  1.00  0.00     0.030 A 
ENDBRANCH   3  17
TORSDOF 5
ENDMDL
MODEL 5
REMARK VINA RESULT:      -6.8      1.762      2.906
REMARK  5 active torsions:
REMARK  status: ('A' for Active; 'I' for Inactive)
REMARK    1  A    between atoms: C_2  and  O_3 
REMARK    2  A    between atoms: O_3  and  C_4 
REMARK    3  A    between atoms: C_9  and  C_10 
REMARK    4  A    between atoms: C_10  and  N_11 
REMARK       I    between atoms: N_11  and  C_12 
REMARK       I    between atoms: C_12  and  N_13 
REMARK    5  A    between atoms: N_13  and  C_14 
ROOT
HETATM    1  N   UNL     1      42.117 -14.624   3.412  1.00  0.00    -0.338 N 
HETATM    2  C   UNL     1      40.860 -14.608   3.920  1.00  0.00     0.320 C 
HETATM    3  N   UNL     1      39.861 -14.125   3.134  1.00  0.00    -0.309 N 
HETATM    4  O   UNL     1      40.596 -14.967   5.066  1.00  0.00    -0.247 OA
HETATM    5  H   UNL     1      42.332 -13.906   2.735  1.00  0.00     0.164 HD
HETATM    6  H   UNL     1      39.018 -13.986   3.679  1.00  0.00     0.170 HD
ENDROOT
BRANCH   1   7
HETATM    7  C   UNL     1      43.236 -15.202   4.131  1.00  0.00     0.167 C 
BRANCH   7   8
HETATM    8  C   UNL     1      43.433 -16.674   3.881  1.00  0.00     0.013 A 
HETATM    9  C   UNL     1      44.055 -17.483   4.834  1.00  0.00     0.172 A 
HETATM   10  N   UNL     1      44.301 -18.804   4.667  1.00  0.00    -0.237 NA
HETATM   11  C   UNL     1      43.939 -19.347   3.486  1.00  0.00     0.119 A 
HETATM   12  C   UNL     1      43.346 -18.633   2.462  1.00  0.00     0.020 A 
HETATM   13  C   UNL     1      43.098 -17.278   2.662  1.00  0.00     0.014 A 
BRANCH   9  14
HETATM   14  O   UNL     1      44.443 -16.881   6.016  1.00  0.00    -0.334 OA
BRANCH  14  15
HETATM   15  C   UNL     1      43.646 -17.255   7.141  1.00  0.00     0.173 C 
HETATM   16  C   UNL     1      43.002 -15.996   7.692  1.00  0.00     0.034 C 
ENDBRANCH  14  15
ENDBRANCH   9  14
ENDBRANCH   7   8
ENDBRANCH   1   7
BRANCH   3  17
HETATM   17  C   UNL     1      39.741 -13.925   1.745  1.00  0.00     0.037 A 
HETATM   18  C   UNL     1      39.506 -12.693   1.135  1.00  0.00     0.049 A 
HETATM   19  C   UNL     1      39.430 -12.591  -0.262  1.00  0.00     0.019 A 
HETATM   20 BR   UNL     1      39.064 -10.873  -0.990  1.00  0.00    -0.051 Br
HETATM   21  C   UNL     1      39.622 -13.715  -1.080  1.00  0.00    -0.044 A 
HETATM   22  C   UNL     1      39.547 -13.653  -2.579  1.00  0.00     0.049 C 
HETATM   23  C   UNL     1      39.870 -14.946  -0.461  1.00  0.00     0.010 A 
HETATM   24  C   UNL     1      39.935 -15.047   0.932  1.00  0.00     0.030 A 
ENDBRANCH   3  17
TORSDOF 5
ENDMDL
MODEL 6
REMARK VINA RESULT:      -6.6      3.496      6.787
REMARK  5 active torsions:
REMARK  status: ('A' for Active; 'I' for Inactive)
REMARK    1  A    between atoms: C_2  and  O_3 
REMARK    2  A    between atoms: O_3  and  C_4 
REMARK    3  A    between atoms: C_9  and  C_10 
REMARK    4  A    between atoms: C_10  and  N_11 
REMARK       I    between atoms: N_11  and  C_12 
REMARK       I    between atoms: C_12  and  N_13 
REMARK    5  A    between atoms: N_13  and  C_14 
ROOT
HETATM    1  N   UNL     1      41.253 -14.707   3.666  1.00  0.00    -0.338 N 
HETATM    2  C   UNL     1      42.375 -14.443   4.382  1.00  0.00     0.320 C 
HETATM    3  N   UNL     1      43.218 -15.476   4.647  1.00  0.00    -0.309 N 
HETATM    4  O   UNL     1      42.635 -13.329   4.832  1.00  0.00    -0.247 OA
HETATM    5  H   UNL     1      40.871 -15.637   3.765  1.00  0.00     0.164 HD
HETATM    6  H   UNL     1      43.907 -15.200   5.338  1.00  0.00     0.170 HD
ENDROOT
BRANCH   1   7
HETATM    7  C   UNL     1      40.336 -13.663   3.250  1.00  0.00     0.167 C 
BRANCH   7   8
HETATM    8  C   UNL     1      40.077 -13.628   1.767  1.00  0.00     0.013 A 
HETATM    9  C   UNL     1      39.711 -12.438   1.135  1.00  0.00     0.172 A 
HETATM   10  N   UNL     1      39.426 -12.335  -0.185  1.00  0.00    -0.237 NA
HETATM   11  C   UNL     1      39.476 -13.472  -0.910  1.00  0.00     0.119 A 
HETATM   12  C   UNL     1      39.794 -14.708  -0.381  1.00  0.00     0.020 A 
HETATM   13  C   UNL     1      40.091 -14.785   0.978  1.00  0.00     0.014 A 
BRANCH   9  14
HETATM   14  O   UNL     1      39.637 -11.303   1.920  1.00  0.00    -0.334 OA
BRANCH  14  15
HETATM   15  C   UNL     1      38.311 -10.794   2.071  1.00  0.00     0.173 C 
HETATM   16  C   UNL     1      38.335  -9.768   3.190  1.00  0.00     0.034 C 
ENDBRANCH  14  15
ENDBRANCH   9  14
ENDBRANCH   7   8
ENDBRANCH   1   7
BRANCH   3  17
HETATM   17  C   UNL     1      43.395 -16.747   4.069  1.00  0.00     0.037 A 
HETATM   18  C   UNL     1      43.705 -17.908   4.777  1.00  0.00     0.049 A 
HETATM   19  C   UNL     1      43.834 -19.137   4.113  1.00  0.00     0.019 A 
HETATM   20 BR   UNL     1      44.300 -20.651   5.165  1.00  0.00    -0.051 Br
HETATM   21  C   UNL     1      43.619 -19.236   2.730  1.00  0.00    -0.044 A 
HETATM   22  C   UNL     1      43.749 -20.530   1.977  1.00  0.00     0.049 C 
HETATM   23  C   UNL     1      43.296 -18.069   2.027  1.00  0.00     0.010 A 
HETATM   24  C   UNL     1      43.179 -16.844   2.690  1.00  0.00     0.030 A 
ENDBRANCH   3  17
TORSDOF 5
ENDMDL
MODEL 7
REMARK VINA RESULT:      -6.6      2.590      4.076
REMARK  5 active torsions:
REMARK  status: ('A' for Active; 'I' for Inactive)
REMARK    1  A    between atoms: C_2  and  O_3 
REMARK    2  A    between atoms: O_3  and  C_4 
REMARK    3  A    between atoms: C_9  and  C_10 
REMARK    4  A    between atoms: C_10  and  N_11 
REMARK       I    between atoms: N_11  and  C_12 
REMARK       I    between atoms: C_12  and  N_13 
REMARK    5  A    between atoms: N_13  and  C_14 
ROOT
HETATM    1  N   UNL     1      42.338 -15.933   3.048  1.00  0.00    -0.338 N 
HETATM    2  C   UNL     1      41.015 -15.784   2.789  1.00  0.00     0.320 C 
HETATM    3  N   UNL     1      40.309 -14.915   3.561  1.00  0.00    -0.309 N 
HETATM    4  O   UNL     1      40.425 -16.428   1.923  1.00  0.00    -0.247 OA
HETATM    5  H   UNL     1      42.622 -15.788   4.006  1.00  0.00     0.164 HD
HETATM    6  H   UNL     1      39.314 -15.030   3.403  1.00  0.00     0.170 HD
ENDROOT
BRANCH   1   7
HETATM    7  C   UNL     1      43.199 -16.762   2.227  1.00  0.00     0.167 C 
BRANCH   7   8
HETATM    8  C   UNL     1      43.415 -18.150   2.771  1.00  0.00     0.013 A 
HETATM    9  C   UNL     1      43.931 -18.340   4.055  1.00  0.00     0.172 A 
HETATM   10  N   UNL     1      44.187 -19.554   4.598  1.00  0.00    -0.237 NA
HETATM   11  C   UNL     1      43.950 -20.632   3.823  1.00  0.00     0.119 A 
HETATM   12  C   UNL     1      43.471 -20.558   2.529  1.00  0.00     0.020 A 
HETATM   13  C   UNL     1      43.208 -19.298   1.996  1.00  0.00     0.014 A 
BRANCH   9  14
HETATM   14  O   UNL     1      44.194 -17.209   4.803  1.00  0.00    -0.334 OA
BRANCH  14  15
HETATM   15  C   UNL     1      43.690 -17.272   6.138  1.00  0.00     0.173 C 
HETATM   16  C   UNL     1      44.558 -16.376   7.003  1.00  0.00     0.034 C 
ENDBRANCH  14  15
ENDBRANCH   9  14
ENDBRANCH   7   8
ENDBRANCH   1   7
BRANCH   3  17
HETATM   17  C   UNL     1      40.684 -13.842   4.391  1.00  0.00     0.037 A 
HETATM   18  C   UNL     1      41.880 -13.767   5.106  1.00  0.00     0.049 A 
HETATM   19  C   UNL     1      42.176 -12.640   5.887  1.00  0.00     0.019 A 
HETATM   20 BR   UNL     1      43.813 -12.658   6.854  1.00  0.00    -0.051 Br
HETATM   21  C   UNL     1      41.298 -11.548   5.941  1.00  0.00    -0.044 A 
HETATM   22  C   UNL     1      41.572 -10.322   6.765  1.00  0.00     0.049 C 
HETATM   23  C   UNL     1      40.105 -11.624   5.211  1.00  0.00     0.010 A 
HETATM   24  C   UNL     1      39.807 -12.753   4.442  1.00  0.00     0.030 A 
ENDBRANCH   3  17
TORSDOF 5
ENDMDL
MODEL 8
REMARK VINA RESULT:      -6.6      4.134      6.644
REMARK  5 active torsions:
REMARK  status: ('A' for Active; 'I' for Inactive)
REMARK    1  A    between atoms: C_2  and  O_3 
REMARK    2  A    between atoms: O_3  and  C_4 
REMARK    3  A    between atoms: C_9  and  C_10 
REMARK    4  A    between atoms: C_10  and  N_11 
REMARK       I    between atoms: N_11  and  C_12 
REMARK       I    between atoms: C_12  and  N_13 
REMARK    5  A    between atoms: N_13  and  C_14 
ROOT
HETATM    1  N   UNL     1      43.472 -12.973   3.255  1.00  0.00    -0.338 N 
HETATM    2  C   UNL     1      42.342 -13.347   2.604  1.00  0.00     0.320 C 
HETATM    3  N   UNL     1      42.138 -14.676   2.396  1.00  0.00    -0.309 N 
HETATM    4  O   UNL     1      41.526 -12.542   2.160  1.00  0.00    -0.247 OA
HETATM    5  H   UNL     1      44.272 -13.578   3.141  1.00  0.00     0.164 HD
HETATM    6  H   UNL     1      41.374 -14.818   1.745  1.00  0.00     0.170 HD
ENDROOT
BRANCH   1   7
HETATM    7  C   UNL     1      43.740 -11.592   3.608  1.00  0.00     0.167 C 
BRANCH   7   8
HETATM    8  C   UNL     1      43.939 -11.363   5.083  1.00  0.00     0.013 A 
HETATM    9  C   UNL     1      42.863 -11.014   5.902  1.00  0.00     0.172 A 
HETATM   10  N   UNL     1      42.970 -10.756   7.227  1.00  0.00    -0.237 NA
HETATM   11  C   UNL     1      44.206 -10.817   7.763  1.00  0.00     0.119 A 
HETATM   12  C   UNL     1      45.343 -11.119   7.039  1.00  0.00     0.020 A 
HETATM   13  C   UNL     1      45.206 -11.388   5.680  1.00  0.00     0.014 A 
BRANCH   9  14
HETATM   14  O   UNL     1      41.619 -10.929   5.307  1.00  0.00    -0.334 OA
BRANCH  14  15
HETATM   15  C   UNL     1      40.580 -11.569   6.050  1.00  0.00     0.173 C 
HETATM   16  C   UNL     1      40.607 -13.047   5.703  1.00  0.00     0.034 C 
ENDBRANCH  14  15
ENDBRANCH   9  14
ENDBRANCH   7   8
ENDBRANCH   1   7
BRANCH   3  17
HETATM   17  C   UNL     1      42.667 -15.836   2.993  1.00  0.00     0.037 A 
HETATM   18  C   UNL     1      42.742 -16.061   4.368  1.00  0.00     0.049 A 
HETATM   19  C   UNL     1      43.262 -17.264   4.867  1.00  0.00     0.019 A 
HETATM   20 BR   UNL     1      43.358 -17.453   6.757  1.00  0.00    -0.051 Br
HETATM   21  C   UNL     1      43.685 -18.283   4.000  1.00  0.00    -0.044 A 
HETATM   22  C   UNL     1      44.251 -19.586   4.490  1.00  0.00     0.049 C 
HETATM   23  C   UNL     1      43.596 -18.055   2.621  1.00  0.00     0.010 A 
HETATM   24  C   UNL     1      43.088 -16.851   2.126  1.00  0.00     0.030 A 
ENDBRANCH   3  17
TORSDOF 5
ENDMDL
MODEL 9
REMARK VINA RESULT:      -6.6      4.780      6.867
REMARK  5 active torsions:
REMARK  status: ('A' for Active; 'I' for Inactive)
REMARK    1  A    between atoms: C_2  and  O_3 
REMARK    2  A    between atoms: O_3  and  C_4 
REMARK    3  A    between atoms: C_9  and  C_10 
REMARK    4  A    between atoms: C_10  and  N_11 
REMARK       I    between atoms: N_11  and  C_12 
REMARK       I    between atoms: C_12  and  N_13 
REMARK    5  A    between atoms: N_13  and  C_14 
ROOT
HETATM    1  N   UNL     1      41.395 -12.330   5.555  1.00  0.00    -0.338 N 
HETATM    2  C   UNL     1      40.226 -12.963   5.825  1.00  0.00     0.320 C 
HETATM    3  N   UNL     1      39.985 -14.147   5.202  1.00  0.00    -0.309 N 
HETATM    4  O   UNL     1      39.367 -12.495   6.569  1.00  0.00    -0.247 OA
HETATM    5  H   UNL     1      41.782 -12.486   4.635  1.00  0.00     0.164 HD
HETATM    6  H   UNL     1      39.018 -14.424   5.332  1.00  0.00     0.170 HD
ENDROOT
BRANCH   1   7
HETATM    7  C   UNL     1      41.791 -11.111   6.234  1.00  0.00     0.167 C 
BRANCH   7   8
HETATM    8  C   UNL     1      43.247 -11.064   6.612  1.00  0.00     0.013 A 
HETATM    9  C   UNL     1      43.666 -10.378   7.754  1.00  0.00     0.172 A 
HETATM   10  N   UNL     1      44.959 -10.259   8.138  1.00  0.00    -0.237 NA
HETATM   11  C   UNL     1      45.887 -10.823   7.338  1.00  0.00     0.119 A 
HETATM   12  C   UNL     1      45.587 -11.497   6.169  1.00  0.00     0.020 A 
HETATM   13  C   UNL     1      44.250 -11.611   5.800  1.00  0.00     0.014 A 
BRANCH   9  14
HETATM   14  O   UNL     1      42.687  -9.784   8.527  1.00  0.00    -0.334 OA
BRANCH  14  15
HETATM   15  C   UNL     1      43.193  -9.119   9.686  1.00  0.00     0.173 C 
HETATM   16  C   UNL     1      42.634  -9.827  10.907  1.00  0.00     0.034 C 
ENDBRANCH  14  15
ENDBRANCH   9  14
ENDBRANCH   7   8
ENDBRANCH   1   7
BRANCH   3  17
HETATM   17  C   UNL     1      40.817 -15.085   4.562  1.00  0.00     0.037 A 
HETATM   18  C   UNL     1      41.825 -15.816   5.191  1.00  0.00     0.049 A 
HETATM   19  C   UNL     1      42.585 -16.750   4.471  1.00  0.00     0.019 A 
HETATM   20 BR   UNL     1      43.963 -17.661   5.413  1.00  0.00    -0.051 Br
HETATM   21  C   UNL     1      42.327 -17.000   3.115  1.00  0.00    -0.044 A 
HETATM   22  C   UNL     1      43.116 -17.989   2.305  1.00  0.00     0.049 C 
HETATM   23  C   UNL     1      41.305 -16.273   2.493  1.00  0.00     0.010 A 
HETATM   24  C   UNL     1      40.556 -15.334   3.209  1.00  0.00     0.030 A 
ENDBRANCH   3  17
TORSDOF 5
ENDMDL
MODEL 10
REMARK VINA RESULT:      -6.6      3.979      7.474
REMARK  5 active torsions:
REMARK  status: ('A' for Active; 'I' for Inactive)
REMARK    1  A    between atoms: C_2  and  O_3 
REMARK    2  A    between atoms: O_3  and  C_4 
REMARK    3  A    between atoms: C_9  and  C_10 
REMARK    4  A    between atoms: C_10  and  N_11 
REMARK       I    between atoms: N_11  and  C_12 
REMARK       I    between atoms: C_12  and  N_13 
REMARK    5  A    between atoms: N_13  and  C_14 
ROOT
HETATM    1  N   UNL     1      40.607 -13.951   1.310  1.00  0.00    -0.338 N 
HETATM    2  C   UNL     1      39.880 -14.031   2.452  1.00  0.00     0.320 C 
HETATM    3  N   UNL     1      40.159 -15.045   3.314  1.00  0.00    -0.309 N 
HETATM    4  O   UNL     1      38.959 -13.260   2.715  1.00  0.00    -0.247 OA
HETATM    5  H   UNL     1      40.954 -14.825   0.941  1.00  0.00     0.164 HD
HETATM    6  H   UNL     1      39.437 -15.114   4.024  1.00  0.00     0.170 HD
ENDROOT
BRANCH   1   7
HETATM    7  C   UNL     1      40.453 -12.859   0.368  1.00  0.00     0.167 C 
BRANCH   7   8
HETATM    8  C   UNL     1      39.558 -13.177  -0.800  1.00  0.00     0.013 A 
HETATM    9  C   UNL     1      38.624 -12.246  -1.258  1.00  0.00     0.172 A 
HETATM   10  N   UNL     1      37.761 -12.473  -2.277  1.00  0.00    -0.237 NA
HETATM   11  C   UNL     1      37.804 -13.692  -2.853  1.00  0.00     0.119 A 
HETATM   12  C   UNL     1      38.665 -14.698  -2.458  1.00  0.00     0.020 A 
HETATM   13  C   UNL     1      39.548 -14.437  -1.413  1.00  0.00     0.014 A 
BRANCH   9  14
HETATM   14  O   UNL     1      38.588 -11.022  -0.618  1.00  0.00    -0.334 OA
BRANCH  14  15
HETATM   15  C   UNL     1      37.266 -10.540  -0.371  1.00  0.00     0.173 C 
HETATM   16  C   UNL     1      36.842 -11.033   1.001  1.00  0.00     0.034 C 
ENDBRANCH  14  15
ENDBRANCH   9  14
ENDBRANCH   7   8
ENDBRANCH   1   7
BRANCH   3  17
HETATM   17  C   UNL     1      41.277 -15.883   3.485  1.00  0.00     0.037 A 
HETATM   18  C   UNL     1      42.123 -15.867   4.594  1.00  0.00     0.049 A 
HETATM   19  C   UNL     1      43.199 -16.763   4.685  1.00  0.00     0.019 A 
HETATM   20 BR   UNL     1      44.316 -16.629   6.218  1.00  0.00    -0.051 Br
HETATM   21  C   UNL     1      43.429 -17.719   3.684  1.00  0.00    -0.044 A 
HETATM   22  C   UNL     1      44.569 -18.696   3.738  1.00  0.00     0.049 C 
HETATM   23  C   UNL     1      42.568 -17.738   2.579  1.00  0.00     0.010 A 
HETATM   24  C   UNL     1      41.503 -16.836   2.486  1.00  0.00     0.030 A 
ENDBRANCH   3  17
TORSDOF 5
ENDMDL
