MODEL 1
REMARK VINA RESULT:      -9.2      0.000      0.000
REMARK  6 active torsions:
REMARK  status: ('A' for Active; 'I' for Inactive)
REMARK    1  A    between atoms: O_2  and  C_3 
REMARK    2  A    between atoms: C_6  and  C_7 
REMARK    3  A    between atoms: C_7  and  N_8 
REMARK       I    between atoms: N_8  and  C_9 
REMARK    4  A    between atoms: C_9  and  C_10 
REMARK    5  A    between atoms: C_10  and  O_11 
REMARK    6  A    between atoms: N_12  and  C_13 
ROOT
HETATM    1  C   UNL     1      42.711 -16.058   3.391  1.00  0.00     0.256 C 
HETATM    2  N   UNL     1      42.743 -15.494   4.755  1.00  0.00    -0.254 N 
HETATM    3  C   UNL     1      43.574 -16.053   5.718  1.00  0.00     0.330 C 
HETATM    4  O   UNL     1      43.880 -15.532   6.792  1.00  0.00    -0.246 OA
HETATM    5  N   UNL     1      44.061 -17.303   5.487  1.00  0.00    -0.308 N 
HETATM    6  C   UNL     1      43.789 -18.085   4.378  1.00  0.00     0.048 A 
HETATM    7  C   UNL     1      43.078 -17.530   3.323  1.00  0.00     0.034 A 
HETATM    8  C   UNL     1      44.235 -19.408   4.344  1.00  0.00     0.030 A 
HETATM    9  C   UNL     1      43.948 -20.205   3.237  1.00  0.00     0.002 A 
HETATM   10  C   UNL     1      43.236 -19.671   2.168  1.00  0.00     0.001 A 
HETATM   11  C   UNL     1      42.815 -18.338   2.202  1.00  0.00     0.015 A 
HETATM   12  H   UNL     1      44.629 -17.669   6.239  1.00  0.00     0.170 HD
ENDROOT
BRANCH   1  13
HETATM   13  C   UNL     1      41.277 -15.856   2.741  1.00  0.00     0.279 C 
HETATM   14  N   UNL     1      41.211 -15.088   1.597  1.00  0.00    -0.352 N 
HETATM   15  H   UNL     1      42.068 -14.704   1.216  1.00  0.00     0.162 HD
HETATM   16  O   UNL     1      40.280 -16.346   3.282  1.00  0.00    -0.268 OA
BRANCH  14  17
HETATM   17  C   UNL     1      40.010 -15.009   0.797  1.00  0.00     0.161 C 
BRANCH  17  18
HETATM   18  C   UNL     1      40.126 -14.056  -0.363  1.00  0.00    -0.040 A 
HETATM   19  C   UNL     1      40.776 -12.825  -0.217  1.00  0.00     0.011 A 
HETATM   20  C   UNL     1      40.962 -11.986  -1.319  1.00  0.00     0.037 A 
HETATM   21  C   UNL     1      40.506 -12.360  -2.585  1.00  0.00     0.068 A 
HETATM   22  C   UNL     1      39.828 -13.566  -2.734  1.00  0.00     0.037 A 
HETATM   23  C   UNL     1      39.644 -14.409  -1.631  1.00  0.00     0.011 A 
BRANCH  21  24
HETATM   24  O   UNL     1      40.782 -11.468  -3.586  1.00  0.00    -0.356 OA
HETATM   25  C   UNL     1      40.776 -10.092  -3.222  1.00  0.00     0.210 C 
ENDBRANCH  21  24
ENDBRANCH  17  18
ENDBRANCH  14  17
ENDBRANCH   1  13
BRANCH   1  26
HETATM   26  O   UNL     1      43.705 -15.383   2.614  1.00  0.00    -0.359 OA
HETATM   27  H   UNL     1      44.440 -15.218   3.234  1.00  0.00     0.213 HD
ENDBRANCH   1  26
BRANCH   2  28
HETATM   28  C   UNL     1      42.106 -14.226   5.032  1.00  0.00     0.043 A 
HETATM   29  C   UNL     1      40.906 -14.124   5.753  1.00  0.00     0.031 A 
HETATM   30  C   UNL     1      40.350 -12.878   6.070  1.00  0.00     0.026 A 
HETATM   31  C   UNL     1      40.983 -11.710   5.661  1.00  0.00     0.034 A 
HETATM   32 CL   UNL     1      40.308 -10.180   6.060  1.00  0.00    -0.084 Cl
HETATM   33  C   UNL     1      42.164 -11.779   4.934  1.00  0.00     0.026 A 
HETATM   34  C   UNL     1      42.718 -13.027   4.624  1.00  0.00     0.031 A 
ENDBRANCH   2  28
TORSDOF 6
ENDMDL
MODEL 2
REMARK VINA RESULT:      -8.9      1.981      2.388
REMARK  6 active torsions:
REMARK  status: ('A' for Active; 'I' for Inactive)
REMARK    1  A    between atoms: O_2  and  C_3 
REMARK    2  A    between atoms: C_6  and  C_7 
REMARK    3  A    between atoms: C_7  and  N_8 
REMARK       I    between atoms: N_8  and  C_9 
REMARK    4  A    between atoms: C_9  and  C_10 
REMARK    5  A    between atoms: C_10  and  O_11 
REMARK    6  A    between atoms: N_12  and  C_13 
ROOT
HETATM    1  C   UNL     1      42.555 -15.207   2.783  1.00  0.00     0.256 C 
HETATM    2  N   UNL     1      42.321 -14.373   3.978  1.00  0.00    -0.254 N 
HETATM    3  C   UNL     1      43.013 -14.634   5.154  1.00  0.00     0.330 C 
HETATM    4  O   UNL     1      43.101 -13.876   6.120  1.00  0.00    -0.246 OA
HETATM    5  N   UNL     1      43.611 -15.851   5.280  1.00  0.00    -0.308 N 
HETATM    6  C   UNL     1      43.580 -16.869   4.343  1.00  0.00     0.048 A 
HETATM    7  C   UNL     1      43.022 -16.617   3.097  1.00  0.00     0.034 A 
HETATM    8  C   UNL     1      44.109 -18.120   4.668  1.00  0.00     0.030 A 
HETATM    9  C   UNL     1      44.063 -19.153   3.733  1.00  0.00     0.002 A 
HETATM   10  C   UNL     1      43.507 -18.925   2.479  1.00  0.00     0.001 A 
HETATM   11  C   UNL     1      43.002 -17.663   2.155  1.00  0.00     0.015 A 
HETATM   12  H   UNL     1      44.068 -15.996   6.170  1.00  0.00     0.170 HD
ENDROOT
BRANCH   1  13
HETATM   13  C   UNL     1      41.240 -15.287   1.898  1.00  0.00     0.279 C 
HETATM   14  N   UNL     1      41.262 -14.631   0.684  1.00  0.00    -0.352 N 
HETATM   15  H   UNL     1      42.108 -14.147   0.405  1.00  0.00     0.162 HD
HETATM   16  O   UNL     1      40.245 -15.884   2.322  1.00  0.00    -0.268 OA
BRANCH  14  17
HETATM   17  C   UNL     1      40.217 -14.807  -0.299  1.00  0.00     0.161 C 
BRANCH  17  18
HETATM   18  C   UNL     1      39.396 -13.565  -0.528  1.00  0.00    -0.040 A 
HETATM   19  C   UNL     1      38.616 -13.424  -1.683  1.00  0.00     0.011 A 
HETATM   20  C   UNL     1      37.785 -12.313  -1.845  1.00  0.00     0.037 A 
HETATM   21  C   UNL     1      37.714 -11.325  -0.861  1.00  0.00     0.068 A 
HETATM   22  C   UNL     1      38.511 -11.439   0.275  1.00  0.00     0.037 A 
HETATM   23  C   UNL     1      39.342 -12.553   0.440  1.00  0.00     0.011 A 
BRANCH  21  24
HETATM   24  O   UNL     1      36.837 -10.308  -1.124  1.00  0.00    -0.356 OA
HETATM   25  C   UNL     1      36.651  -9.976  -2.496  1.00  0.00     0.210 C 
ENDBRANCH  21  24
ENDBRANCH  17  18
ENDBRANCH  14  17
ENDBRANCH   1  13
BRANCH   1  26
HETATM   26  O   UNL     1      43.618 -14.613   2.035  1.00  0.00    -0.359 OA
HETATM   27  H   UNL     1      44.401 -15.161   2.231  1.00  0.00     0.213 HD
ENDBRANCH   1  26
BRANCH   2  28
HETATM   28  C   UNL     1      41.567 -13.143   3.871  1.00  0.00     0.043 A 
HETATM   29  C   UNL     1      42.092 -11.984   3.278  1.00  0.00     0.031 A 
HETATM   30  C   UNL     1      41.314 -10.830   3.122  1.00  0.00     0.026 A 
HETATM   31  C   UNL     1      39.997 -10.814   3.565  1.00  0.00     0.034 A 
HETATM   32 CL   UNL     1      39.038  -9.402   3.363  1.00  0.00    -0.084 Cl
HETATM   33  C   UNL     1      39.455 -11.940   4.168  1.00  0.00     0.026 A 
HETATM   34  C   UNL     1      40.234 -13.093   4.318  1.00  0.00     0.031 A 
ENDBRANCH   2  28
TORSDOF 6
ENDMDL
MODEL 3
REMARK VINA RESULT:      -8.9      2.798      7.259
REMARK  6 active torsions:
REMARK  status: ('A' for Active; 'I' for Inactive)
REMARK    1  A    between atoms: O_2  and  C_3 
REMARK    2  A    between atoms: C_6  and  C_7 
REMARK    3  A    between atoms: C_7  and  N_8 
REMARK       I    between atoms: N_8  and  C_9 
REMARK    4  A    between atoms: C_9  and  C_10 
REMARK    5  A    between atoms: C_10  and  O_11 
REMARK    6  A    between atoms: N_12  and  C_13 
ROOT
HETATM    1  C   UNL     1      39.793 -13.138   2.549  1.00  0.00     0.256 C 
HETATM    2  N   UNL     1      40.083 -12.545   3.869  1.00  0.00    -0.254 N 
HETATM    3  C   UNL     1      39.441 -11.378   4.263  1.00  0.00     0.330 C 
HETATM    4  O   UNL     1      39.400 -10.932   5.410  1.00  0.00    -0.246 OA
HETATM    5  N   UNL     1      38.842 -10.628   3.297  1.00  0.00    -0.308 N 
HETATM    6  C   UNL     1      38.826 -10.914   1.943  1.00  0.00     0.048 A 
HETATM    7  C   UNL     1      39.331 -12.132   1.509  1.00  0.00     0.034 A 
HETATM    8  C   UNL     1      38.304  -9.978   1.048  1.00  0.00     0.030 A 
HETATM    9  C   UNL     1      38.302 -10.255  -0.317  1.00  0.00     0.002 A 
HETATM   10  C   UNL     1      38.805 -11.469  -0.776  1.00  0.00     0.001 A 
HETATM   11  C   UNL     1      39.304 -12.409   0.130  1.00  0.00     0.015 A 
HETATM   12  H   UNL     1      38.423  -9.773   3.639  1.00  0.00     0.170 HD
ENDROOT
BRANCH   1  13
HETATM   13  C   UNL     1      41.068 -13.903   1.993  1.00  0.00     0.279 C 
HETATM   14  N   UNL     1      41.127 -15.263   2.213  1.00  0.00    -0.352 N 
HETATM   15  H   UNL     1      40.359 -15.713   2.699  1.00  0.00     0.162 HD
HETATM   16  O   UNL     1      41.967 -13.273   1.426  1.00  0.00    -0.268 OA
BRANCH  14  17
HETATM   17  C   UNL     1      42.118 -16.099   1.575  1.00  0.00     0.161 C 
BRANCH  17  18
HETATM   18  C   UNL     1      42.741 -17.106   2.507  1.00  0.00    -0.040 A 
HETATM   19  C   UNL     1      43.101 -18.379   2.049  1.00  0.00     0.011 A 
HETATM   20  C   UNL     1      43.763 -19.275   2.892  1.00  0.00     0.037 A 
HETATM   21  C   UNL     1      44.080 -18.917   4.205  1.00  0.00     0.068 A 
HETATM   22  C   UNL     1      43.695 -17.667   4.680  1.00  0.00     0.037 A 
HETATM   23  C   UNL     1      43.035 -16.767   3.835  1.00  0.00     0.011 A 
BRANCH  21  24
HETATM   24  O   UNL     1      44.759 -19.869   4.916  1.00  0.00    -0.356 OA
HETATM   25  C   UNL     1      43.975 -20.919   5.472  1.00  0.00     0.210 C 
ENDBRANCH  21  24
ENDBRANCH  17  18
ENDBRANCH  14  17
ENDBRANCH   1  13
BRANCH   1  26
HETATM   26  O   UNL     1      38.701 -14.048   2.708  1.00  0.00    -0.359 OA
HETATM   27  H   UNL     1      38.973 -14.853   2.228  1.00  0.00     0.213 HD
ENDBRANCH   1  26
BRANCH   2  28
HETATM   28  C   UNL     1      40.840 -13.291   4.851  1.00  0.00     0.043 A 
HETATM   29  C   UNL     1      42.183 -13.007   5.145  1.00  0.00     0.031 A 
HETATM   30  C   UNL     1      42.869 -13.698   6.151  1.00  0.00     0.026 A 
HETATM   31  C   UNL     1      42.224 -14.693   6.877  1.00  0.00     0.034 A 
HETATM   32 CL   UNL     1      43.062 -15.532   8.121  1.00  0.00    -0.084 Cl
HETATM   33  C   UNL     1      40.900 -15.005   6.599  1.00  0.00     0.026 A 
HETATM   34  C   UNL     1      40.217 -14.309   5.595  1.00  0.00     0.031 A 
ENDBRANCH   2  28
TORSDOF 6
ENDMDL
MODEL 4
REMARK VINA RESULT:      -8.6      1.959      2.382
REMARK  6 active torsions:
REMARK  status: ('A' for Active; 'I' for Inactive)
REMARK    1  A    between atoms: O_2  and  C_3 
REMARK    2  A    between atoms: C_6  and  C_7 
REMARK    3  A    between atoms: C_7  and  N_8 
REMARK       I    between atoms: N_8  and  C_9 
REMARK    4  A    between atoms: C_9  and  C_10 
REMARK    5  A    between atoms: C_10  and  O_11 
REMARK    6  A    between atoms: N_12  and  C_13 
ROOT
HETATM    1  C   UNL     1      42.823 -16.048   3.320  1.00  0.00     0.256 C 
HETATM    2  N   UNL     1      42.920 -15.483   4.681  1.00  0.00    -0.254 N 
HETATM    3  C   UNL     1      43.740 -16.087   5.626  1.00  0.00     0.330 C 
HETATM    4  O   UNL     1      44.102 -15.582   6.691  1.00  0.00    -0.246 OA
HETATM    5  N   UNL     1      44.147 -17.364   5.389  1.00  0.00    -0.308 N 
HETATM    6  C   UNL     1      43.803 -18.132   4.291  1.00  0.00     0.048 A 
HETATM    7  C   UNL     1      43.101 -17.539   3.250  1.00  0.00     0.034 A 
HETATM    8  C   UNL     1      44.170 -19.479   4.251  1.00  0.00     0.030 A 
HETATM    9  C   UNL     1      43.810 -20.260   3.155  1.00  0.00     0.002 A 
HETATM   10  C   UNL     1      43.105 -19.688   2.101  1.00  0.00     0.001 A 
HETATM   11  C   UNL     1      42.764 -18.334   2.139  1.00  0.00     0.015 A 
HETATM   12  H   UNL     1      44.711 -17.761   6.129  1.00  0.00     0.170 HD
ENDROOT
BRANCH   1  13
HETATM   13  C   UNL     1      41.388 -15.764   2.704  1.00  0.00     0.279 C 
HETATM   14  N   UNL     1      41.326 -14.888   1.640  1.00  0.00    -0.352 N 
HETATM   15  H   UNL     1      42.187 -14.482   1.291  1.00  0.00     0.162 HD
HETATM   16  O   UNL     1      40.387 -16.289   3.203  1.00  0.00    -0.268 OA
BRANCH  14  17
HETATM   17  C   UNL     1      40.122 -14.716   0.860  1.00  0.00     0.161 C 
BRANCH  17  18
HETATM   18  C   UNL     1      39.466 -13.375   1.062  1.00  0.00    -0.040 A 
HETATM   19  C   UNL     1      39.233 -12.877   2.350  1.00  0.00     0.011 A 
HETATM   20  C   UNL     1      38.710 -11.594   2.530  1.00  0.00     0.037 A 
HETATM   21  C   UNL     1      38.413 -10.784   1.432  1.00  0.00     0.068 A 
HETATM   22  C   UNL     1      38.608 -11.283   0.147  1.00  0.00     0.037 A 
HETATM   23  C   UNL     1      39.135 -12.567  -0.035  1.00  0.00     0.011 A 
BRANCH  21  24
HETATM   24  O   UNL     1      37.941  -9.538   1.743  1.00  0.00    -0.356 OA
HETATM   25  C   UNL     1      36.763  -9.122   1.060  1.00  0.00     0.210 C 
ENDBRANCH  21  24
ENDBRANCH  17  18
ENDBRANCH  14  17
ENDBRANCH   1  13
BRANCH   1  26
HETATM   26  O   UNL     1      43.835 -15.434   2.518  1.00  0.00    -0.359 OA
HETATM   27  H   UNL     1      44.230 -16.166   2.008  1.00  0.00     0.213 HD
ENDBRANCH   1  26
BRANCH   2  28
HETATM   28  C   UNL     1      42.366 -14.178   4.968  1.00  0.00     0.043 A 
HETATM   29  C   UNL     1      42.935 -12.992   4.480  1.00  0.00     0.031 A 
HETATM   30  C   UNL     1      42.336 -11.747   4.713  1.00  0.00     0.026 A 
HETATM   31  C   UNL     1      41.158 -11.669   5.447  1.00  0.00     0.034 A 
HETATM   32 CL   UNL     1      40.416 -10.143   5.723  1.00  0.00    -0.084 Cl
HETATM   33  C   UNL     1      40.580 -12.824   5.955  1.00  0.00     0.026 A 
HETATM   34  C   UNL     1      41.180 -14.066   5.716  1.00  0.00     0.031 A 
ENDBRANCH   2  28
TORSDOF 6
ENDMDL
MODEL 5
REMARK VINA RESULT:      -8.6      3.501      7.051
REMARK  6 active torsions:
REMARK  status: ('A' for Active; 'I' for Inactive)
REMARK    1  A    between atoms: O_2  and  C_3 
REMARK    2  A    between atoms: C_6  and  C_7 
REMARK    3  A    between atoms: C_7  and  N_8 
REMARK       I    between atoms: N_8  and  C_9 
REMARK    4  A    between atoms: C_9  and  C_10 
REMARK    5  A    between atoms: C_10  and  O_11 
REMARK    6  A    between atoms: N_12  and  C_13 
ROOT
HETATM    1  C   UNL     1      41.610 -13.776   4.919  1.00  0.00     0.256 C 
HETATM    2  N   UNL     1      40.639 -12.821   4.351  1.00  0.00    -0.254 N 
HETATM    3  C   UNL     1      39.675 -13.262   3.453  1.00  0.00     0.330 C 
HETATM    4  O   UNL     1      38.670 -12.636   3.113  1.00  0.00    -0.246 OA
HETATM    5  N   UNL     1      39.871 -14.469   2.855  1.00  0.00    -0.308 N 
HETATM    6  C   UNL     1      40.961 -15.300   3.047  1.00  0.00     0.048 A 
HETATM    7  C   UNL     1      41.885 -14.977   4.032  1.00  0.00     0.034 A 
HETATM    8  C   UNL     1      41.106 -16.440   2.254  1.00  0.00     0.030 A 
HETATM    9  C   UNL     1      42.211 -17.269   2.432  1.00  0.00     0.002 A 
HETATM   10  C   UNL     1      43.152 -16.965   3.411  1.00  0.00     0.001 A 
HETATM   11  C   UNL     1      42.985 -15.835   4.216  1.00  0.00     0.015 A 
HETATM   12  H   UNL     1      39.155 -14.719   2.186  1.00  0.00     0.170 HD
ENDROOT
BRANCH   1  13
HETATM   13  C   UNL     1      42.984 -13.046   5.235  1.00  0.00     0.279 C 
HETATM   14  N   UNL     1      43.342 -12.935   6.563  1.00  0.00    -0.352 N 
HETATM   15  H   UNL     1      42.732 -13.332   7.269  1.00  0.00     0.162 HD
HETATM   16  O   UNL     1      43.660 -12.576   4.314  1.00  0.00    -0.268 OA
BRANCH  14  17
HETATM   17  C   UNL     1      44.657 -12.491   6.966  1.00  0.00     0.161 C 
BRANCH  17  18
HETATM   18  C   UNL     1      44.697 -11.044   7.384  1.00  0.00    -0.040 A 
HETATM   19  C   UNL     1      43.515 -10.309   7.537  1.00  0.00     0.011 A 
HETATM   20  C   UNL     1      43.553  -8.997   8.015  1.00  0.00     0.037 A 
HETATM   21  C   UNL     1      44.767  -8.395   8.352  1.00  0.00     0.068 A 
HETATM   22  C   UNL     1      45.951  -9.106   8.171  1.00  0.00     0.037 A 
HETATM   23  C   UNL     1      45.913 -10.421   7.695  1.00  0.00     0.011 A 
BRANCH  21  24
HETATM   24  O   UNL     1      44.666  -7.121   8.841  1.00  0.00    -0.356 OA
HETATM   25  C   UNL     1      43.383  -6.730   9.320  1.00  0.00     0.210 C 
ENDBRANCH  21  24
ENDBRANCH  17  18
ENDBRANCH  14  17
ENDBRANCH   1  13
BRANCH   1  26
HETATM   26  O   UNL     1      41.048 -14.312   6.119  1.00  0.00    -0.359 OA
HETATM   27  H   UNL     1      40.090 -14.140   6.047  1.00  0.00     0.213 HD
ENDBRANCH   1  26
BRANCH   2  28
HETATM   28  C   UNL     1      40.524 -11.487   4.900  1.00  0.00     0.043 A 
HETATM   29  C   UNL     1      39.908 -11.229   6.134  1.00  0.00     0.031 A 
HETATM   30  C   UNL     1      39.876  -9.937   6.676  1.00  0.00     0.026 A 
HETATM   31  C   UNL     1      40.454  -8.879   5.984  1.00  0.00     0.034 A 
HETATM   32 CL   UNL     1      40.425  -7.296   6.654  1.00  0.00    -0.084 Cl
HETATM   33  C   UNL     1      41.057  -9.101   4.754  1.00  0.00     0.026 A 
HETATM   34  C   UNL     1      41.091 -10.394   4.219  1.00  0.00     0.031 A 
ENDBRANCH   2  28
TORSDOF 6
ENDMDL
MODEL 6
REMARK VINA RESULT:      -8.3      3.084      7.732
REMARK  6 active torsions:
REMARK  status: ('A' for Active; 'I' for Inactive)
REMARK    1  A    between atoms: O_2  and  C_3 
REMARK    2  A    between atoms: C_6  and  C_7 
REMARK    3  A    between atoms: C_7  and  N_8 
REMARK       I    between atoms: N_8  and  C_9 
REMARK    4  A    between atoms: C_9  and  C_10 
REMARK    5  A    between atoms: C_10  and  O_11 
REMARK    6  A    between atoms: N_12  and  C_13 
ROOT
HETATM    1  C   UNL     1      40.322 -12.757  -0.301  1.00  0.00     0.256 C 
HETATM    2  N   UNL     1      40.068 -14.170   0.042  1.00  0.00    -0.254 N 
HETATM    3  C   UNL     1      39.238 -14.941  -0.762  1.00  0.00     0.330 C 
HETATM    4  O   UNL     1      39.150 -16.170  -0.735  1.00  0.00    -0.246 OA
HETATM    5  N   UNL     1      38.411 -14.291  -1.627  1.00  0.00    -0.308 N 
HETATM    6  C   UNL     1      38.306 -12.918  -1.769  1.00  0.00     0.048 A 
HETATM    7  C   UNL     1      39.204 -12.103  -1.093  1.00  0.00     0.034 A 
HETATM    8  C   UNL     1      37.307 -12.386  -2.587  1.00  0.00     0.030 A 
HETATM    9  C   UNL     1      37.188 -11.004  -2.719  1.00  0.00     0.002 A 
HETATM   10  C   UNL     1      38.075 -10.167  -2.050  1.00  0.00     0.001 A 
HETATM   11  C   UNL     1      39.086 -10.710  -1.253  1.00  0.00     0.015 A 
HETATM   12  H   UNL     1      37.807 -14.903  -2.158  1.00  0.00     0.170 HD
ENDROOT
BRANCH   1  13
HETATM   13  C   UNL     1      40.585 -11.907   1.013  1.00  0.00     0.279 C 
HETATM   14  N   UNL     1      39.611 -11.948   1.990  1.00  0.00    -0.352 N 
HETATM   15  H   UNL     1      38.790 -12.522   1.838  1.00  0.00     0.162 HD
HETATM   16  O   UNL     1      41.607 -11.219   1.110  1.00  0.00    -0.268 OA
BRANCH  14  17
HETATM   17  C   UNL     1      39.827 -11.398   3.309  1.00  0.00     0.161 C 
BRANCH  17  18
HETATM   18  C   UNL     1      40.493 -12.360   4.257  1.00  0.00    -0.040 A 
HETATM   19  C   UNL     1      41.885 -12.514   4.262  1.00  0.00     0.011 A 
HETATM   20  C   UNL     1      42.504 -13.338   5.206  1.00  0.00     0.037 A 
HETATM   21  C   UNL     1      41.748 -14.020   6.161  1.00  0.00     0.068 A 
HETATM   22  C   UNL     1      40.361 -13.902   6.142  1.00  0.00     0.037 A 
HETATM   23  C   UNL     1      39.741 -13.074   5.199  1.00  0.00     0.011 A 
BRANCH  21  24
HETATM   24  O   UNL     1      42.475 -14.765   7.050  1.00  0.00    -0.356 OA
HETATM   25  C   UNL     1      42.076 -16.122   7.209  1.00  0.00     0.210 C 
ENDBRANCH  21  24
ENDBRANCH  17  18
ENDBRANCH  14  17
ENDBRANCH   1  13
BRANCH   1  26
HETATM   26  O   UNL     1      41.469 -12.713  -1.155  1.00  0.00    -0.359 OA
HETATM   27  H   UNL     1      41.762 -13.640  -1.231  1.00  0.00     0.213 HD
ENDBRANCH   1  26
BRANCH   2  28
HETATM   28  C   UNL     1      40.859 -14.825   1.060  1.00  0.00     0.043 A 
HETATM   29  C   UNL     1      40.286 -15.429   2.190  1.00  0.00     0.031 A 
HETATM   30  C   UNL     1      41.070 -16.120   3.123  1.00  0.00     0.026 A 
HETATM   31  C   UNL     1      42.446 -16.210   2.944  1.00  0.00     0.034 A 
HETATM   32 CL   UNL     1      43.407 -17.068   4.082  1.00  0.00    -0.084 Cl
HETATM   33  C   UNL     1      43.043 -15.610   1.844  1.00  0.00     0.026 A 
HETATM   34  C   UNL     1      42.254 -14.925   0.912  1.00  0.00     0.031 A 
ENDBRANCH   2  28
TORSDOF 6
ENDMDL
MODEL 7
REMARK VINA RESULT:      -8.3      4.277      8.036
REMARK  6 active torsions:
REMARK  status: ('A' for Active; 'I' for Inactive)
REMARK    1  A    between atoms: O_2  and  C_3 
REMARK    2  A    between atoms: C_6  and  C_7 
REMARK    3  A    between atoms: C_7  and  N_8 
REMARK       I    between atoms: N_8  and  C_9 
REMARK    4  A    between atoms: C_9  and  C_10 
REMARK    5  A    between atoms: C_10  and  O_11 
REMARK    6  A    between atoms: N_12  and  C_13 
ROOT
HETATM    1  C   UNL     1      42.357  -9.708   7.565  1.00  0.00     0.256 C 
HETATM    2  N   UNL     1      40.919 -10.034   7.488  1.00  0.00    -0.254 N 
HETATM    3  C   UNL     1      40.064  -9.650   8.513  1.00  0.00     0.330 C 
HETATM    4  O   UNL     1      38.834  -9.633   8.454  1.00  0.00    -0.246 OA
HETATM    5  N   UNL     1      40.621  -9.306   9.707  1.00  0.00    -0.308 N 
HETATM    6  C   UNL     1      41.972  -9.319  10.004  1.00  0.00     0.048 A 
HETATM    7  C   UNL     1      42.881  -9.561   8.982  1.00  0.00     0.034 A 
HETATM    8  C   UNL     1      42.391  -9.088  11.316  1.00  0.00     0.030 A 
HETATM    9  C   UNL     1      43.750  -9.118  11.622  1.00  0.00     0.002 A 
HETATM   10  C   UNL     1      44.680  -9.360  10.615  1.00  0.00     0.001 A 
HETATM   11  C   UNL     1      44.252  -9.567   9.301  1.00  0.00     0.015 A 
HETATM   12  H   UNL     1      39.947  -9.072  10.424  1.00  0.00     0.170 HD
ENDROOT
BRANCH   1  13
HETATM   13  C   UNL     1      43.216 -10.809   6.811  1.00  0.00     0.279 C 
HETATM   14  N   UNL     1      43.310 -12.048   7.410  1.00  0.00    -0.352 N 
HETATM   15  H   UNL     1      42.821 -12.207   8.284  1.00  0.00     0.162 HD
HETATM   16  O   UNL     1      43.794 -10.526   5.757  1.00  0.00    -0.268 OA
BRANCH  14  17
HETATM   17  C   UNL     1      43.876 -13.188   6.726  1.00  0.00     0.161 C 
BRANCH  17  18
HETATM   18  C   UNL     1      42.868 -13.958   5.912  1.00  0.00    -0.040 A 
HETATM   19  C   UNL     1      42.823 -13.828   4.519  1.00  0.00     0.011 A 
HETATM   20  C   UNL     1      41.950 -14.614   3.761  1.00  0.00     0.037 A 
HETATM   21  C   UNL     1      41.110 -15.543   4.378  1.00  0.00     0.068 A 
HETATM   22  C   UNL     1      41.123 -15.655   5.766  1.00  0.00     0.037 A 
HETATM   23  C   UNL     1      41.999 -14.871   6.525  1.00  0.00     0.011 A 
BRANCH  21  24
HETATM   24  O   UNL     1      40.330 -16.274   3.524  1.00  0.00    -0.356 OA
HETATM   25  C   UNL     1      39.946 -15.631   2.314  1.00  0.00     0.210 C 
ENDBRANCH  21  24
ENDBRANCH  17  18
ENDBRANCH  14  17
ENDBRANCH   1  13
BRANCH   1  26
HETATM   26  O   UNL     1      42.549  -8.429   6.955  1.00  0.00    -0.359 OA
HETATM   27  H   UNL     1      42.239  -8.539   6.037  1.00  0.00     0.213 HD
ENDBRANCH   1  26
BRANCH   2  28
HETATM   28  C   UNL     1      40.351 -10.530   6.254  1.00  0.00     0.043 A 
HETATM   29  C   UNL     1      40.314  -9.764   5.078  1.00  0.00     0.031 A 
HETATM   30  C   UNL     1      39.824 -10.296   3.878  1.00  0.00     0.026 A 
HETATM   31  C   UNL     1      39.355 -11.604   3.837  1.00  0.00     0.034 A 
HETATM   32 CL   UNL     1      38.766 -12.261   2.362  1.00  0.00    -0.084 Cl
HETATM   33  C   UNL     1      39.367 -12.381   4.988  1.00  0.00     0.026 A 
HETATM   34  C   UNL     1      39.861 -11.847   6.183  1.00  0.00     0.031 A 
ENDBRANCH   2  28
TORSDOF 6
ENDMDL
MODEL 8
REMARK VINA RESULT:      -8.1      2.227      3.288
REMARK  6 active torsions:
REMARK  status: ('A' for Active; 'I' for Inactive)
REMARK    1  A    between atoms: O_2  and  C_3 
REMARK    2  A    between atoms: C_6  and  C_7 
REMARK    3  A    between atoms: C_7  and  N_8 
REMARK       I    between atoms: N_8  and  C_9 
REMARK    4  A    between atoms: C_9  and  C_10 
REMARK    5  A    between atoms: C_10  and  O_11 
REMARK    6  A    between atoms: N_12  and  C_13 
ROOT
HETATM    1  C   UNL     1      42.261 -13.130   3.985  1.00  0.00     0.256 C 
HETATM    2  N   UNL     1      41.158 -13.072   4.964  1.00  0.00    -0.254 N 
HETATM    3  C   UNL     1      40.789 -14.216   5.661  1.00  0.00     0.330 C 
HETATM    4  O   UNL     1      40.077 -14.246   6.666  1.00  0.00    -0.246 OA
HETATM    5  N   UNL     1      41.204 -15.417   5.173  1.00  0.00    -0.308 N 
HETATM    6  C   UNL     1      41.954 -15.609   4.026  1.00  0.00     0.048 A 
HETATM    7  C   UNL     1      42.467 -14.501   3.366  1.00  0.00     0.034 A 
HETATM    8  C   UNL     1      42.180 -16.907   3.561  1.00  0.00     0.030 A 
HETATM    9  C   UNL     1      42.920 -17.104   2.397  1.00  0.00     0.002 A 
HETATM   10  C   UNL     1      43.443 -16.008   1.718  1.00  0.00     0.001 A 
HETATM   11  C   UNL     1      43.231 -14.715   2.204  1.00  0.00     0.015 A 
HETATM   12  H   UNL     1      40.874 -16.213   5.702  1.00  0.00     0.170 HD
ENDROOT
BRANCH   1  13
HETATM   13  C   UNL     1      42.026 -12.073   2.824  1.00  0.00     0.279 C 
HETATM   14  N   UNL     1      40.921 -12.261   2.021  1.00  0.00    -0.352 N 
HETATM   15  H   UNL     1      40.305 -13.043   2.212  1.00  0.00     0.162 HD
HETATM   16  O   UNL     1      42.837 -11.157   2.649  1.00  0.00    -0.268 OA
BRANCH  14  17
HETATM   17  C   UNL     1      40.481 -11.258   1.077  1.00  0.00     0.161 C 
BRANCH  17  18
HETATM   18  C   UNL     1      40.082 -11.828  -0.259  1.00  0.00    -0.040 A 
HETATM   19  C   UNL     1      40.729 -12.955  -0.780  1.00  0.00     0.011 A 
HETATM   20  C   UNL     1      40.293 -13.534  -1.974  1.00  0.00     0.037 A 
HETATM   21  C   UNL     1      39.203 -13.003  -2.668  1.00  0.00     0.068 A 
HETATM   22  C   UNL     1      38.575 -11.863  -2.176  1.00  0.00     0.037 A 
HETATM   23  C   UNL     1      39.009 -11.284  -0.978  1.00  0.00     0.011 A 
BRANCH  21  24
HETATM   24  O   UNL     1      38.854 -13.683  -3.803  1.00  0.00    -0.356 OA
HETATM   25  C   UNL     1      38.128 -14.893  -3.615  1.00  0.00     0.210 C 
ENDBRANCH  21  24
ENDBRANCH  17  18
ENDBRANCH  14  17
ENDBRANCH   1  13
BRANCH   1  26
HETATM   26  O   UNL     1      43.478 -12.839   4.677  1.00  0.00    -0.359 OA
HETATM   27  H   UNL     1      43.210 -12.290   5.438  1.00  0.00     0.213 HD
ENDBRANCH   1  26
BRANCH   2  28
HETATM   28  C   UNL     1      40.623 -11.796   5.383  1.00  0.00     0.043 A 
HETATM   29  C   UNL     1      39.350 -11.346   4.995  1.00  0.00     0.031 A 
HETATM   30  C   UNL     1      38.828 -10.138   5.474  1.00  0.00     0.026 A 
HETATM   31  C   UNL     1      39.575  -9.354   6.345  1.00  0.00     0.034 A 
HETATM   32 CL   UNL     1      38.929  -7.877   6.943  1.00  0.00    -0.084 Cl
HETATM   33  C   UNL     1      40.843  -9.765   6.734  1.00  0.00     0.026 A 
HETATM   34  C   UNL     1      41.359 -10.975   6.257  1.00  0.00     0.031 A 
ENDBRANCH   2  28
TORSDOF 6
ENDMDL
MODEL 9
REMARK VINA RESULT:      -8.0     15.096     17.706
REMARK  6 active torsions:
REMARK  status: ('A' for Active; 'I' for Inactive)
REMARK    1  A    between atoms: O_2  and  C_3 
REMARK    2  A    between atoms: C_6  and  C_7 
REMARK    3  A    between atoms: C_7  and  N_8 
REMARK       I    between atoms: N_8  and  C_9 
REMARK    4  A    between atoms: C_9  and  C_10 
REMARK    5  A    between atoms: C_10  and  O_11 
REMARK    6  A    between atoms: N_12  and  C_13 
ROOT
HETATM    1  C   UNL     1      48.789 -30.057   0.548  1.00  0.00     0.256 C 
HETATM    2  N   UNL     1      47.508 -29.350   0.746  1.00  0.00    -0.254 N 
HETATM    3  C   UNL     1      47.307 -28.585   1.887  1.00  0.00     0.330 C 
HETATM    4  O   UNL     1      46.408 -27.758   2.049  1.00  0.00    -0.246 OA
HETATM    5  N   UNL     1      48.140 -28.790   2.944  1.00  0.00    -0.308 N 
HETATM    6  C   UNL     1      49.171 -29.713   2.994  1.00  0.00     0.048 A 
HETATM    7  C   UNL     1      49.506 -30.408   1.840  1.00  0.00     0.034 A 
HETATM    8  C   UNL     1      49.849 -29.922   4.197  1.00  0.00     0.030 A 
HETATM    9  C   UNL     1      50.875 -30.863   4.256  1.00  0.00     0.002 A 
HETATM   10  C   UNL     1      51.228 -31.573   3.113  1.00  0.00     0.001 A 
HETATM   11  C   UNL     1      50.559 -31.339   1.908  1.00  0.00     0.015 A 
HETATM   12  H   UNL     1      47.922 -28.230   3.757  1.00  0.00     0.170 HD
ENDROOT
BRANCH   1  13
HETATM   13  C   UNL     1      48.565 -31.386  -0.291  1.00  0.00     0.279 C 
HETATM   14  N   UNL     1      49.016 -31.386  -1.595  1.00  0.00    -0.352 N 
HETATM   15  H   UNL     1      49.480 -30.558  -1.951  1.00  0.00     0.162 HD
HETATM   16  O   UNL     1      47.974 -32.345   0.217  1.00  0.00    -0.268 OA
BRANCH  14  17
HETATM   17  C   UNL     1      49.066 -32.594  -2.386  1.00  0.00     0.161 C 
BRANCH  17  18
HETATM   18  C   UNL     1      48.244 -32.518  -3.646  1.00  0.00    -0.040 A 
HETATM   19  C   UNL     1      47.040 -31.804  -3.674  1.00  0.00     0.011 A 
HETATM   20  C   UNL     1      46.329 -31.659  -4.868  1.00  0.00     0.037 A 
HETATM   21  C   UNL     1      46.806 -32.220  -6.054  1.00  0.00     0.068 A 
HETATM   22  C   UNL     1      47.984 -32.962  -6.030  1.00  0.00     0.037 A 
HETATM   23  C   UNL     1      48.698 -33.104  -4.835  1.00  0.00     0.011 A 
BRANCH  21  24
HETATM   24  O   UNL     1      46.037 -31.977  -7.160  1.00  0.00    -0.356 OA
HETATM   25  C   UNL     1      44.716 -31.504  -6.917  1.00  0.00     0.210 C 
ENDBRANCH  21  24
ENDBRANCH  17  18
ENDBRANCH  14  17
ENDBRANCH   1  13
BRANCH   1  26
HETATM   26  O   UNL     1      49.673 -29.176  -0.149  1.00  0.00    -0.359 OA
HETATM   27  H   UNL     1      50.568 -29.509   0.048  1.00  0.00     0.213 HD
ENDBRANCH   1  26
BRANCH   2  28
HETATM   28  C   UNL     1      46.559 -29.248  -0.341  1.00  0.00     0.043 A 
HETATM   29  C   UNL     1      46.755 -28.394  -1.438  1.00  0.00     0.031 A 
HETATM   30  C   UNL     1      45.855 -28.369  -2.511  1.00  0.00     0.026 A 
HETATM   31  C   UNL     1      44.736 -29.194  -2.500  1.00  0.00     0.034 A 
HETATM   32 CL   UNL     1      43.639 -29.172  -3.822  1.00  0.00    -0.084 Cl
HETATM   33  C   UNL     1      44.508 -30.038  -1.422  1.00  0.00     0.026 A 
HETATM   34  C   UNL     1      45.413 -30.063  -0.354  1.00  0.00     0.031 A 
ENDBRANCH   2  28
TORSDOF 6
ENDMDL
MODEL 10
REMARK VINA RESULT:      -8.0     15.148     17.297
REMARK  6 active torsions:
REMARK  status: ('A' for Active; 'I' for Inactive)
REMARK    1  A    between atoms: O_2  and  C_3 
REMARK    2  A    between atoms: C_6  and  C_7 
REMARK    3  A    between atoms: C_7  and  N_8 
REMARK       I    between atoms: N_8  and  C_9 
REMARK    4  A    between atoms: C_9  and  C_10 
REMARK    5  A    between atoms: C_10  and  O_11 
REMARK    6  A    between atoms: N_12  and  C_13 
ROOT
HETATM    1  C   UNL     1      49.373 -30.306   1.057  1.00  0.00     0.256 C 
HETATM    2  N   UNL     1      48.264 -29.346   1.226  1.00  0.00    -0.254 N 
HETATM    3  C   UNL     1      48.086 -28.699   2.442  1.00  0.00     0.330 C 
HETATM    4  O   UNL     1      47.377 -27.710   2.633  1.00  0.00    -0.246 OA
HETATM    5  N   UNL     1      48.705 -29.224   3.536  1.00  0.00    -0.308 N 
HETATM    6  C   UNL     1      49.491 -30.363   3.552  1.00  0.00     0.048 A 
HETATM    7  C   UNL     1      49.816 -30.971   2.348  1.00  0.00     0.034 A 
HETATM    8  C   UNL     1      49.940 -30.871   4.773  1.00  0.00     0.030 A 
HETATM    9  C   UNL     1      50.716 -32.028   4.795  1.00  0.00     0.002 A 
HETATM   10  C   UNL     1      51.054 -32.656   3.601  1.00  0.00     0.001 A 
HETATM   11  C   UNL     1      50.620 -32.126   2.383  1.00  0.00     0.015 A 
HETATM   12  H   UNL     1      48.508 -28.731   4.397  1.00  0.00     0.170 HD
ENDROOT
BRANCH   1  13
HETATM   13  C   UNL     1      48.976 -31.431   0.009  1.00  0.00     0.279 C 
HETATM   14  N   UNL     1      47.809 -32.126   0.249  1.00  0.00    -0.352 N 
HETATM   15  H   UNL     1      47.254 -31.882   1.062  1.00  0.00     0.162 HD
HETATM   16  O   UNL     1      49.721 -31.675  -0.946  1.00  0.00    -0.268 OA
BRANCH  14  17
HETATM   17  C   UNL     1      47.232 -33.015  -0.733  1.00  0.00     0.161 C 
BRANCH  17  18
HETATM   18  C   UNL     1      46.333 -32.315  -1.718  1.00  0.00    -0.040 A 
HETATM   19  C   UNL     1      46.837 -31.838  -2.935  1.00  0.00     0.011 A 
HETATM   20  C   UNL     1      45.980 -31.274  -3.884  1.00  0.00     0.037 A 
HETATM   21  C   UNL     1      44.609 -31.177  -3.639  1.00  0.00     0.068 A 
HETATM   22  C   UNL     1      44.104 -31.616  -2.418  1.00  0.00     0.037 A 
HETATM   23  C   UNL     1      44.960 -32.185  -1.468  1.00  0.00     0.011 A 
BRANCH  21  24
HETATM   24  O   UNL     1      43.875 -30.638  -4.661  1.00  0.00    -0.356 OA
HETATM   25  C   UNL     1      44.392 -30.825  -5.974  1.00  0.00     0.210 C 
ENDBRANCH  21  24
ENDBRANCH  17  18
ENDBRANCH  14  17
ENDBRANCH   1  13
BRANCH   1  26
HETATM   26  O   UNL     1      50.514 -29.580   0.592  1.00  0.00    -0.359 OA
HETATM   27  H   UNL     1      50.788 -29.030   1.350  1.00  0.00     0.213 HD
ENDBRANCH   1  26
BRANCH   2  28
HETATM   28  C   UNL     1      47.515 -28.890   0.076  1.00  0.00     0.043 A 
HETATM   29  C   UNL     1      48.135 -28.453  -1.105  1.00  0.00     0.031 A 
HETATM   30  C   UNL     1      47.384 -28.086  -2.229  1.00  0.00     0.026 A 
HETATM   31  C   UNL     1      45.995 -28.143  -2.186  1.00  0.00     0.034 A 
HETATM   32 CL   UNL     1      45.074 -27.705  -3.569  1.00  0.00    -0.084 Cl
HETATM   33  C   UNL     1      45.354 -28.558  -1.027  1.00  0.00     0.026 A 
HETATM   34  C   UNL     1      46.109 -28.928   0.092  1.00  0.00     0.031 A 
ENDBRANCH   2  28
TORSDOF 6
ENDMDL
