MODEL 1
REMARK VINA RESULT:      -9.4      0.000      0.000
REMARK  8 active torsions:
REMARK  status: ('A' for Active; 'I' for Inactive)
REMARK    1  A    between atoms: C_4  and  C_5 
REMARK    2  A    between atoms: C_9  and  C_10 
REMARK       I    between atoms: C_10  and  N_11 
REMARK    3  A    between atoms: N_11  and  C_12 
REMARK    4  A    between atoms: C_12  and  C_13 
REMARK    5  A    between atoms: C_13  and  C_14 
REMARK    6  A    between atoms: C_14  and  C_15 
REMARK    7  A    between atoms: C_15  and  O_16 
REMARK    8  A    between atoms: O_16  and  C_17 
ROOT
HETATM    1  C   UNL     1      44.870 -10.215   9.197  1.00  0.00     0.270 C 
HETATM    2  N   UNL     1      44.364 -11.188   8.375  1.00  0.00    -0.345 N 
HETATM    3  O   UNL     1      45.858  -9.551   8.905  1.00  0.00    -0.266 OA
HETATM    4  H   UNL     1      43.489 -11.634   8.602  1.00  0.00     0.163 HD
ENDROOT
BRANCH   2   5
HETATM    5  C   UNL     1      44.945 -11.449   7.084  1.00  0.00     0.217 C 
BRANCH   5   6
HETATM    6  C   UNL     1      44.063 -12.443   6.347  1.00  0.00    -0.085 C 
BRANCH   6   7
HETATM    7  C   UNL     1      43.305 -13.295   5.716  1.00  0.00    -0.078 C 
BRANCH   7   8
HETATM    8  C   UNL     1      42.422 -14.290   4.979  1.00  0.00     0.269 C 
BRANCH   8   9
HETATM    9  O   UNL     1      43.098 -14.703   3.794  1.00  0.00    -0.339 OA
BRANCH   9  10
HETATM   10  C   UNL     1      43.249 -16.049   3.604  1.00  0.00     0.072 A 
HETATM   11  C   UNL     1      43.551 -16.990   4.591  1.00  0.00     0.069 A 
HETATM   12  C   UNL     1      43.690 -18.341   4.292  1.00  0.00     0.069 A 
HETATM   13  C   UNL     1      43.517 -18.759   2.956  1.00  0.00    -0.007 A 
HETATM   14  N   UNL     1      43.984 -19.204   5.281  1.00  0.00    -0.260 NA
HETATM   15  C   UNL     1      43.209 -17.820   1.960  1.00  0.00     0.016 A 
HETATM   16  C   UNL     1      43.661 -20.121   2.667  1.00  0.00     0.015 A 
HETATM   17  C   UNL     1      43.077 -16.473   2.288  1.00  0.00     0.038 A 
HETATM   18  C   UNL     1      43.967 -21.015   3.686  1.00  0.00     0.020 A 
HETATM   19  C   UNL     1      44.117 -20.511   4.964  1.00  0.00     0.117 A 
ENDBRANCH   9  10
ENDBRANCH   8   9
ENDBRANCH   7   8
ENDBRANCH   6   7
ENDBRANCH   5   6
ENDBRANCH   2   5
BRANCH   1  20
HETATM   20  C   UNL     1      44.142 -10.018  10.422  1.00  0.00     0.120 A 
HETATM   21  N   UNL     1      43.470 -11.038  11.033  1.00  0.00    -0.272 N 
HETATM   22  N   UNL     1      42.872 -10.694  12.183  1.00  0.00    -0.174 NA
HETATM   23  H   UNL     1      43.402 -12.000  10.712  1.00  0.00     0.189 HD
HETATM   24  C   UNL     1      43.124  -9.382  12.317  1.00  0.00     0.089 A 
HETATM   25  C   UNL     1      43.920  -8.922  11.231  1.00  0.00     0.071 A 
BRANCH  24  26
HETATM   26  C   UNL     1      42.627  -8.608  13.459  1.00  0.00    -0.006 A 
HETATM   27  C   UNL     1      41.524  -9.061  14.196  1.00  0.00     0.014 A 
HETATM   28  C   UNL     1      41.055  -8.340  15.298  1.00  0.00     0.001 A 
HETATM   29  C   UNL     1      41.682  -7.153  15.672  1.00  0.00     0.000 A 
HETATM   30  C   UNL     1      42.774  -6.686  14.944  1.00  0.00     0.001 A 
HETATM   31  C   UNL     1      43.245  -7.409  13.844  1.00  0.00     0.014 A 
ENDBRANCH  24  26
ENDBRANCH   1  20
TORSDOF 8
ENDMDL
MODEL 2
REMARK VINA RESULT:      -9.1      2.063     11.609
REMARK  8 active torsions:
REMARK  status: ('A' for Active; 'I' for Inactive)
REMARK    1  A    between atoms: C_4  and  C_5 
REMARK    2  A    between atoms: C_9  and  C_10 
REMARK       I    between atoms: C_10  and  N_11 
REMARK    3  A    between atoms: N_11  and  C_12 
REMARK    4  A    between atoms: C_12  and  C_13 
REMARK    5  A    between atoms: C_13  and  C_14 
REMARK    6  A    between atoms: C_14  and  C_15 
REMARK    7  A    between atoms: C_15  and  O_16 
REMARK    8  A    between atoms: O_16  and  C_17 
ROOT
HETATM    1  C   UNL     1      42.890 -13.145   3.203  1.00  0.00     0.270 C 
HETATM    2  N   UNL     1      42.994 -12.846   4.537  1.00  0.00    -0.345 N 
HETATM    3  O   UNL     1      42.688 -12.289   2.349  1.00  0.00    -0.266 OA
HETATM    4  H   UNL     1      43.269 -13.561   5.193  1.00  0.00     0.163 HD
ENDROOT
BRANCH   2   5
HETATM    5  C   UNL     1      42.923 -11.487   5.004  1.00  0.00     0.217 C 
BRANCH   5   6
HETATM    6  C   UNL     1      44.136 -11.210   5.877  1.00  0.00    -0.085 C 
BRANCH   6   7
HETATM    7  C   UNL     1      45.177 -10.973   6.625  1.00  0.00    -0.078 C 
BRANCH   7   8
HETATM    8  C   UNL     1      46.391 -10.697   7.498  1.00  0.00     0.269 C 
BRANCH   8   9
HETATM    9  O   UNL     1      46.287  -9.371   8.009  1.00  0.00    -0.339 OA
BRANCH   9  10
HETATM   10  C   UNL     1      45.302  -9.137   8.928  1.00  0.00     0.072 A 
HETATM   11  C   UNL     1      44.925  -9.991   9.967  1.00  0.00     0.069 A 
HETATM   12  C   UNL     1      43.901  -9.661  10.848  1.00  0.00     0.069 A 
HETATM   13  C   UNL     1      43.236  -8.428  10.680  1.00  0.00    -0.007 A 
HETATM   14  N   UNL     1      43.577 -10.522  11.829  1.00  0.00    -0.260 NA
HETATM   15  C   UNL     1      43.611  -7.562   9.641  1.00  0.00     0.016 A 
HETATM   16  C   UNL     1      42.205  -8.107  11.572  1.00  0.00     0.015 A 
HETATM   17  C   UNL     1      44.640  -7.920   8.773  1.00  0.00     0.038 A 
HETATM   18  C   UNL     1      41.868  -8.996  12.585  1.00  0.00     0.020 A 
HETATM   19  C   UNL     1      42.577 -10.179  12.670  1.00  0.00     0.117 A 
ENDBRANCH   9  10
ENDBRANCH   8   9
ENDBRANCH   7   8
ENDBRANCH   6   7
ENDBRANCH   5   6
ENDBRANCH   2   5
BRANCH   1  20
HETATM   20  C   UNL     1      43.053 -14.536   2.878  1.00  0.00     0.120 A 
HETATM   21  N   UNL     1      43.108 -14.972   1.585  1.00  0.00    -0.272 N 
HETATM   22  N   UNL     1      43.296 -16.294   1.456  1.00  0.00    -0.174 NA
HETATM   23  H   UNL     1      43.037 -14.401   0.747  1.00  0.00     0.189 HD
HETATM   24  C   UNL     1      43.327 -16.756   2.716  1.00  0.00     0.089 A 
HETATM   25  C   UNL     1      43.179 -15.682   3.638  1.00  0.00     0.071 A 
BRANCH  24  26
HETATM   26  C   UNL     1      43.508 -18.180   3.017  1.00  0.00    -0.006 A 
HETATM   27  C   UNL     1      43.239 -19.150   2.041  1.00  0.00     0.014 A 
HETATM   28  C   UNL     1      43.427 -20.508   2.312  1.00  0.00     0.001 A 
HETATM   29  C   UNL     1      43.881 -20.912   3.566  1.00  0.00     0.000 A 
HETATM   30  C   UNL     1      44.144 -19.960   4.548  1.00  0.00     0.001 A 
HETATM   31  C   UNL     1      43.959 -18.602   4.276  1.00  0.00     0.014 A 
ENDBRANCH  24  26
ENDBRANCH   1  20
TORSDOF 8
ENDMDL
MODEL 3
REMARK VINA RESULT:      -9.0      1.561      2.122
REMARK  8 active torsions:
REMARK  status: ('A' for Active; 'I' for Inactive)
REMARK    1  A    between atoms: C_4  and  C_5 
REMARK    2  A    between atoms: C_9  and  C_10 
REMARK       I    between atoms: C_10  and  N_11 
REMARK    3  A    between atoms: N_11  and  C_12 
REMARK    4  A    between atoms: C_12  and  C_13 
REMARK    5  A    between atoms: C_13  and  C_14 
REMARK    6  A    between atoms: C_14  and  C_15 
REMARK    7  A    between atoms: C_15  and  O_16 
REMARK    8  A    between atoms: O_16  and  C_17 
ROOT
HETATM    1  C   UNL     1      45.555  -9.454   8.259  1.00  0.00     0.270 C 
HETATM    2  N   UNL     1      45.087 -10.597   7.665  1.00  0.00    -0.345 N 
HETATM    3  O   UNL     1      46.603  -8.915   7.921  1.00  0.00    -0.266 OA
HETATM    4  H   UNL     1      44.170 -10.946   7.897  1.00  0.00     0.163 HD
ENDROOT
BRANCH   2   5
HETATM    5  C   UNL     1      45.787 -11.204   6.563  1.00  0.00     0.217 C 
BRANCH   5   6
HETATM    6  C   UNL     1      44.796 -11.446   5.436  1.00  0.00    -0.085 C 
BRANCH   6   7
HETATM    7  C   UNL     1      43.947 -11.655   4.469  1.00  0.00    -0.078 C 
BRANCH   7   8
HETATM    8  C   UNL     1      42.957 -11.898   3.342  1.00  0.00     0.269 C 
BRANCH   8   9
HETATM    9  O   UNL     1      42.070 -12.941   3.737  1.00  0.00    -0.339 OA
BRANCH   9  10
HETATM   10  C   UNL     1      42.457 -14.223   3.456  1.00  0.00     0.072 A 
HETATM   11  C   UNL     1      42.852 -15.186   4.387  1.00  0.00     0.069 A 
HETATM   12  C   UNL     1      43.234 -16.465   3.996  1.00  0.00     0.069 A 
HETATM   13  C   UNL     1      43.215 -16.786   2.623  1.00  0.00    -0.007 A 
HETATM   14  N   UNL     1      43.609 -17.353   4.935  1.00  0.00    -0.260 NA
HETATM   15  C   UNL     1      42.815 -15.825   1.681  1.00  0.00     0.016 A 
HETATM   16  C   UNL     1      43.604 -18.075   2.241  1.00  0.00     0.015 A 
HETATM   17  C   UNL     1      42.439 -14.551   2.102  1.00  0.00     0.038 A 
HETATM   18  C   UNL     1      43.993 -18.994   3.208  1.00  0.00     0.020 A 
HETATM   19  C   UNL     1      43.978 -18.588   4.529  1.00  0.00     0.117 A 
ENDBRANCH   9  10
ENDBRANCH   8   9
ENDBRANCH   7   8
ENDBRANCH   6   7
ENDBRANCH   5   6
ENDBRANCH   2   5
BRANCH   1  20
HETATM   20  C   UNL     1      44.714  -8.922   9.297  1.00  0.00     0.120 A 
HETATM   21  N   UNL     1      43.924  -7.826   9.095  1.00  0.00    -0.272 N 
HETATM   22  N   UNL     1      43.178  -7.480  10.154  1.00  0.00    -0.174 NA
HETATM   23  H   UNL     1      43.846  -7.283   8.240  1.00  0.00     0.189 HD
HETATM   24  C   UNL     1      43.518  -8.360  11.110  1.00  0.00     0.089 A 
HETATM   25  C   UNL     1      44.479  -9.282  10.610  1.00  0.00     0.071 A 
BRANCH  24  26
HETATM   26  C   UNL     1      42.924  -8.318  12.450  1.00  0.00    -0.006 A 
HETATM   27  C   UNL     1      43.373  -7.386  13.396  1.00  0.00     0.014 A 
HETATM   28  C   UNL     1      42.800  -7.326  14.669  1.00  0.00     0.001 A 
HETATM   29  C   UNL     1      41.773  -8.203  15.013  1.00  0.00     0.000 A 
HETATM   30  C   UNL     1      41.323  -9.141  14.087  1.00  0.00     0.001 A 
HETATM   31  C   UNL     1      41.894  -9.198  12.812  1.00  0.00     0.014 A 
ENDBRANCH  24  26
ENDBRANCH   1  20
TORSDOF 8
ENDMDL
MODEL 4
REMARK VINA RESULT:      -8.4      1.809     11.796
REMARK  8 active torsions:
REMARK  status: ('A' for Active; 'I' for Inactive)
REMARK    1  A    between atoms: C_4  and  C_5 
REMARK    2  A    between atoms: C_9  and  C_10 
REMARK       I    between atoms: C_10  and  N_11 
REMARK    3  A    between atoms: N_11  and  C_12 
REMARK    4  A    between atoms: C_12  and  C_13 
REMARK    5  A    between atoms: C_13  and  C_14 
REMARK    6  A    between atoms: C_14  and  C_15 
REMARK    7  A    between atoms: C_15  and  O_16 
REMARK    8  A    between atoms: O_16  and  C_17 
ROOT
HETATM    1  C   UNL     1      42.517 -13.685   5.921  1.00  0.00     0.270 C 
HETATM    2  N   UNL     1      43.397 -12.644   5.785  1.00  0.00    -0.345 N 
HETATM    3  O   UNL     1      41.340 -13.521   6.224  1.00  0.00    -0.266 OA
HETATM    4  H   UNL     1      44.325 -12.812   5.428  1.00  0.00     0.163 HD
ENDROOT
BRANCH   2   5
HETATM    5  C   UNL     1      42.967 -11.279   5.942  1.00  0.00     0.217 C 
BRANCH   5   6
HETATM    6  C   UNL     1      43.839 -10.614   6.995  1.00  0.00    -0.085 C 
BRANCH   6   7
HETATM    7  C   UNL     1      44.587 -10.045   7.898  1.00  0.00    -0.078 C 
BRANCH   7   8
HETATM    8  C   UNL     1      45.459  -9.382   8.951  1.00  0.00     0.269 C 
BRANCH   8   9
HETATM    9  O   UNL     1      45.380 -10.147  10.151  1.00  0.00    -0.339 OA
BRANCH   9  10
HETATM   10  C   UNL     1      44.389  -9.815  11.033  1.00  0.00     0.072 A 
HETATM   11  C   UNL     1      43.941  -8.524  11.321  1.00  0.00     0.069 A 
HETATM   12  C   UNL     1      42.926  -8.292  12.243  1.00  0.00     0.069 A 
HETATM   13  C   UNL     1      42.340  -9.396  12.895  1.00  0.00    -0.007 A 
HETATM   14  N   UNL     1      42.537  -7.027  12.483  1.00  0.00    -0.260 NA
HETATM   15  C   UNL     1      42.781 -10.698  12.609  1.00  0.00     0.016 A 
HETATM   16  C   UNL     1      41.321  -9.150  13.823  1.00  0.00     0.015 A 
HETATM   17  C   UNL     1      43.801 -10.900  11.681  1.00  0.00     0.038 A 
HETATM   18  C   UNL     1      40.917  -7.845  14.074  1.00  0.00     0.020 A 
HETATM   19  C   UNL     1      41.550  -6.828  13.385  1.00  0.00     0.117 A 
ENDBRANCH   9  10
ENDBRANCH   8   9
ENDBRANCH   7   8
ENDBRANCH   6   7
ENDBRANCH   5   6
ENDBRANCH   2   5
BRANCH   1  20
HETATM   20  C   UNL     1      43.072 -14.986   5.664  1.00  0.00     0.120 A 
HETATM   21  N   UNL     1      44.182 -15.438   6.318  1.00  0.00    -0.272 N 
HETATM   22  N   UNL     1      44.550 -16.685   5.985  1.00  0.00    -0.174 NA
HETATM   23  H   UNL     1      44.721 -14.937   7.018  1.00  0.00     0.189 HD
HETATM   24  C   UNL     1      43.670 -17.057   5.041  1.00  0.00     0.089 A 
HETATM   25  C   UNL     1      42.725 -16.018   4.813  1.00  0.00     0.071 A 
BRANCH  24  26
HETATM   26  C   UNL     1      43.733 -18.373   4.398  1.00  0.00    -0.006 A 
HETATM   27  C   UNL     1      43.508 -18.499   3.019  1.00  0.00     0.014 A 
HETATM   28  C   UNL     1      43.585 -19.747   2.394  1.00  0.00     0.001 A 
HETATM   29  C   UNL     1      43.882 -20.884   3.142  1.00  0.00     0.000 A 
HETATM   30  C   UNL     1      44.097 -20.775   4.514  1.00  0.00     0.001 A 
HETATM   31  C   UNL     1      44.024 -19.527   5.139  1.00  0.00     0.014 A 
ENDBRANCH  24  26
ENDBRANCH   1  20
TORSDOF 8
ENDMDL
MODEL 5
REMARK VINA RESULT:      -8.4      2.470     11.669
REMARK  8 active torsions:
REMARK  status: ('A' for Active; 'I' for Inactive)
REMARK    1  A    between atoms: C_4  and  C_5 
REMARK    2  A    between atoms: C_9  and  C_10 
REMARK       I    between atoms: C_10  and  N_11 
REMARK    3  A    between atoms: N_11  and  C_12 
REMARK    4  A    between atoms: C_12  and  C_13 
REMARK    5  A    between atoms: C_13  and  C_14 
REMARK    6  A    between atoms: C_14  and  C_15 
REMARK    7  A    between atoms: C_15  and  O_16 
REMARK    8  A    between atoms: O_16  and  C_17 
ROOT
HETATM    1  C   UNL     1      40.183 -12.705   6.042  1.00  0.00     0.270 C 
HETATM    2  N   UNL     1      41.178 -11.801   6.311  1.00  0.00    -0.345 N 
HETATM    3  O   UNL     1      38.994 -12.411   6.085  1.00  0.00    -0.266 OA
HETATM    4  H   UNL     1      42.142 -12.054   6.157  1.00  0.00     0.163 HD
ENDROOT
BRANCH   2   5
HETATM    5  C   UNL     1      40.875 -10.427   6.612  1.00  0.00     0.217 C 
BRANCH   5   6
HETATM    6  C   UNL     1      42.086  -9.799   7.283  1.00  0.00    -0.085 C 
BRANCH   6   7
HETATM    7  C   UNL     1      43.124  -9.261   7.860  1.00  0.00    -0.078 C 
BRANCH   7   8
HETATM    8  C   UNL     1      44.334  -8.633   8.531  1.00  0.00     0.269 C 
BRANCH   8   9
HETATM    9  O   UNL     1      44.680  -9.421   9.667  1.00  0.00    -0.339 OA
BRANCH   9  10
HETATM   10  C   UNL     1      43.931  -9.241  10.797  1.00  0.00     0.072 A 
HETATM   11  C   UNL     1      43.547  -8.014  11.343  1.00  0.00     0.069 A 
HETATM   12  C   UNL     1      42.786  -7.939  12.504  1.00  0.00     0.069 A 
HETATM   13  C   UNL     1      42.396  -9.138  13.136  1.00  0.00    -0.007 A 
HETATM   14  N   UNL     1      42.446  -6.731  12.988  1.00  0.00    -0.260 NA
HETATM   15  C   UNL     1      42.774 -10.375  12.592  1.00  0.00     0.016 A 
HETATM   16  C   UNL     1      41.632  -9.050  14.306  1.00  0.00     0.015 A 
HETATM   17  C   UNL     1      43.538 -10.420  11.427  1.00  0.00     0.038 A 
HETATM   18  C   UNL     1      41.281  -7.803  14.809  1.00  0.00     0.020 A 
HETATM   19  C   UNL     1      41.709  -6.684  14.120  1.00  0.00     0.117 A 
ENDBRANCH   9  10
ENDBRANCH   8   9
ENDBRANCH   7   8
ENDBRANCH   6   7
ENDBRANCH   5   6
ENDBRANCH   2   5
BRANCH   1  20
HETATM   20  C   UNL     1      40.640 -14.021   5.686  1.00  0.00     0.120 A 
HETATM   21  N   UNL     1      40.020 -15.148   6.148  1.00  0.00    -0.272 N 
HETATM   22  N   UNL     1      40.551 -16.294   5.696  1.00  0.00    -0.174 NA
HETATM   23  H   UNL     1      39.215 -15.189   6.767  1.00  0.00     0.189 HD
HETATM   24  C   UNL     1      41.589 -15.910   4.935  1.00  0.00     0.089 A 
HETATM   25  C   UNL     1      41.676 -14.490   4.904  1.00  0.00     0.071 A 
BRANCH  24  26
HETATM   26  C   UNL     1      42.452 -16.880   4.254  1.00  0.00    -0.006 A 
HETATM   27  C   UNL     1      43.480 -17.528   4.953  1.00  0.00     0.014 A 
HETATM   28  C   UNL     1      44.295 -18.468   4.316  1.00  0.00     0.001 A 
HETATM   29  C   UNL     1      44.095 -18.766   2.970  1.00  0.00     0.000 A 
HETATM   30  C   UNL     1      43.084 -18.124   2.261  1.00  0.00     0.001 A 
HETATM   31  C   UNL     1      42.266 -17.186   2.898  1.00  0.00     0.014 A 
ENDBRANCH  24  26
ENDBRANCH   1  20
TORSDOF 8
ENDMDL
MODEL 6
REMARK VINA RESULT:      -8.2      2.635      3.807
REMARK  8 active torsions:
REMARK  status: ('A' for Active; 'I' for Inactive)
REMARK    1  A    between atoms: C_4  and  C_5 
REMARK    2  A    between atoms: C_9  and  C_10 
REMARK       I    between atoms: C_10  and  N_11 
REMARK    3  A    between atoms: N_11  and  C_12 
REMARK    4  A    between atoms: C_12  and  C_13 
REMARK    5  A    between atoms: C_13  and  C_14 
REMARK    6  A    between atoms: C_14  and  C_15 
REMARK    7  A    between atoms: C_15  and  O_16 
REMARK    8  A    between atoms: O_16  and  C_17 
ROOT
HETATM    1  C   UNL     1      44.344  -9.961   8.872  1.00  0.00     0.270 C 
HETATM    2  N   UNL     1      44.412 -11.245   8.396  1.00  0.00    -0.345 N 
HETATM    3  O   UNL     1      44.686  -8.991   8.205  1.00  0.00    -0.266 OA
HETATM    4  H   UNL     1      44.019 -12.002   8.933  1.00  0.00     0.163 HD
ENDROOT
BRANCH   2   5
HETATM    5  C   UNL     1      44.847 -11.519   7.052  1.00  0.00     0.217 C 
BRANCH   5   6
HETATM    6  C   UNL     1      44.034 -12.683   6.508  1.00  0.00    -0.085 C 
BRANCH   6   7
HETATM    7  C   UNL     1      43.337 -13.681   6.042  1.00  0.00    -0.078 C 
BRANCH   7   8
HETATM    8  C   UNL     1      42.526 -14.846   5.498  1.00  0.00     0.269 C 
BRANCH   8   9
HETATM    9  O   UNL     1      43.074 -15.230   4.240  1.00  0.00    -0.339 OA
BRANCH   9  10
HETATM   10  C   UNL     1      42.282 -15.052   3.139  1.00  0.00     0.072 A 
HETATM   11  C   UNL     1      42.262 -13.926   2.313  1.00  0.00     0.069 A 
HETATM   12  C   UNL     1      41.411 -13.840   1.216  1.00  0.00     0.069 A 
HETATM   13  C   UNL     1      40.553 -14.926   0.940  1.00  0.00    -0.007 A 
HETATM   14  N   UNL     1      41.431 -12.731   0.456  1.00  0.00    -0.260 NA
HETATM   15  C   UNL     1      40.570 -16.063   1.762  1.00  0.00     0.016 A 
HETATM   16  C   UNL     1      39.700 -14.828  -0.165  1.00  0.00     0.015 A 
HETATM   17  C   UNL     1      41.433 -16.120   2.855  1.00  0.00     0.038 A 
HETATM   18  C   UNL     1      39.717 -13.682  -0.951  1.00  0.00     0.020 A 
HETATM   19  C   UNL     1      40.592 -12.671  -0.602  1.00  0.00     0.117 A 
ENDBRANCH   9  10
ENDBRANCH   8   9
ENDBRANCH   7   8
ENDBRANCH   6   7
ENDBRANCH   5   6
ENDBRANCH   2   5
BRANCH   1  20
HETATM   20  C   UNL     1      43.823  -9.835  10.206  1.00  0.00     0.120 A 
HETATM   21  N   UNL     1      43.457 -10.926  10.942  1.00  0.00    -0.272 N 
HETATM   22  N   UNL     1      43.021 -10.637  12.178  1.00  0.00    -0.174 NA
HETATM   23  H   UNL     1      43.500 -11.899  10.651  1.00  0.00     0.189 HD
HETATM   24  C   UNL     1      43.063  -9.297  12.247  1.00  0.00     0.089 A 
HETATM   25  C   UNL     1      43.562  -8.758  11.028  1.00  0.00     0.071 A 
BRANCH  24  26
HETATM   26  C   UNL     1      42.651  -8.569  13.451  1.00  0.00    -0.006 A 
HETATM   27  C   UNL     1      41.584  -9.036  14.232  1.00  0.00     0.014 A 
HETATM   28  C   UNL     1      41.196  -8.358  15.391  1.00  0.00     0.001 A 
HETATM   29  C   UNL     1      41.869  -7.202  15.780  1.00  0.00     0.000 A 
HETATM   30  C   UNL     1      42.924  -6.721  15.010  1.00  0.00     0.001 A 
HETATM   31  C   UNL     1      43.314  -7.400  13.852  1.00  0.00     0.014 A 
ENDBRANCH  24  26
ENDBRANCH   1  20
TORSDOF 8
ENDMDL
MODEL 7
REMARK VINA RESULT:      -8.0      2.445      2.802
REMARK  8 active torsions:
REMARK  status: ('A' for Active; 'I' for Inactive)
REMARK    1  A    between atoms: C_4  and  C_5 
REMARK    2  A    between atoms: C_9  and  C_10 
REMARK       I    between atoms: C_10  and  N_11 
REMARK    3  A    between atoms: N_11  and  C_12 
REMARK    4  A    between atoms: C_12  and  C_13 
REMARK    5  A    between atoms: C_13  and  C_14 
REMARK    6  A    between atoms: C_14  and  C_15 
REMARK    7  A    between atoms: C_15  and  O_16 
REMARK    8  A    between atoms: O_16  and  C_17 
ROOT
HETATM    1  C   UNL     1      40.083  -9.495   8.495  1.00  0.00     0.270 C 
HETATM    2  N   UNL     1      40.712 -10.278   7.563  1.00  0.00    -0.345 N 
HETATM    3  O   UNL     1      38.983  -8.990   8.300  1.00  0.00    -0.266 OA
HETATM    4  H   UNL     1      41.562 -10.763   7.805  1.00  0.00     0.163 HD
ENDROOT
BRANCH   2   5
HETATM    5  C   UNL     1      40.081 -10.596   6.309  1.00  0.00     0.217 C 
BRANCH   5   6
HETATM    6  C   UNL     1      41.127 -11.183   5.375  1.00  0.00    -0.085 C 
BRANCH   6   7
HETATM    7  C   UNL     1      42.025 -11.686   4.575  1.00  0.00    -0.078 C 
BRANCH   7   8
HETATM    8  C   UNL     1      43.072 -12.273   3.642  1.00  0.00     0.269 C 
BRANCH   8   9
HETATM    9  O   UNL     1      42.430 -13.197   2.767  1.00  0.00    -0.339 OA
BRANCH   9  10
HETATM   10  C   UNL     1      42.780 -14.513   2.892  1.00  0.00     0.072 A 
HETATM   11  C   UNL     1      42.996 -15.197   4.091  1.00  0.00     0.069 A 
HETATM   12  C   UNL     1      43.356 -16.541   4.110  1.00  0.00     0.069 A 
HETATM   13  C   UNL     1      43.500 -17.219   2.881  1.00  0.00    -0.007 A 
HETATM   14  N   UNL     1      43.555 -17.149   5.292  1.00  0.00    -0.260 NA
HETATM   15  C   UNL     1      43.280 -16.540   1.673  1.00  0.00     0.016 A 
HETATM   16  C   UNL     1      43.864 -18.570   2.912  1.00  0.00     0.015 A 
HETATM   17  C   UNL     1      42.922 -15.194   1.684  1.00  0.00     0.038 A 
HETATM   18  C   UNL     1      44.072 -19.201   4.133  1.00  0.00     0.020 A 
HETATM   19  C   UNL     1      43.906 -18.454   5.284  1.00  0.00     0.117 A 
ENDBRANCH   9  10
ENDBRANCH   8   9
ENDBRANCH   7   8
ENDBRANCH   6   7
ENDBRANCH   5   6
ENDBRANCH   2   5
BRANCH   1  20
HETATM   20  C   UNL     1      40.802  -9.324   9.729  1.00  0.00     0.120 A 
HETATM   21  N   UNL     1      42.021  -9.903   9.938  1.00  0.00    -0.272 N 
HETATM   22  N   UNL     1      42.571  -9.617  11.128  1.00  0.00    -0.174 NA
HETATM   23  H   UNL     1      42.533 -10.493   9.289  1.00  0.00     0.189 HD
HETATM   24  C   UNL     1      41.659  -8.850  11.747  1.00  0.00     0.089 A 
HETATM   25  C   UNL     1      40.535  -8.643  10.900  1.00  0.00     0.071 A 
BRANCH  24  26
HETATM   26  C   UNL     1      41.874  -8.327  13.099  1.00  0.00    -0.006 A 
HETATM   27  C   UNL     1      42.973  -7.499  13.373  1.00  0.00     0.014 A 
HETATM   28  C   UNL     1      43.175  -6.980  14.655  1.00  0.00     0.001 A 
HETATM   29  C   UNL     1      42.283  -7.288  15.680  1.00  0.00     0.000 A 
HETATM   30  C   UNL     1      41.193  -8.116  15.426  1.00  0.00     0.001 A 
HETATM   31  C   UNL     1      40.988  -8.633  14.143  1.00  0.00     0.014 A 
ENDBRANCH  24  26
ENDBRANCH   1  20
TORSDOF 8
ENDMDL
MODEL 8
REMARK VINA RESULT:      -8.0      7.835     11.344
REMARK  8 active torsions:
REMARK  status: ('A' for Active; 'I' for Inactive)
REMARK    1  A    between atoms: C_4  and  C_5 
REMARK    2  A    between atoms: C_9  and  C_10 
REMARK       I    between atoms: C_10  and  N_11 
REMARK    3  A    between atoms: N_11  and  C_12 
REMARK    4  A    between atoms: C_12  and  C_13 
REMARK    5  A    between atoms: C_13  and  C_14 
REMARK    6  A    between atoms: C_14  and  C_15 
REMARK    7  A    between atoms: C_15  and  O_16 
REMARK    8  A    between atoms: O_16  and  C_17 
ROOT
HETATM    1  C   UNL     1      41.020 -13.591   2.331  1.00  0.00     0.270 C 
HETATM    2  N   UNL     1      41.724 -12.415   2.352  1.00  0.00    -0.345 N 
HETATM    3  O   UNL     1      39.795 -13.628   2.320  1.00  0.00    -0.266 OA
HETATM    4  H   UNL     1      42.727 -12.427   2.249  1.00  0.00     0.163 HD
ENDROOT
BRANCH   2   5
HETATM    5  C   UNL     1      41.052 -11.144   2.308  1.00  0.00     0.217 C 
BRANCH   5   6
HETATM    6  C   UNL     1      41.433 -10.439   1.016  1.00  0.00    -0.085 C 
BRANCH   6   7
HETATM    7  C   UNL     1      41.758  -9.834  -0.092  1.00  0.00    -0.078 C 
BRANCH   7   8
HETATM    8  C   UNL     1      42.139  -9.128  -1.384  1.00  0.00     0.269 C 
BRANCH   8   9
HETATM    9  O   UNL     1      40.959  -8.944  -2.162  1.00  0.00    -0.339 OA
BRANCH   9  10
HETATM   10  C   UNL     1      40.146 -10.032  -2.320  1.00  0.00     0.072 A 
HETATM   11  C   UNL     1      40.558 -11.331  -2.625  1.00  0.00     0.069 A 
HETATM   12  C   UNL     1      39.647 -12.371  -2.771  1.00  0.00     0.069 A 
HETATM   13  C   UNL     1      38.274 -12.095  -2.602  1.00  0.00    -0.007 A 
HETATM   14  N   UNL     1      40.099 -13.603  -3.068  1.00  0.00    -0.260 NA
HETATM   15  C   UNL     1      37.851 -10.794  -2.292  1.00  0.00     0.016 A 
HETATM   16  C   UNL     1      37.365 -13.149  -2.754  1.00  0.00     0.015 A 
HETATM   17  C   UNL     1      38.787  -9.771  -2.152  1.00  0.00     0.038 A 
HETATM   18  C   UNL     1      37.830 -14.422  -3.062  1.00  0.00     0.020 A 
HETATM   19  C   UNL     1      39.193 -14.595  -3.207  1.00  0.00     0.117 A 
ENDBRANCH   9  10
ENDBRANCH   8   9
ENDBRANCH   7   8
ENDBRANCH   6   7
ENDBRANCH   5   6
ENDBRANCH   2   5
BRANCH   1  20
HETATM   20  C   UNL     1      41.827 -14.781   2.305  1.00  0.00     0.120 A 
HETATM   21  N   UNL     1      42.909 -14.900   1.480  1.00  0.00    -0.272 N 
HETATM   22  N   UNL     1      43.573 -16.060   1.602  1.00  0.00    -0.174 NA
HETATM   23  H   UNL     1      43.249 -14.206   0.819  1.00  0.00     0.189 HD
HETATM   24  C   UNL     1      42.877 -16.752   2.518  1.00  0.00     0.089 A 
HETATM   25  C   UNL     1      41.774 -15.982   2.984  1.00  0.00     0.071 A 
BRANCH  24  26
HETATM   26  C   UNL     1      43.272 -18.101   2.936  1.00  0.00    -0.006 A 
HETATM   27  C   UNL     1      43.084 -19.194   2.078  1.00  0.00     0.014 A 
HETATM   28  C   UNL     1      43.477 -20.479   2.461  1.00  0.00     0.001 A 
HETATM   29  C   UNL     1      44.057 -20.688   3.711  1.00  0.00     0.000 A 
HETATM   30  C   UNL     1      44.241 -19.613   4.578  1.00  0.00     0.001 A 
HETATM   31  C   UNL     1      43.852 -18.327   4.194  1.00  0.00     0.014 A 
ENDBRANCH  24  26
ENDBRANCH   1  20
TORSDOF 8
ENDMDL
MODEL 9
REMARK VINA RESULT:      -7.9      6.006      9.974
REMARK  8 active torsions:
REMARK  status: ('A' for Active; 'I' for Inactive)
REMARK    1  A    between atoms: C_4  and  C_5 
REMARK    2  A    between atoms: C_9  and  C_10 
REMARK       I    between atoms: C_10  and  N_11 
REMARK    3  A    between atoms: N_11  and  C_12 
REMARK    4  A    between atoms: C_12  and  C_13 
REMARK    5  A    between atoms: C_13  and  C_14 
REMARK    6  A    between atoms: C_14  and  C_15 
REMARK    7  A    between atoms: C_15  and  O_16 
REMARK    8  A    between atoms: O_16  and  C_17 
ROOT
HETATM    1  C   UNL     1      42.461 -13.016   2.904  1.00  0.00     0.270 C 
HETATM    2  N   UNL     1      42.297 -12.231   4.015  1.00  0.00    -0.345 N 
HETATM    3  O   UNL     1      43.449 -13.721   2.733  1.00  0.00    -0.266 OA
HETATM    4  H   UNL     1      41.422 -11.753   4.170  1.00  0.00     0.163 HD
ENDROOT
BRANCH   2   5
HETATM    5  C   UNL     1      43.266 -12.234   5.079  1.00  0.00     0.217 C 
BRANCH   5   6
HETATM    6  C   UNL     1      43.021 -13.451   5.956  1.00  0.00    -0.085 C 
BRANCH   6   7
HETATM    7  C   UNL     1      42.811 -14.496   6.707  1.00  0.00    -0.078 C 
BRANCH   7   8
HETATM    8  C   UNL     1      42.566 -15.714   7.582  1.00  0.00     0.269 C 
BRANCH   8   9
HETATM    9  O   UNL     1      43.720 -16.550   7.526  1.00  0.00    -0.339 OA
BRANCH   9  10
HETATM   10  C   UNL     1      43.721 -17.541   6.583  1.00  0.00     0.072 A 
HETATM   11  C   UNL     1      43.844 -17.364   5.203  1.00  0.00     0.069 A 
HETATM   12  C   UNL     1      43.828 -18.442   4.325  1.00  0.00     0.069 A 
HETATM   13  C   UNL     1      43.686 -19.742   4.854  1.00  0.00    -0.007 A 
HETATM   14  N   UNL     1      43.947 -18.214   3.005  1.00  0.00    -0.260 NA
HETATM   15  C   UNL     1      43.566 -19.929   6.239  1.00  0.00     0.016 A 
HETATM   16  C   UNL     1      43.669 -20.819   3.960  1.00  0.00     0.015 A 
HETATM   17  C   UNL     1      43.584 -18.830   7.095  1.00  0.00     0.038 A 
HETATM   18  C   UNL     1      43.790 -20.586   2.596  1.00  0.00     0.020 A 
HETATM   19  C   UNL     1      43.926 -19.278   2.172  1.00  0.00     0.117 A 
ENDBRANCH   9  10
ENDBRANCH   8   9
ENDBRANCH   7   8
ENDBRANCH   6   7
ENDBRANCH   5   6
ENDBRANCH   2   5
BRANCH   1  20
HETATM   20  C   UNL     1      41.377 -12.965   1.960  1.00  0.00     0.120 A 
HETATM   21  N   UNL     1      40.291 -12.159   2.153  1.00  0.00    -0.272 N 
HETATM   22  N   UNL     1      39.387 -12.206   1.163  1.00  0.00    -0.174 NA
HETATM   23  H   UNL     1      40.126 -11.540   2.941  1.00  0.00     0.189 HD
HETATM   24  C   UNL     1      39.876 -13.111   0.300  1.00  0.00     0.089 A 
HETATM   25  C   UNL     1      41.124 -13.609   0.765  1.00  0.00     0.071 A 
BRANCH  24  26
HETATM   26  C   UNL     1      39.168 -13.468  -0.934  1.00  0.00    -0.006 A 
HETATM   27  C   UNL     1      38.231 -12.588  -1.494  1.00  0.00     0.014 A 
HETATM   28  C   UNL     1      37.566 -12.912  -2.680  1.00  0.00     0.001 A 
HETATM   29  C   UNL     1      37.828 -14.123  -3.317  1.00  0.00     0.000 A 
HETATM   30  C   UNL     1      38.750 -15.011  -2.768  1.00  0.00     0.001 A 
HETATM   31  C   UNL     1      39.417 -14.686  -1.584  1.00  0.00     0.014 A 
ENDBRANCH  24  26
ENDBRANCH   1  20
TORSDOF 8
ENDMDL
MODEL 10
REMARK VINA RESULT:      -7.8      2.152      2.271
REMARK  8 active torsions:
REMARK  status: ('A' for Active; 'I' for Inactive)
REMARK    1  A    between atoms: C_4  and  C_5 
REMARK    2  A    between atoms: C_9  and  C_10 
REMARK       I    between atoms: C_10  and  N_11 
REMARK    3  A    between atoms: N_11  and  C_12 
REMARK    4  A    between atoms: C_12  and  C_13 
REMARK    5  A    between atoms: C_13  and  C_14 
REMARK    6  A    between atoms: C_14  and  C_15 
REMARK    7  A    between atoms: C_15  and  O_16 
REMARK    8  A    between atoms: O_16  and  C_17 
ROOT
HETATM    1  C   UNL     1      44.269  -9.290   9.229  1.00  0.00     0.270 C 
HETATM    2  N   UNL     1      43.911 -10.390   8.494  1.00  0.00    -0.345 N 
HETATM    3  O   UNL     1      45.350  -8.728   9.094  1.00  0.00    -0.266 OA
HETATM    4  H   UNL     1      42.973 -10.754   8.557  1.00  0.00     0.163 HD
ENDROOT
BRANCH   2   5
HETATM    5  C   UNL     1      44.778 -10.918   7.474  1.00  0.00     0.217 C 
BRANCH   5   6
HETATM    6  C   UNL     1      44.262 -12.287   7.061  1.00  0.00    -0.085 C 
BRANCH   6   7
HETATM    7  C   UNL     1      43.820 -13.461   6.708  1.00  0.00    -0.078 C 
BRANCH   7   8
HETATM    8  C   UNL     1      43.304 -14.831   6.296  1.00  0.00     0.269 C 
BRANCH   8   9
HETATM    9  O   UNL     1      43.164 -14.853   4.878  1.00  0.00    -0.339 OA
BRANCH   9  10
HETATM   10  C   UNL     1      43.252 -16.073   4.266  1.00  0.00     0.072 A 
HETATM   11  C   UNL     1      43.620 -17.275   4.875  1.00  0.00     0.069 A 
HETATM   12  C   UNL     1      43.685 -18.466   4.160  1.00  0.00     0.069 A 
HETATM   13  C   UNL     1      43.367 -18.446   2.785  1.00  0.00    -0.007 A 
HETATM   14  N   UNL     1      44.048 -19.593   4.796  1.00  0.00    -0.260 NA
HETATM   15  C   UNL     1      42.992 -17.244   2.167  1.00  0.00     0.016 A 
HETATM   16  C   UNL     1      43.438 -19.651   2.075  1.00  0.00     0.015 A 
HETATM   17  C   UNL     1      42.937 -16.066   2.908  1.00  0.00     0.038 A 
HETATM   18  C   UNL     1      43.814 -20.817   2.730  1.00  0.00     0.020 A 
HETATM   19  C   UNL     1      44.106 -20.737   4.078  1.00  0.00     0.117 A 
ENDBRANCH   9  10
ENDBRANCH   8   9
ENDBRANCH   7   8
ENDBRANCH   6   7
ENDBRANCH   5   6
ENDBRANCH   2   5
BRANCH   1  20
HETATM   20  C   UNL     1      43.273  -8.832  10.160  1.00  0.00     0.120 A 
HETATM   21  N   UNL     1      43.469  -8.888  11.511  1.00  0.00    -0.272 N 
HETATM   22  N   UNL     1      42.456  -8.391  12.236  1.00  0.00    -0.174 NA
HETATM   23  H   UNL     1      44.289  -9.245  11.992  1.00  0.00     0.189 HD
HETATM   24  C   UNL     1      41.535  -8.028  11.329  1.00  0.00     0.089 A 
HETATM   25  C   UNL     1      42.012  -8.288  10.014  1.00  0.00     0.071 A 
BRANCH  24  26
HETATM   26  C   UNL     1      40.251  -7.439  11.719  1.00  0.00    -0.006 A 
HETATM   27  C   UNL     1      39.737  -7.648  13.007  1.00  0.00     0.014 A 
HETATM   28  C   UNL     1      38.523  -7.074  13.394  1.00  0.00     0.001 A 
HETATM   29  C   UNL     1      37.805  -6.288  12.495  1.00  0.00     0.000 A 
HETATM   30  C   UNL     1      38.299  -6.079  11.209  1.00  0.00     0.001 A 
HETATM   31  C   UNL     1      39.514  -6.650  10.823  1.00  0.00     0.014 A 
ENDBRANCH  24  26
ENDBRANCH   1  20
TORSDOF 8
ENDMDL
