MODEL 1
REMARK VINA RESULT:      -9.0      0.000      0.000
REMARK  4 active torsions:
REMARK  status: ('A' for Active; 'I' for Inactive)
REMARK    1  A    between atoms: C_3  and  N_4 
REMARK    2  A    between atoms: N_4  and  C_5 
REMARK    3  A    between atoms: C_5  and  C_6 
REMARK    4  A    between atoms: C_8  and  C_9 
REMARK       I    between atoms: C_9  and  N_10 
ROOT
HETATM    1  N   UNL     1      42.160 -14.808   1.721  1.00  0.00    -0.372 N 
HETATM    2  H   UNL     1      42.749 -14.567   0.924  1.00  0.00     0.161 HD
ENDROOT
BRANCH   1   3
HETATM    3  C   UNL     1      42.666 -15.818   2.511  1.00  0.00     0.107 A 
HETATM    4  C   UNL     1      43.049 -15.583   3.846  1.00  0.00    -0.017 A 
HETATM    5  C   UNL     1      42.968 -14.229   4.499  1.00  0.00     0.052 C 
HETATM    6  C   UNL     1      43.517 -16.653   4.622  1.00  0.00     0.024 A 
HETATM    7  C   UNL     1      43.594 -17.938   4.083  1.00  0.00    -0.009 A 
HETATM    8  C   UNL     1      43.202 -18.125   2.744  1.00  0.00     0.043 A 
HETATM    9  C   UNL     1      44.044 -19.041   4.826  1.00  0.00     0.014 A 
HETATM   10  N   UNL     1      42.759 -17.071   2.040  1.00  0.00    -0.342 N 
HETATM   11  C   UNL     1      43.275 -19.396   2.160  1.00  0.00     0.030 A 
HETATM   12  H   UNL     1      42.514 -17.224   1.071  1.00  0.00     0.167 HD
HETATM   13  C   UNL     1      43.725 -20.483   2.910  1.00  0.00     0.002 A 
HETATM   14  C   UNL     1      44.105 -20.306   4.239  1.00  0.00     0.001 A 
ENDBRANCH   1   3
BRANCH   1  15
HETATM   15  C   UNL     1      40.755 -14.479   1.534  1.00  0.00     0.160 C 
BRANCH  15  16
HETATM   16  C   UNL     1      40.446 -13.952   0.154  1.00  0.00    -0.040 A 
HETATM   17  C   UNL     1      39.715 -14.708  -0.774  1.00  0.00     0.026 A 
HETATM   18  C   UNL     1      39.462 -14.217  -2.064  1.00  0.00     0.032 A 
HETATM   19  C   UNL     1      39.939 -12.957  -2.435  1.00  0.00     0.017 A 
HETATM   20  C   UNL     1      40.682 -12.205  -1.526  1.00  0.00     0.002 A 
HETATM   21  C   UNL     1      40.941 -12.700  -0.245  1.00  0.00     0.009 A 
BRANCH  18  22
HETATM   22  C   UNL     1      38.650 -15.058  -2.978  1.00  0.00     0.249 C 
HETATM   23  N   UNL     1      38.274 -16.292  -2.538  1.00  0.00    -0.366 N 
HETATM   24  H   UNL     1      38.338 -16.582  -1.572  1.00  0.00     0.159 HD
HETATM   25  H   UNL     1      37.638 -16.814  -3.131  1.00  0.00     0.159 HD
HETATM   26  O   UNL     1      38.318 -14.632  -4.077  1.00  0.00    -0.268 OA
ENDBRANCH  18  22
ENDBRANCH  15  16
ENDBRANCH   1  15
TORSDOF 4
ENDMDL
MODEL 2
REMARK VINA RESULT:      -8.8      4.811      7.292
REMARK  4 active torsions:
REMARK  status: ('A' for Active; 'I' for Inactive)
REMARK    1  A    between atoms: C_3  and  N_4 
REMARK    2  A    between atoms: N_4  and  C_5 
REMARK    3  A    between atoms: C_5  and  C_6 
REMARK    4  A    between atoms: C_8  and  C_9 
REMARK       I    between atoms: C_9  and  N_10 
ROOT
HETATM    1  N   UNL     1      43.217 -14.791   4.591  1.00  0.00    -0.372 N 
HETATM    2  H   UNL     1      43.144 -14.048   3.897  1.00  0.00     0.161 HD
ENDROOT
BRANCH   1   3
HETATM    3  C   UNL     1      43.287 -16.059   4.055  1.00  0.00     0.107 A 
HETATM    4  C   UNL     1      43.136 -16.280   2.672  1.00  0.00    -0.017 A 
HETATM    5  C   UNL     1      42.861 -15.174   1.687  1.00  0.00     0.052 C 
HETATM    6  C   UNL     1      43.260 -17.583   2.170  1.00  0.00     0.024 A 
HETATM    7  C   UNL     1      43.538 -18.649   3.027  1.00  0.00    -0.009 A 
HETATM    8  C   UNL     1      43.678 -18.381   4.401  1.00  0.00     0.043 A 
HETATM    9  C   UNL     1      43.682 -19.967   2.567  1.00  0.00     0.014 A 
HETATM   10  N   UNL     1      43.553 -17.116   4.837  1.00  0.00    -0.342 N 
HETATM   11  C   UNL     1      43.946 -19.423   5.298  1.00  0.00     0.030 A 
HETATM   12  H   UNL     1      43.626 -16.954   5.832  1.00  0.00     0.167 HD
HETATM   13  C   UNL     1      44.086 -20.729   4.828  1.00  0.00     0.002 A 
HETATM   14  C   UNL     1      43.957 -20.999   3.467  1.00  0.00     0.001 A 
ENDBRANCH   1   3
BRANCH   1  15
HETATM   15  C   UNL     1      42.677 -14.433   5.894  1.00  0.00     0.160 C 
BRANCH  15  16
HETATM   16  C   UNL     1      42.906 -12.985   6.254  1.00  0.00    -0.040 A 
HETATM   17  C   UNL     1      44.063 -12.570   6.930  1.00  0.00     0.026 A 
HETATM   18  C   UNL     1      44.248 -11.225   7.285  1.00  0.00     0.032 A 
HETATM   19  C   UNL     1      43.270 -10.281   6.963  1.00  0.00     0.017 A 
HETATM   20  C   UNL     1      42.107 -10.685   6.308  1.00  0.00     0.002 A 
HETATM   21  C   UNL     1      41.921 -12.027   5.963  1.00  0.00     0.009 A 
BRANCH  18  22
HETATM   22  C   UNL     1      45.514 -10.855   7.964  1.00  0.00     0.249 C 
HETATM   23  N   UNL     1      46.573 -10.499   7.181  1.00  0.00    -0.366 N 
HETATM   24  H   UNL     1      46.489 -10.277   6.199  1.00  0.00     0.159 HD
HETATM   25  H   UNL     1      47.397 -10.153   7.660  1.00  0.00     0.159 HD
HETATM   26  O   UNL     1      45.581 -10.853   9.187  1.00  0.00    -0.268 OA
ENDBRANCH  18  22
ENDBRANCH  15  16
ENDBRANCH   1  15
TORSDOF 4
ENDMDL
MODEL 3
REMARK VINA RESULT:      -8.5      2.709      7.603
REMARK  4 active torsions:
REMARK  status: ('A' for Active; 'I' for Inactive)
REMARK    1  A    between atoms: C_3  and  N_4 
REMARK    2  A    between atoms: N_4  and  C_5 
REMARK    3  A    between atoms: C_5  and  C_6 
REMARK    4  A    between atoms: C_8  and  C_9 
REMARK       I    between atoms: C_9  and  N_10 
ROOT
HETATM    1  N   UNL     1      41.515 -14.990   1.929  1.00  0.00    -0.372 N 
HETATM    2  H   UNL     1      41.093 -15.330   2.793  1.00  0.00     0.161 HD
ENDROOT
BRANCH   1   3
HETATM    3  C   UNL     1      40.642 -14.312   1.106  1.00  0.00     0.107 A 
HETATM    4  C   UNL     1      40.177 -13.023   1.432  1.00  0.00    -0.017 A 
HETATM    5  C   UNL     1      40.561 -12.305   2.699  1.00  0.00     0.052 C 
HETATM    6  C   UNL     1      39.325 -12.357   0.539  1.00  0.00     0.024 A 
HETATM    7  C   UNL     1      38.949 -12.957  -0.663  1.00  0.00    -0.009 A 
HETATM    8  C   UNL     1      39.438 -14.247  -0.946  1.00  0.00     0.043 A 
HETATM    9  C   UNL     1      38.109 -12.324  -1.592  1.00  0.00     0.014 A 
HETATM   10  N   UNL     1      40.252 -14.846  -0.062  1.00  0.00    -0.342 N 
HETATM   11  C   UNL     1      39.077 -14.891  -2.136  1.00  0.00     0.030 A 
HETATM   12  H   UNL     1      40.564 -15.784  -0.273  1.00  0.00     0.167 HD
HETATM   13  C   UNL     1      38.240 -14.250  -3.050  1.00  0.00     0.002 A 
HETATM   14  C   UNL     1      37.761 -12.969  -2.780  1.00  0.00     0.001 A 
ENDBRANCH   1   3
BRANCH   1  15
HETATM   15  C   UNL     1      42.689 -15.740   1.513  1.00  0.00     0.160 C 
BRANCH  15  16
HETATM   16  C   UNL     1      43.156 -16.736   2.547  1.00  0.00    -0.040 A 
HETATM   17  C   UNL     1      43.247 -18.106   2.259  1.00  0.00     0.026 A 
HETATM   18  C   UNL     1      43.655 -19.023   3.240  1.00  0.00     0.032 A 
HETATM   19  C   UNL     1      43.976 -18.573   4.522  1.00  0.00     0.017 A 
HETATM   20  C   UNL     1      43.871 -17.215   4.825  1.00  0.00     0.002 A 
HETATM   21  C   UNL     1      43.457 -16.304   3.849  1.00  0.00     0.009 A 
BRANCH  18  22
HETATM   22  C   UNL     1      43.764 -20.451   2.850  1.00  0.00     0.249 C 
HETATM   23  N   UNL     1      44.014 -21.360   3.836  1.00  0.00    -0.366 N 
HETATM   24  H   UNL     1      43.927 -21.151   4.821  1.00  0.00     0.159 HD
HETATM   25  H   UNL     1      43.986 -22.338   3.571  1.00  0.00     0.159 HD
HETATM   26  O   UNL     1      43.608 -20.786   1.683  1.00  0.00    -0.268 OA
ENDBRANCH  18  22
ENDBRANCH  15  16
ENDBRANCH   1  15
TORSDOF 4
ENDMDL
MODEL 4
REMARK VINA RESULT:      -8.4      1.910      2.601
REMARK  4 active torsions:
REMARK  status: ('A' for Active; 'I' for Inactive)
REMARK    1  A    between atoms: C_3  and  N_4 
REMARK    2  A    between atoms: N_4  and  C_5 
REMARK    3  A    between atoms: C_5  and  C_6 
REMARK    4  A    between atoms: C_8  and  C_9 
REMARK       I    between atoms: C_9  and  N_10 
ROOT
HETATM    1  N   UNL     1      43.061 -14.599   3.711  1.00  0.00    -0.372 N 
HETATM    2  H   UNL     1      43.759 -14.120   3.143  1.00  0.00     0.161 HD
ENDROOT
BRANCH   1   3
HETATM    3  C   UNL     1      43.372 -15.911   3.998  1.00  0.00     0.107 A 
HETATM    4  C   UNL     1      43.784 -16.302   5.287  1.00  0.00    -0.017 A 
HETATM    5  C   UNL     1      43.946 -15.334   6.428  1.00  0.00     0.052 C 
HETATM    6  C   UNL     1      44.047 -17.656   5.539  1.00  0.00     0.024 A 
HETATM    7  C   UNL     1      43.893 -18.608   4.531  1.00  0.00    -0.009 A 
HETATM    8  C   UNL     1      43.481 -18.171   3.258  1.00  0.00     0.043 A 
HETATM    9  C   UNL     1      44.133 -19.975   4.741  1.00  0.00     0.014 A 
HETATM   10  N   UNL     1      43.239 -16.864   3.063  1.00  0.00    -0.342 N 
HETATM   11  C   UNL     1      43.325 -19.091   2.213  1.00  0.00     0.030 A 
HETATM   12  H   UNL     1      42.975 -16.570   2.132  1.00  0.00     0.167 HD
HETATM   13  C   UNL     1      43.568 -20.447   2.437  1.00  0.00     0.002 A 
HETATM   14  C   UNL     1      43.968 -20.887   3.697  1.00  0.00     0.001 A 
ENDBRANCH   1   3
BRANCH   1  15
HETATM   15  C   UNL     1      41.725 -14.032   3.603  1.00  0.00     0.160 C 
BRANCH  15  16
HETATM   16  C   UNL     1      41.097 -14.242   2.247  1.00  0.00    -0.040 A 
HETATM   17  C   UNL     1      41.116 -13.240   1.266  1.00  0.00     0.026 A 
HETATM   18  C   UNL     1      40.501 -13.439   0.020  1.00  0.00     0.032 A 
HETATM   19  C   UNL     1      39.863 -14.651  -0.254  1.00  0.00     0.017 A 
HETATM   20  C   UNL     1      39.822 -15.647   0.721  1.00  0.00     0.002 A 
HETATM   21  C   UNL     1      40.426 -15.443   1.964  1.00  0.00     0.009 A 
BRANCH  18  22
HETATM   22  C   UNL     1      40.595 -12.348  -0.981  1.00  0.00     0.249 C 
HETATM   23  N   UNL     1      41.375 -12.560  -2.080  1.00  0.00    -0.366 N 
HETATM   24  H   UNL     1      41.720 -13.471  -2.349  1.00  0.00     0.159 HD
HETATM   25  H   UNL     1      41.349 -11.848  -2.801  1.00  0.00     0.159 HD
HETATM   26  O   UNL     1      39.968 -11.309  -0.821  1.00  0.00    -0.268 OA
ENDBRANCH  18  22
ENDBRANCH  15  16
ENDBRANCH   1  15
TORSDOF 4
ENDMDL
MODEL 5
REMARK VINA RESULT:      -8.2      5.535      7.023
REMARK  4 active torsions:
REMARK  status: ('A' for Active; 'I' for Inactive)
REMARK    1  A    between atoms: C_3  and  N_4 
REMARK    2  A    between atoms: N_4  and  C_5 
REMARK    3  A    between atoms: C_5  and  C_6 
REMARK    4  A    between atoms: C_8  and  C_9 
REMARK       I    between atoms: C_9  and  N_10 
ROOT
HETATM    1  N   UNL     1      43.314 -14.900   4.791  1.00  0.00    -0.372 N 
HETATM    2  H   UNL     1      43.797 -14.370   4.066  1.00  0.00     0.161 HD
ENDROOT
BRANCH   1   3
HETATM    3  C   UNL     1      43.527 -16.261   4.730  1.00  0.00     0.107 A 
HETATM    4  C   UNL     1      43.862 -17.003   5.879  1.00  0.00    -0.017 A 
HETATM    5  C   UNL     1      44.045 -16.380   7.237  1.00  0.00     0.052 C 
HETATM    6  C   UNL     1      44.025 -18.392   5.773  1.00  0.00     0.024 A 
HETATM    7  C   UNL     1      43.846 -19.034   4.547  1.00  0.00    -0.009 A 
HETATM    8  C   UNL     1      43.513 -18.252   3.425  1.00  0.00     0.043 A 
HETATM    9  C   UNL     1      43.986 -20.423   4.396  1.00  0.00     0.014 A 
HETATM   10  N   UNL     1      43.366 -16.925   3.575  1.00  0.00    -0.342 N 
HETATM   11  C   UNL     1      43.336 -18.854   2.173  1.00  0.00     0.030 A 
HETATM   12  H   UNL     1      43.159 -16.380   2.749  1.00  0.00     0.167 HD
HETATM   13  C   UNL     1      43.480 -20.236   2.038  1.00  0.00     0.002 A 
HETATM   14  C   UNL     1      43.800 -21.017   3.147  1.00  0.00     0.001 A 
ENDBRANCH   1   3
BRANCH   1  15
HETATM   15  C   UNL     1      42.135 -14.233   5.321  1.00  0.00     0.160 C 
BRANCH  15  16
HETATM   16  C   UNL     1      42.434 -12.874   5.907  1.00  0.00    -0.040 A 
HETATM   17  C   UNL     1      43.675 -12.584   6.492  1.00  0.00     0.026 A 
HETATM   18  C   UNL     1      43.928 -11.325   7.060  1.00  0.00     0.032 A 
HETATM   19  C   UNL     1      42.934 -10.343   7.044  1.00  0.00     0.017 A 
HETATM   20  C   UNL     1      41.690 -10.628   6.481  1.00  0.00     0.002 A 
HETATM   21  C   UNL     1      41.437 -11.885   5.925  1.00  0.00     0.009 A 
BRANCH  18  22
HETATM   22  C   UNL     1      45.277 -11.079   7.626  1.00  0.00     0.249 C 
HETATM   23  N   UNL     1      46.312 -10.922   6.752  1.00  0.00    -0.366 N 
HETATM   24  H   UNL     1      46.186 -10.762   5.763  1.00  0.00     0.159 HD
HETATM   25  H   UNL     1      47.207 -10.655   7.149  1.00  0.00     0.159 HD
HETATM   26  O   UNL     1      45.432 -10.998   8.838  1.00  0.00    -0.268 OA
ENDBRANCH  18  22
ENDBRANCH  15  16
ENDBRANCH   1  15
TORSDOF 4
ENDMDL
MODEL 6
REMARK VINA RESULT:      -8.1      4.331      6.829
REMARK  4 active torsions:
REMARK  status: ('A' for Active; 'I' for Inactive)
REMARK    1  A    between atoms: C_3  and  N_4 
REMARK    2  A    between atoms: N_4  and  C_5 
REMARK    3  A    between atoms: C_5  and  C_6 
REMARK    4  A    between atoms: C_8  and  C_9 
REMARK       I    between atoms: C_9  and  N_10 
ROOT
HETATM    1  N   UNL     1      43.194 -14.734   4.314  1.00  0.00    -0.372 N 
HETATM    2  H   UNL     1      43.405 -14.041   3.597  1.00  0.00     0.161 HD
ENDROOT
BRANCH   1   3
HETATM    3  C   UNL     1      43.267 -16.039   3.876  1.00  0.00     0.107 A 
HETATM    4  C   UNL     1      43.107 -16.365   2.515  1.00  0.00    -0.017 A 
HETATM    5  C   UNL     1      42.818 -15.340   1.451  1.00  0.00     0.052 C 
HETATM    6  C   UNL     1      43.234 -17.703   2.113  1.00  0.00     0.024 A 
HETATM    7  C   UNL     1      43.525 -18.698   3.046  1.00  0.00    -0.009 A 
HETATM    8  C   UNL     1      43.675 -18.325   4.395  1.00  0.00     0.043 A 
HETATM    9  C   UNL     1      43.674 -20.047   2.688  1.00  0.00     0.014 A 
HETATM   10  N   UNL     1      43.546 -17.032   4.734  1.00  0.00    -0.342 N 
HETATM   11  C   UNL     1      43.956 -19.294   5.367  1.00  0.00     0.030 A 
HETATM   12  H   UNL     1      43.626 -16.794   5.713  1.00  0.00     0.167 HD
HETATM   13  C   UNL     1      44.100 -20.632   4.996  1.00  0.00     0.002 A 
HETATM   14  C   UNL     1      43.962 -21.006   3.661  1.00  0.00     0.001 A 
ENDBRANCH   1   3
BRANCH   1  15
HETATM   15  C   UNL     1      42.353 -14.230   5.389  1.00  0.00     0.160 C 
BRANCH  15  16
HETATM   16  C   UNL     1      42.930 -13.015   6.074  1.00  0.00    -0.040 A 
HETATM   17  C   UNL     1      42.158 -11.865   6.303  1.00  0.00     0.026 A 
HETATM   18  C   UNL     1      42.717 -10.732   6.915  1.00  0.00     0.032 A 
HETATM   19  C   UNL     1      44.058 -10.743   7.305  1.00  0.00     0.017 A 
HETATM   20  C   UNL     1      44.839 -11.874   7.066  1.00  0.00     0.002 A 
HETATM   21  C   UNL     1      44.283 -12.998   6.448  1.00  0.00     0.009 A 
BRANCH  18  22
HETATM   22  C   UNL     1      41.829  -9.569   7.158  1.00  0.00     0.249 C 
HETATM   23  N   UNL     1      40.944  -9.652   8.192  1.00  0.00    -0.366 N 
HETATM   24  H   UNL     1      40.996 -10.357   8.914  1.00  0.00     0.159 HD
HETATM   25  H   UNL     1      40.416  -8.813   8.409  1.00  0.00     0.159 HD
HETATM   26  O   UNL     1      41.919  -8.567   6.459  1.00  0.00    -0.268 OA
ENDBRANCH  18  22
ENDBRANCH  15  16
ENDBRANCH   1  15
TORSDOF 4
ENDMDL
MODEL 7
REMARK VINA RESULT:      -8.1      5.042      7.969
REMARK  4 active torsions:
REMARK  status: ('A' for Active; 'I' for Inactive)
REMARK    1  A    between atoms: C_3  and  N_4 
REMARK    2  A    between atoms: N_4  and  C_5 
REMARK    3  A    between atoms: C_5  and  C_6 
REMARK    4  A    between atoms: C_8  and  C_9 
REMARK       I    between atoms: C_9  and  N_10 
ROOT
HETATM    1  N   UNL     1      43.092 -13.921   4.795  1.00  0.00    -0.372 N 
HETATM    2  H   UNL     1      42.688 -13.203   4.195  1.00  0.00     0.161 HD
ENDROOT
BRANCH   1   3
HETATM    3  C   UNL     1      43.170 -15.166   4.210  1.00  0.00     0.107 A 
HETATM    4  C   UNL     1      42.992 -15.338   2.823  1.00  0.00    -0.017 A 
HETATM    5  C   UNL     1      42.676 -14.201   1.887  1.00  0.00     0.052 C 
HETATM    6  C   UNL     1      43.124 -16.619   2.269  1.00  0.00     0.024 A 
HETATM    7  C   UNL     1      43.439 -17.711   3.078  1.00  0.00    -0.009 A 
HETATM    8  C   UNL     1      43.606 -17.493   4.458  1.00  0.00     0.043 A 
HETATM    9  C   UNL     1      43.594 -19.009   2.566  1.00  0.00     0.014 A 
HETATM   10  N   UNL     1      43.471 -16.248   4.944  1.00  0.00    -0.342 N 
HETATM   11  C   UNL     1      43.912 -18.563   5.309  1.00  0.00     0.030 A 
HETATM   12  H   UNL     1      43.565 -16.122   5.943  1.00  0.00     0.167 HD
HETATM   13  C   UNL     1      44.061 -19.848   4.786  1.00  0.00     0.002 A 
HETATM   14  C   UNL     1      43.906 -20.069   3.419  1.00  0.00     0.001 A 
ENDBRANCH   1   3
BRANCH   1  15
HETATM   15  C   UNL     1      42.961 -13.642   6.217  1.00  0.00     0.160 C 
BRANCH  15  16
HETATM   16  C   UNL     1      43.915 -12.579   6.705  1.00  0.00    -0.040 A 
HETATM   17  C   UNL     1      43.714 -11.915   7.924  1.00  0.00     0.026 A 
HETATM   18  C   UNL     1      44.594 -10.909   8.351  1.00  0.00     0.032 A 
HETATM   19  C   UNL     1      45.688 -10.559   7.555  1.00  0.00     0.017 A 
HETATM   20  C   UNL     1      45.886 -11.199   6.332  1.00  0.00     0.002 A 
HETATM   21  C   UNL     1      45.004 -12.195   5.905  1.00  0.00     0.009 A 
BRANCH  18  22
HETATM   22  C   UNL     1      44.338 -10.278   9.669  1.00  0.00     0.249 C 
HETATM   23  N   UNL     1      44.326  -8.916   9.729  1.00  0.00    -0.366 N 
HETATM   24  H   UNL     1      44.276  -8.324   8.912  1.00  0.00     0.159 HD
HETATM   25  H   UNL     1      44.051  -8.501  10.613  1.00  0.00     0.159 HD
HETATM   26  O   UNL     1      44.124 -10.973  10.655  1.00  0.00    -0.268 OA
ENDBRANCH  18  22
ENDBRANCH  15  16
ENDBRANCH   1  15
TORSDOF 4
ENDMDL
MODEL 8
REMARK VINA RESULT:      -8.1      4.543      5.908
REMARK  4 active torsions:
REMARK  status: ('A' for Active; 'I' for Inactive)
REMARK    1  A    between atoms: C_3  and  N_4 
REMARK    2  A    between atoms: N_4  and  C_5 
REMARK    3  A    between atoms: C_5  and  C_6 
REMARK    4  A    between atoms: C_8  and  C_9 
REMARK       I    between atoms: C_9  and  N_10 
ROOT
HETATM    1  N   UNL     1      42.898 -14.619   3.928  1.00  0.00    -0.372 N 
HETATM    2  H   UNL     1      43.463 -14.124   3.239  1.00  0.00     0.161 HD
ENDROOT
BRANCH   1   3
HETATM    3  C   UNL     1      43.258 -15.937   4.111  1.00  0.00     0.107 A 
HETATM    4  C   UNL     1      43.781 -16.391   5.338  1.00  0.00    -0.017 A 
HETATM    5  C   UNL     1      44.014 -15.485   6.518  1.00  0.00     0.052 C 
HETATM    6  C   UNL     1      44.091 -17.750   5.488  1.00  0.00     0.024 A 
HETATM    7  C   UNL     1      43.877 -18.646   4.440  1.00  0.00    -0.009 A 
HETATM    8  C   UNL     1      43.355 -18.147   3.232  1.00  0.00     0.043 A 
HETATM    9  C   UNL     1      44.161 -20.016   4.550  1.00  0.00     0.014 A 
HETATM   10  N   UNL     1      43.071 -16.838   3.134  1.00  0.00    -0.342 N 
HETATM   11  C   UNL     1      43.134 -19.009   2.150  1.00  0.00     0.030 A 
HETATM   12  H   UNL     1      42.727 -16.498   2.246  1.00  0.00     0.167 HD
HETATM   13  C   UNL     1      43.423 -20.369   2.273  1.00  0.00     0.002 A 
HETATM   14  C   UNL     1      43.931 -20.870   3.470  1.00  0.00     0.001 A 
ENDBRANCH   1   3
BRANCH   1  15
HETATM   15  C   UNL     1      41.571 -14.053   4.116  1.00  0.00     0.160 C 
BRANCH  15  16
HETATM   16  C   UNL     1      41.568 -12.824   4.993  1.00  0.00    -0.040 A 
HETATM   17  C   UNL     1      40.391 -12.356   5.597  1.00  0.00     0.026 A 
HETATM   18  C   UNL     1      40.398 -11.195   6.386  1.00  0.00     0.032 A 
HETATM   19  C   UNL     1      41.590 -10.492   6.577  1.00  0.00     0.017 A 
HETATM   20  C   UNL     1      42.762 -10.938   5.966  1.00  0.00     0.002 A 
HETATM   21  C   UNL     1      42.751 -12.089   5.173  1.00  0.00     0.009 A 
BRANCH  18  22
HETATM   22  C   UNL     1      39.124 -10.783   7.023  1.00  0.00     0.249 C 
HETATM   23  N   UNL     1      39.126 -10.579   8.372  1.00  0.00    -0.366 N 
HETATM   24  H   UNL     1      39.970 -10.493   8.920  1.00  0.00     0.159 HD
HETATM   25  H   UNL     1      38.276 -10.202   8.777  1.00  0.00     0.159 HD
HETATM   26  O   UNL     1      38.120 -10.614   6.342  1.00  0.00    -0.268 OA
ENDBRANCH  18  22
ENDBRANCH  15  16
ENDBRANCH   1  15
TORSDOF 4
ENDMDL
MODEL 9
REMARK VINA RESULT:      -8.0      1.718      2.375
REMARK  4 active torsions:
REMARK  status: ('A' for Active; 'I' for Inactive)
REMARK    1  A    between atoms: C_3  and  N_4 
REMARK    2  A    between atoms: N_4  and  C_5 
REMARK    3  A    between atoms: C_5  and  C_6 
REMARK    4  A    between atoms: C_8  and  C_9 
REMARK       I    between atoms: C_9  and  N_10 
ROOT
HETATM    1  N   UNL     1      42.603 -14.506   4.074  1.00  0.00    -0.372 N 
HETATM    2  H   UNL     1      42.050 -14.196   4.872  1.00  0.00     0.161 HD
ENDROOT
BRANCH   1   3
HETATM    3  C   UNL     1      43.047 -15.807   4.167  1.00  0.00     0.107 A 
HETATM    4  C   UNL     1      43.700 -16.278   5.323  1.00  0.00    -0.017 A 
HETATM    5  C   UNL     1      43.991 -15.407   6.517  1.00  0.00     0.052 C 
HETATM    6  C   UNL     1      44.094 -17.622   5.387  1.00  0.00     0.024 A 
HETATM    7  C   UNL     1      43.834 -18.488   4.324  1.00  0.00    -0.009 A 
HETATM    8  C   UNL     1      43.180 -17.973   3.189  1.00  0.00     0.043 A 
HETATM    9  C   UNL     1      44.198 -19.843   4.349  1.00  0.00     0.014 A 
HETATM   10  N   UNL     1      42.820 -16.679   3.173  1.00  0.00    -0.342 N 
HETATM   11  C   UNL     1      42.909 -18.804   2.094  1.00  0.00     0.030 A 
HETATM   12  H   UNL     1      42.381 -16.325   2.334  1.00  0.00     0.167 HD
HETATM   13  C   UNL     1      43.278 -20.149   2.132  1.00  0.00     0.002 A 
HETATM   14  C   UNL     1      43.918 -20.667   3.257  1.00  0.00     0.001 A 
ENDBRANCH   1   3
BRANCH   1  15
HETATM   15  C   UNL     1      43.250 -13.422   3.351  1.00  0.00     0.160 C 
BRANCH  15  16
HETATM   16  C   UNL     1      42.363 -12.790   2.307  1.00  0.00    -0.040 A 
HETATM   17  C   UNL     1      41.691 -13.563   1.348  1.00  0.00     0.026 A 
HETATM   18  C   UNL     1      40.893 -12.958   0.364  1.00  0.00     0.032 A 
HETATM   19  C   UNL     1      40.760 -11.568   0.335  1.00  0.00     0.017 A 
HETATM   20  C   UNL     1      41.438 -10.789   1.272  1.00  0.00     0.002 A 
HETATM   21  C   UNL     1      42.239 -11.392   2.245  1.00  0.00     0.009 A 
BRANCH  18  22
HETATM   22  C   UNL     1      40.183 -13.843  -0.592  1.00  0.00     0.249 C 
HETATM   23  N   UNL     1      39.624 -14.987  -0.103  1.00  0.00    -0.366 N 
HETATM   24  H   UNL     1      39.488 -15.162   0.883  1.00  0.00     0.159 HD
HETATM   25  H   UNL     1      39.058 -15.529  -0.746  1.00  0.00     0.159 HD
HETATM   26  O   UNL     1      40.092 -13.530  -1.772  1.00  0.00    -0.268 OA
ENDBRANCH  18  22
ENDBRANCH  15  16
ENDBRANCH   1  15
TORSDOF 4
ENDMDL
MODEL 10
REMARK VINA RESULT:      -7.9      3.125      7.842
REMARK  4 active torsions:
REMARK  status: ('A' for Active; 'I' for Inactive)
REMARK    1  A    between atoms: C_3  and  N_4 
REMARK    2  A    between atoms: N_4  and  C_5 
REMARK    3  A    between atoms: C_5  and  C_6 
REMARK    4  A    between atoms: C_8  and  C_9 
REMARK       I    between atoms: C_9  and  N_10 
ROOT
HETATM    1  N   UNL     1      42.484 -14.637   1.563  1.00  0.00    -0.372 N 
HETATM    2  H   UNL     1      42.779 -14.227   2.448  1.00  0.00     0.161 HD
ENDROOT
BRANCH   1   3
HETATM    3  C   UNL     1      41.385 -14.027   0.997  1.00  0.00     0.107 A 
HETATM    4  C   UNL     1      40.818 -12.868   1.560  1.00  0.00    -0.017 A 
HETATM    5  C   UNL     1      41.336 -12.228   2.821  1.00  0.00     0.052 C 
HETATM    6  C   UNL     1      39.727 -12.260   0.922  1.00  0.00     0.024 A 
HETATM    7  C   UNL     1      39.215 -12.790  -0.262  1.00  0.00    -0.009 A 
HETATM    8  C   UNL     1      39.812 -13.951  -0.788  1.00  0.00     0.043 A 
HETATM    9  C   UNL     1      38.133 -12.208  -0.942  1.00  0.00     0.014 A 
HETATM   10  N   UNL     1      40.856 -14.498  -0.143  1.00  0.00    -0.342 N 
HETATM   11  C   UNL     1      39.321 -14.522  -1.969  1.00  0.00     0.030 A 
HETATM   12  H   UNL     1      41.247 -15.349  -0.522  1.00  0.00     0.167 HD
HETATM   13  C   UNL     1      38.245 -13.934  -2.633  1.00  0.00     0.002 A 
HETATM   14  C   UNL     1      37.655 -12.779  -2.123  1.00  0.00     0.001 A 
ENDBRANCH   1   3
BRANCH   1  15
HETATM   15  C   UNL     1      42.881 -16.027   1.398  1.00  0.00     0.160 C 
BRANCH  15  16
HETATM   16  C   UNL     1      43.222 -16.706   2.702  1.00  0.00    -0.040 A 
HETATM   17  C   UNL     1      43.178 -16.017   3.923  1.00  0.00     0.026 A 
HETATM   18  C   UNL     1      43.527 -16.654   5.124  1.00  0.00     0.032 A 
HETATM   19  C   UNL     1      43.923 -17.993   5.110  1.00  0.00     0.017 A 
HETATM   20  C   UNL     1      43.989 -18.683   3.900  1.00  0.00     0.002 A 
HETATM   21  C   UNL     1      43.650 -18.044   2.704  1.00  0.00     0.009 A 
BRANCH  18  22
HETATM   22  C   UNL     1      43.419 -15.872   6.380  1.00  0.00     0.249 C 
HETATM   23  N   UNL     1      42.878 -16.490   7.468  1.00  0.00    -0.366 N 
HETATM   24  H   UNL     1      42.739 -17.489   7.528  1.00  0.00     0.159 HD
HETATM   25  H   UNL     1      42.903 -15.978   8.343  1.00  0.00     0.159 HD
HETATM   26  O   UNL     1      43.830 -14.719   6.426  1.00  0.00    -0.268 OA
ENDBRANCH  18  22
ENDBRANCH  15  16
ENDBRANCH   1  15
TORSDOF 4
ENDMDL
