MODEL 1
REMARK VINA RESULT:      -8.5      0.000      0.000
REMARK  10 active torsions:
REMARK  status: ('A' for Active; 'I' for Inactive)
REMARK    1  A    between atoms: C_4  and  C_5 
REMARK    2  A    between atoms: C_8  and  O_9 
REMARK    3  A    between atoms: C_14  and  C_15 
REMARK    4  A    between atoms: C_18  and  C_19 
REMARK    5  A    between atoms: C_19  and  N_20 
REMARK    6  A    between atoms: N_20  and  C_21 
REMARK    7  A    between atoms: C_21  and  N_22 
REMARK    8  A    between atoms: N_22  and  C_23 
REMARK    9  A    between atoms: C_25  and  C_26 
REMARK   10  A    between atoms: C_26  and  O_27 
ROOT
HETATM    1  C   UNL     1      40.022 -12.324   2.370  1.00  0.00     0.067 C 
HETATM    2  C   UNL     1      40.788 -11.015   2.098  1.00  0.00     0.001 C 
HETATM    3  C   UNL     1      41.684 -10.612   3.287  1.00  0.00     0.040 C 
HETATM    4  C   UNL     1      40.866 -10.336   4.559  1.00  0.00     0.206 C 
HETATM    5  N   UNL     1      39.444 -10.818   4.280  1.00  0.00    -0.065 N 
HETATM    6  H   UNL     1      38.887 -10.757   5.144  1.00  0.00     0.280 HD
HETATM    7  C   UNL     1      39.414 -12.268   3.789  1.00  0.00     0.246 C 
HETATM    8  C   UNL     1      39.712  -9.901   1.990  1.00  0.00     0.033 C 
HETATM    9  C   UNL     1      38.809  -9.907   3.234  1.00  0.00     0.236 C 
ENDROOT
BRANCH   4  10
HETATM   10  C   UNL     1      41.466 -10.972   5.835  1.00  0.00     0.155 C 
BRANCH  10  11
HETATM   11  N   UNL     1      42.595 -11.853   5.544  1.00  0.00    -0.365 N 
HETATM   12  H   UNL     1      43.287 -11.512   4.882  1.00  0.00     0.161 HD
BRANCH  11  13
HETATM   13  C   UNL     1      43.113 -12.801   6.384  1.00  0.00     0.172 C 
HETATM   14  S   UNL     1      42.419 -14.287   6.701  1.00  0.00    -0.041 SA
BRANCH  13  15
HETATM   15  N   UNL     1      44.276 -12.493   7.031  1.00  0.00    -0.333 N 
HETATM   16  H   UNL     1      44.983 -13.216   6.925  1.00  0.00     0.168 HD
BRANCH  15  17
HETATM   17  C   UNL     1      44.715 -11.319   7.683  1.00  0.00     0.035 A 
HETATM   18  C   UNL     1      43.982 -10.647   8.661  1.00  0.00     0.047 A 
HETATM   19  C   UNL     1      44.471  -9.472   9.256  1.00  0.00     0.041 A 
HETATM   20  C   UNL     1      45.699  -8.948   8.843  1.00  0.00     0.018 A 
HETATM   21  C   UNL     1      46.422  -9.594   7.841  1.00  0.00     0.003 A 
HETATM   22  C   UNL     1      45.931 -10.770   7.264  1.00  0.00     0.029 A 
BRANCH  19  23
HETATM   23  C   UNL     1      43.639  -8.843  10.317  1.00  0.00     0.293 C 
HETATM   24  O   UNL     1      42.799  -7.987  10.079  1.00  0.00    -0.259 OA
BRANCH  23  25
HETATM   25  O   UNL     1      43.950  -9.345  11.535  1.00  0.00    -0.323 OA
HETATM   26  C   UNL     1      42.907 -10.110  12.142  1.00  0.00     0.213 C 
ENDBRANCH  23  25
ENDBRANCH  19  23
ENDBRANCH  15  17
ENDBRANCH  13  15
ENDBRANCH  11  13
ENDBRANCH  10  11
ENDBRANCH   4  10
BRANCH   1  27
HETATM   27  C   UNL     1      40.633 -13.666   2.068  1.00  0.00     0.038 C 
HETATM   28  N   UNL     1      40.758 -14.374   0.894  1.00  0.00    -0.277 N 
HETATM   29  C   UNL     1      40.228 -14.137  -0.427  1.00  0.00     0.179 C 
HETATM   30  N   UNL     1      41.530 -15.466   1.018  1.00  0.00    -0.172 NA
HETATM   31  C   UNL     1      41.799 -15.582   2.320  1.00  0.00     0.089 C 
HETATM   32  C   UNL     1      41.247 -14.481   3.013  1.00  0.00     0.061 C 
BRANCH  31  33
HETATM   33  C   UNL     1      42.599 -16.684   2.855  1.00  0.00    -0.005 A 
HETATM   34  C   UNL     1      43.241 -16.560   4.093  1.00  0.00     0.016 A 
HETATM   35  C   UNL     1      43.965 -17.628   4.629  1.00  0.00     0.037 A 
HETATM   36  C   UNL     1      44.064 -18.838   3.941  1.00  0.00     0.068 A 
HETATM   37  C   UNL     1      43.455 -18.962   2.694  1.00  0.00     0.037 A 
HETATM   38  C   UNL     1      42.726 -17.892   2.155  1.00  0.00     0.016 A 
BRANCH  36  39
HETATM   39  O   UNL     1      44.782 -19.807   4.583  1.00  0.00    -0.356 OA
HETATM   40  C   UNL     1      44.041 -20.782   5.306  1.00  0.00     0.210 C 
ENDBRANCH  36  39
ENDBRANCH  31  33
ENDBRANCH   1  27
TORSDOF 10
ENDMDL
MODEL 2
REMARK VINA RESULT:      -8.5      3.058      4.946
REMARK  10 active torsions:
REMARK  status: ('A' for Active; 'I' for Inactive)
REMARK    1  A    between atoms: C_4  and  C_5 
REMARK    2  A    between atoms: C_8  and  O_9 
REMARK    3  A    between atoms: C_14  and  C_15 
REMARK    4  A    between atoms: C_18  and  C_19 
REMARK    5  A    between atoms: C_19  and  N_20 
REMARK    6  A    between atoms: N_20  and  C_21 
REMARK    7  A    between atoms: C_21  and  N_22 
REMARK    8  A    between atoms: N_22  and  C_23 
REMARK    9  A    between atoms: C_25  and  C_26 
REMARK   10  A    between atoms: C_26  and  O_27 
ROOT
HETATM    1  C   UNL     1      39.966 -11.410  -1.820  1.00  0.00     0.067 C 
HETATM    2  C   UNL     1      41.251 -10.669  -2.238  1.00  0.00     0.001 C 
HETATM    3  C   UNL     1      41.746  -9.706  -1.139  1.00  0.00     0.040 C 
HETATM    4  C   UNL     1      40.727  -8.596  -0.840  1.00  0.00     0.206 C 
HETATM    5  N   UNL     1      39.436  -8.981  -1.559  1.00  0.00    -0.065 N 
HETATM    6  H   UNL     1      38.689  -8.323  -1.295  1.00  0.00     0.280 HD
HETATM    7  C   UNL     1      38.977 -10.398  -1.200  1.00  0.00     0.246 C 
HETATM    8  C   UNL     1      40.856  -9.764  -3.436  1.00  0.00     0.033 C 
HETATM    9  C   UNL     1      39.657  -8.877  -3.065  1.00  0.00     0.236 C 
ENDROOT
BRANCH   4  10
HETATM   10  C   UNL     1      40.509  -8.340   0.669  1.00  0.00     0.155 C 
BRANCH  10  11
HETATM   11  N   UNL     1      41.426  -9.112   1.507  1.00  0.00    -0.365 N 
HETATM   12  H   UNL     1      42.419  -8.929   1.392  1.00  0.00     0.161 HD
BRANCH  11  13
HETATM   13  C   UNL     1      41.141  -9.640   2.736  1.00  0.00     0.172 C 
HETATM   14  S   UNL     1      40.912  -8.755   4.134  1.00  0.00    -0.041 SA
BRANCH  13  15
HETATM   15  N   UNL     1      41.063 -11.001   2.828  1.00  0.00    -0.333 N 
HETATM   16  H   UNL     1      41.050 -11.452   1.916  1.00  0.00     0.168 HD
BRANCH  15  17
HETATM   17  C   UNL     1      41.143 -11.882   3.928  1.00  0.00     0.035 A 
HETATM   18  C   UNL     1      42.335 -12.248   4.553  1.00  0.00     0.047 A 
HETATM   19  C   UNL     1      42.344 -13.145   5.634  1.00  0.00     0.041 A 
HETATM   20  C   UNL     1      41.143 -13.707   6.075  1.00  0.00     0.018 A 
HETATM   21  C   UNL     1      39.950 -13.375   5.434  1.00  0.00     0.003 A 
HETATM   22  C   UNL     1      39.952 -12.471   4.367  1.00  0.00     0.029 A 
BRANCH  19  23
HETATM   23  C   UNL     1      43.658 -13.449   6.263  1.00  0.00     0.293 C 
HETATM   24  O   UNL     1      43.969 -14.571   6.637  1.00  0.00    -0.259 OA
BRANCH  23  25
HETATM   25  O   UNL     1      44.417 -12.333   6.356  1.00  0.00    -0.323 OA
HETATM   26  C   UNL     1      44.335 -11.666   7.616  1.00  0.00     0.213 C 
ENDBRANCH  23  25
ENDBRANCH  19  23
ENDBRANCH  15  17
ENDBRANCH  13  15
ENDBRANCH  11  13
ENDBRANCH  10  11
ENDBRANCH   4  10
BRANCH   1  27
HETATM   27  C   UNL     1      40.022 -12.696  -1.041  1.00  0.00     0.038 C 
HETATM   28  N   UNL     1      39.479 -13.938  -1.281  1.00  0.00    -0.277 N 
HETATM   29  C   UNL     1      38.556 -14.400  -2.290  1.00  0.00     0.179 C 
HETATM   30  N   UNL     1      39.911 -14.876  -0.423  1.00  0.00    -0.172 NA
HETATM   31  C   UNL     1      40.630 -14.231   0.499  1.00  0.00     0.089 C 
HETATM   32  C   UNL     1      40.714 -12.863   0.153  1.00  0.00     0.061 C 
BRANCH  31  33
HETATM   33  C   UNL     1      41.246 -14.922   1.632  1.00  0.00    -0.005 A 
HETATM   34  C   UNL     1      40.464 -15.684   2.508  1.00  0.00     0.016 A 
HETATM   35  C   UNL     1      41.057 -16.384   3.563  1.00  0.00     0.037 A 
HETATM   36  C   UNL     1      42.436 -16.337   3.763  1.00  0.00     0.068 A 
HETATM   37  C   UNL     1      43.220 -15.556   2.915  1.00  0.00     0.037 A 
HETATM   38  C   UNL     1      42.628 -14.854   1.855  1.00  0.00     0.016 A 
BRANCH  36  39
HETATM   39  O   UNL     1      42.890 -17.082   4.814  1.00  0.00    -0.356 OA
HETATM   40  C   UNL     1      43.959 -17.981   4.550  1.00  0.00     0.210 C 
ENDBRANCH  36  39
ENDBRANCH  31  33
ENDBRANCH   1  27
TORSDOF 10
ENDMDL
MODEL 3
REMARK VINA RESULT:      -8.4      2.349      4.264
REMARK  10 active torsions:
REMARK  status: ('A' for Active; 'I' for Inactive)
REMARK    1  A    between atoms: C_4  and  C_5 
REMARK    2  A    between atoms: C_8  and  O_9 
REMARK    3  A    between atoms: C_14  and  C_15 
REMARK    4  A    between atoms: C_18  and  C_19 
REMARK    5  A    between atoms: C_19  and  N_20 
REMARK    6  A    between atoms: N_20  and  C_21 
REMARK    7  A    between atoms: C_21  and  N_22 
REMARK    8  A    between atoms: N_22  and  C_23 
REMARK    9  A    between atoms: C_25  and  C_26 
REMARK   10  A    between atoms: C_26  and  O_27 
ROOT
HETATM    1  C   UNL     1      40.198 -13.420  -0.357  1.00  0.00     0.067 C 
HETATM    2  C   UNL     1      41.143 -12.427  -1.061  1.00  0.00     0.001 C 
HETATM    3  C   UNL     1      40.952 -10.985  -0.549  1.00  0.00     0.040 C 
HETATM    4  C   UNL     1      39.537 -10.454  -0.830  1.00  0.00     0.206 C 
HETATM    5  N   UNL     1      38.705 -11.648  -1.295  1.00  0.00    -0.065 N 
HETATM    6  H   UNL     1      37.720 -11.362  -1.387  1.00  0.00     0.280 HD
HETATM    7  C   UNL     1      38.776 -12.818  -0.309  1.00  0.00     0.246 C 
HETATM    8  C   UNL     1      40.707 -12.401  -2.551  1.00  0.00     0.033 C 
HETATM    9  C   UNL     1      39.205 -12.097  -2.664  1.00  0.00     0.236 C 
ENDROOT
BRANCH   4  10
HETATM   10  C   UNL     1      38.897  -9.719   0.370  1.00  0.00     0.155 C 
BRANCH  10  11
HETATM   11  N   UNL     1      39.885  -9.025   1.193  1.00  0.00    -0.365 N 
HETATM   12  H   UNL     1      40.155  -8.090   0.899  1.00  0.00     0.161 HD
BRANCH  11  13
HETATM   13  C   UNL     1      40.102  -9.224   2.530  1.00  0.00     0.172 C 
HETATM   14  S   UNL     1      38.907  -9.320   3.693  1.00  0.00    -0.041 SA
BRANCH  13  15
HETATM   15  N   UNL     1      41.400  -9.325   2.943  1.00  0.00    -0.333 N 
HETATM   16  H   UNL     1      41.895  -8.438   2.890  1.00  0.00     0.168 HD
BRANCH  15  17
HETATM   17  C   UNL     1      42.120 -10.376   3.554  1.00  0.00     0.035 A 
HETATM   18  C   UNL     1      42.442 -10.418   4.910  1.00  0.00     0.047 A 
HETATM   19  C   UNL     1      43.178 -11.487   5.450  1.00  0.00     0.041 A 
HETATM   20  C   UNL     1      43.622 -12.512   4.611  1.00  0.00     0.018 A 
HETATM   21  C   UNL     1      43.334 -12.460   3.247  1.00  0.00     0.003 A 
HETATM   22  C   UNL     1      42.591 -11.398   2.724  1.00  0.00     0.029 A 
BRANCH  19  23
HETATM   23  C   UNL     1      43.443 -11.468   6.914  1.00  0.00     0.293 C 
HETATM   24  O   UNL     1      43.904 -12.428   7.515  1.00  0.00    -0.259 OA
BRANCH  23  25
HETATM   25  O   UNL     1      43.105 -10.272   7.449  1.00  0.00    -0.323 OA
HETATM   26  C   UNL     1      44.096  -9.710   8.311  1.00  0.00     0.213 C 
ENDBRANCH  23  25
ENDBRANCH  19  23
ENDBRANCH  15  17
ENDBRANCH  13  15
ENDBRANCH  11  13
ENDBRANCH  10  11
ENDBRANCH   4  10
BRANCH   1  27
HETATM   27  C   UNL     1      40.578 -14.076   0.943  1.00  0.00     0.038 C 
HETATM   28  N   UNL     1      40.098 -13.921   2.224  1.00  0.00    -0.277 N 
HETATM   29  C   UNL     1      39.160 -12.980   2.787  1.00  0.00     0.179 C 
HETATM   30  N   UNL     1      40.588 -14.829   3.083  1.00  0.00    -0.172 NA
HETATM   31  C   UNL     1      41.525 -15.503   2.413  1.00  0.00     0.089 C 
HETATM   32  C   UNL     1      41.557 -15.055   1.073  1.00  0.00     0.061 C 
BRANCH  31  33
HETATM   33  C   UNL     1      42.315 -16.567   3.034  1.00  0.00    -0.005 A 
HETATM   34  C   UNL     1      42.723 -17.678   2.286  1.00  0.00     0.016 A 
HETATM   35  C   UNL     1      43.518 -18.671   2.864  1.00  0.00     0.037 A 
HETATM   36  C   UNL     1      43.919 -18.576   4.197  1.00  0.00     0.068 A 
HETATM   37  C   UNL     1      43.493 -17.490   4.960  1.00  0.00     0.037 A 
HETATM   38  C   UNL     1      42.696 -16.491   4.381  1.00  0.00     0.016 A 
BRANCH  36  39
HETATM   39  O   UNL     1      44.710 -19.601   4.633  1.00  0.00    -0.356 OA
HETATM   40  C   UNL     1      44.050 -20.795   5.035  1.00  0.00     0.210 C 
ENDBRANCH  36  39
ENDBRANCH  31  33
ENDBRANCH   1  27
TORSDOF 10
ENDMDL
MODEL 4
REMARK VINA RESULT:      -8.3      2.234      3.182
REMARK  10 active torsions:
REMARK  status: ('A' for Active; 'I' for Inactive)
REMARK    1  A    between atoms: C_4  and  C_5 
REMARK    2  A    between atoms: C_8  and  O_9 
REMARK    3  A    between atoms: C_14  and  C_15 
REMARK    4  A    between atoms: C_18  and  C_19 
REMARK    5  A    between atoms: C_19  and  N_20 
REMARK    6  A    between atoms: N_20  and  C_21 
REMARK    7  A    between atoms: C_21  and  N_22 
REMARK    8  A    between atoms: N_22  and  C_23 
REMARK    9  A    between atoms: C_25  and  C_26 
REMARK   10  A    between atoms: C_26  and  O_27 
ROOT
HETATM    1  C   UNL     1      40.636 -11.959   3.810  1.00  0.00     0.067 C 
HETATM    2  C   UNL     1      41.274 -10.589   3.512  1.00  0.00     0.001 C 
HETATM    3  C   UNL     1      42.414 -10.255   4.496  1.00  0.00     0.040 C 
HETATM    4  C   UNL     1      41.915 -10.153   5.946  1.00  0.00     0.206 C 
HETATM    5  N   UNL     1      40.483 -10.683   5.955  1.00  0.00    -0.065 N 
HETATM    6  H   UNL     1      40.146 -10.740   6.927  1.00  0.00     0.280 HD
HETATM    7  C   UNL     1      40.381 -12.078   5.330  1.00  0.00     0.246 C 
HETATM    8  C   UNL     1      40.169  -9.531   3.781  1.00  0.00     0.033 C 
HETATM    9  C   UNL     1      39.589  -9.710   5.192  1.00  0.00     0.236 C 
ENDROOT
BRANCH   4  10
HETATM   10  C   UNL     1      42.820 -10.878   6.969  1.00  0.00     0.155 C 
BRANCH  10  11
HETATM   11  N   UNL     1      42.954 -10.136   8.222  1.00  0.00    -0.365 N 
HETATM   12  H   UNL     1      42.122 -10.053   8.799  1.00  0.00     0.161 HD
BRANCH  11  13
HETATM   13  C   UNL     1      44.102  -9.992   8.953  1.00  0.00     0.172 C 
HETATM   14  S   UNL     1      45.582  -9.524   8.337  1.00  0.00    -0.041 SA
BRANCH  13  15
HETATM   15  N   UNL     1      44.032 -10.280  10.286  1.00  0.00    -0.333 N 
HETATM   16  H   UNL     1      44.718 -10.977  10.569  1.00  0.00     0.168 HD
BRANCH  15  17
HETATM   17  C   UNL     1      43.301  -9.697  11.344  1.00  0.00     0.035 A 
HETATM   18  C   UNL     1      41.994 -10.050  11.679  1.00  0.00     0.047 A 
HETATM   19  C   UNL     1      41.317  -9.415  12.734  1.00  0.00     0.041 A 
HETATM   20  C   UNL     1      41.950  -8.392  13.445  1.00  0.00     0.018 A 
HETATM   21  C   UNL     1      43.245  -8.009  13.094  1.00  0.00     0.003 A 
HETATM   22  C   UNL     1      43.913  -8.656  12.050  1.00  0.00     0.029 A 
BRANCH  19  23
HETATM   23  C   UNL     1      39.938  -9.882  13.045  1.00  0.00     0.293 C 
HETATM   24  O   UNL     1      39.694 -11.019  13.424  1.00  0.00    -0.259 OA
BRANCH  23  25
HETATM   25  O   UNL     1      39.038  -8.892  12.846  1.00  0.00    -0.323 OA
HETATM   26  C   UNL     1      39.045  -8.344  11.526  1.00  0.00     0.213 C 
ENDBRANCH  23  25
ENDBRANCH  19  23
ENDBRANCH  15  17
ENDBRANCH  13  15
ENDBRANCH  11  13
ENDBRANCH  10  11
ENDBRANCH   4  10
BRANCH   1  27
HETATM   27  C   UNL     1      41.198 -13.228   3.230  1.00  0.00     0.038 C 
HETATM   28  N   UNL     1      41.401 -13.630   1.929  1.00  0.00    -0.277 N 
HETATM   29  C   UNL     1      41.022 -13.033   0.672  1.00  0.00     0.179 C 
HETATM   30  N   UNL     1      42.096 -14.776   1.835  1.00  0.00    -0.172 NA
HETATM   31  C   UNL     1      42.225 -15.233   3.083  1.00  0.00     0.089 C 
HETATM   32  C   UNL     1      41.668 -14.298   3.984  1.00  0.00     0.061 C 
BRANCH  31  33
HETATM   33  C   UNL     1      42.904 -16.493   3.386  1.00  0.00    -0.005 A 
HETATM   34  C   UNL     1      43.484 -16.703   4.643  1.00  0.00     0.016 A 
HETATM   35  C   UNL     1      44.090 -17.924   4.951  1.00  0.00     0.037 A 
HETATM   36  C   UNL     1      44.132 -18.955   4.012  1.00  0.00     0.068 A 
HETATM   37  C   UNL     1      43.586 -18.746   2.747  1.00  0.00     0.037 A 
HETATM   38  C   UNL     1      42.975 -17.522   2.436  1.00  0.00     0.016 A 
BRANCH  36  39
HETATM   39  O   UNL     1      44.734 -20.102   4.445  1.00  0.00    -0.356 OA
HETATM   40  C   UNL     1      43.998 -20.911   5.354  1.00  0.00     0.210 C 
ENDBRANCH  36  39
ENDBRANCH  31  33
ENDBRANCH   1  27
TORSDOF 10
ENDMDL
MODEL 5
REMARK VINA RESULT:      -8.3      2.365      3.726
REMARK  10 active torsions:
REMARK  status: ('A' for Active; 'I' for Inactive)
REMARK    1  A    between atoms: C_4  and  C_5 
REMARK    2  A    between atoms: C_8  and  O_9 
REMARK    3  A    between atoms: C_14  and  C_15 
REMARK    4  A    between atoms: C_18  and  C_19 
REMARK    5  A    between atoms: C_19  and  N_20 
REMARK    6  A    between atoms: N_20  and  C_21 
REMARK    7  A    between atoms: C_21  and  N_22 
REMARK    8  A    between atoms: N_22  and  C_23 
REMARK    9  A    between atoms: C_25  and  C_26 
REMARK   10  A    between atoms: C_26  and  O_27 
ROOT
HETATM    1  C   UNL     1      39.665 -12.841   1.562  1.00  0.00     0.067 C 
HETATM    2  C   UNL     1      39.722 -11.809   0.419  1.00  0.00     0.001 C 
HETATM    3  C   UNL     1      40.094 -10.401   0.929  1.00  0.00     0.040 C 
HETATM    4  C   UNL     1      39.049  -9.849   1.911  1.00  0.00     0.206 C 
HETATM    5  N   UNL     1      38.115 -11.006   2.256  1.00  0.00    -0.065 N 
HETATM    6  H   UNL     1      37.466 -10.711   3.000  1.00  0.00     0.280 HD
HETATM    7  C   UNL     1      38.882 -12.237   2.749  1.00  0.00     0.246 C 
HETATM    8  C   UNL     1      38.273 -11.686  -0.124  1.00  0.00     0.033 C 
HETATM    9  C   UNL     1      37.298 -11.370   1.021  1.00  0.00     0.236 C 
ENDROOT
BRANCH   4  10
HETATM   10  C   UNL     1      39.663  -9.189   3.168  1.00  0.00     0.155 C 
BRANCH  10  11
HETATM   11  N   UNL     1      38.776  -9.260   4.327  1.00  0.00    -0.365 N 
HETATM   12  H   UNL     1      37.823  -9.573   4.160  1.00  0.00     0.161 HD
BRANCH  11  13
HETATM   13  C   UNL     1      39.162  -9.464   5.624  1.00  0.00     0.172 C 
HETATM   14  S   UNL     1      39.557  -8.259   6.710  1.00  0.00    -0.041 SA
BRANCH  13  15
HETATM   15  N   UNL     1      39.255 -10.758   6.052  1.00  0.00    -0.333 N 
HETATM   16  H   UNL     1      38.346 -11.162   6.266  1.00  0.00     0.168 HD
BRANCH  15  17
HETATM   17  C   UNL     1      40.339 -11.661   6.109  1.00  0.00     0.035 A 
HETATM   18  C   UNL     1      41.677 -11.273   6.175  1.00  0.00     0.047 A 
HETATM   19  C   UNL     1      42.710 -12.226   6.212  1.00  0.00     0.041 A 
HETATM   20  C   UNL     1      42.396 -13.586   6.150  1.00  0.00     0.018 A 
HETATM   21  C   UNL     1      41.063 -13.982   6.048  1.00  0.00     0.003 A 
HETATM   22  C   UNL     1      40.043 -13.025   6.025  1.00  0.00     0.029 A 
BRANCH  19  23
HETATM   23  C   UNL     1      44.105 -11.721   6.321  1.00  0.00     0.293 C 
HETATM   24  O   UNL     1      44.705 -11.226   5.377  1.00  0.00    -0.259 OA
BRANCH  23  25
HETATM   25  O   UNL     1      44.584 -11.895   7.574  1.00  0.00    -0.323 OA
HETATM   26  C   UNL     1      44.907 -10.682   8.256  1.00  0.00     0.213 C 
ENDBRANCH  23  25
ENDBRANCH  19  23
ENDBRANCH  15  17
ENDBRANCH  13  15
ENDBRANCH  11  13
ENDBRANCH  10  11
ENDBRANCH   4  10
BRANCH   1  27
HETATM   27  C   UNL     1      40.896 -13.580   2.012  1.00  0.00     0.038 C 
HETATM   28  N   UNL     1      42.111 -13.136   2.482  1.00  0.00    -0.277 N 
HETATM   29  C   UNL     1      42.676 -11.812   2.576  1.00  0.00     0.179 C 
HETATM   30  N   UNL     1      42.889 -14.128   2.949  1.00  0.00    -0.172 NA
HETATM   31  C   UNL     1      42.257 -15.265   2.647  1.00  0.00     0.089 C 
HETATM   32  C   UNL     1      41.012 -14.965   2.052  1.00  0.00     0.061 C 
BRANCH  31  33
HETATM   33  C   UNL     1      42.818 -16.577   2.971  1.00  0.00    -0.005 A 
HETATM   34  C   UNL     1      43.285 -16.850   4.262  1.00  0.00     0.016 A 
HETATM   35  C   UNL     1      43.777 -18.118   4.587  1.00  0.00     0.037 A 
HETATM   36  C   UNL     1      43.812 -19.134   3.631  1.00  0.00     0.068 A 
HETATM   37  C   UNL     1      43.379 -18.863   2.334  1.00  0.00     0.037 A 
HETATM   38  C   UNL     1      42.884 -17.593   2.007  1.00  0.00     0.016 A 
BRANCH  36  39
HETATM   39  O   UNL     1      44.295 -20.330   4.082  1.00  0.00    -0.356 OA
HETATM   40  C   UNL     1      44.111 -20.617   5.462  1.00  0.00     0.210 C 
ENDBRANCH  36  39
ENDBRANCH  31  33
ENDBRANCH   1  27
TORSDOF 10
ENDMDL
MODEL 6
REMARK VINA RESULT:      -8.3      3.917      5.075
REMARK  10 active torsions:
REMARK  status: ('A' for Active; 'I' for Inactive)
REMARK    1  A    between atoms: C_4  and  C_5 
REMARK    2  A    between atoms: C_8  and  O_9 
REMARK    3  A    between atoms: C_14  and  C_15 
REMARK    4  A    between atoms: C_18  and  C_19 
REMARK    5  A    between atoms: C_19  and  N_20 
REMARK    6  A    between atoms: N_20  and  C_21 
REMARK    7  A    between atoms: C_21  and  N_22 
REMARK    8  A    between atoms: N_22  and  C_23 
REMARK    9  A    between atoms: C_25  and  C_26 
REMARK   10  A    between atoms: C_26  and  O_27 
ROOT
HETATM    1  C   UNL     1      40.174 -10.932  -1.681  1.00  0.00     0.067 C 
HETATM    2  C   UNL     1      41.433 -10.055  -1.542  1.00  0.00     0.001 C 
HETATM    3  C   UNL     1      41.382  -9.165  -0.283  1.00  0.00     0.040 C 
HETATM    4  C   UNL     1      40.210  -8.172  -0.324  1.00  0.00     0.206 C 
HETATM    5  N   UNL     1      39.323  -8.588  -1.496  1.00  0.00    -0.065 N 
HETATM    6  H   UNL     1      38.465  -8.019  -1.494  1.00  0.00     0.280 HD
HETATM    7  C   UNL     1      38.922 -10.064  -1.419  1.00  0.00     0.246 C 
HETATM    8  C   UNL     1      41.410  -9.074  -2.746  1.00  0.00     0.033 C 
HETATM    9  C   UNL     1      40.070  -8.324  -2.800  1.00  0.00     0.236 C 
ENDROOT
BRANCH   4  10
HETATM   10  C   UNL     1      39.426  -8.078   1.005  1.00  0.00     0.155 C 
BRANCH  10  11
HETATM   11  N   UNL     1      39.829  -9.102   1.967  1.00  0.00    -0.365 N 
HETATM   12  H   UNL     1      40.020 -10.030   1.599  1.00  0.00     0.161 HD
BRANCH  11  13
HETATM   13  C   UNL     1      40.468  -8.881   3.157  1.00  0.00     0.172 C 
HETATM   14  S   UNL     1      39.926  -7.864   4.365  1.00  0.00    -0.041 SA
BRANCH  13  15
HETATM   15  N   UNL     1      41.656  -9.526   3.356  1.00  0.00    -0.333 N 
HETATM   16  H   UNL     1      42.455  -8.900   3.285  1.00  0.00     0.168 HD
BRANCH  15  17
HETATM   17  C   UNL     1      41.962 -10.839   3.777  1.00  0.00     0.035 A 
HETATM   18  C   UNL     1      41.161 -11.591   4.636  1.00  0.00     0.047 A 
HETATM   19  C   UNL     1      41.535 -12.887   5.030  1.00  0.00     0.041 A 
HETATM   20  C   UNL     1      42.744 -13.424   4.578  1.00  0.00     0.018 A 
HETATM   21  C   UNL     1      43.568 -12.665   3.747  1.00  0.00     0.003 A 
HETATM   22  C   UNL     1      43.179 -11.381   3.353  1.00  0.00     0.029 A 
BRANCH  19  23
HETATM   23  C   UNL     1      40.602 -13.631   5.918  1.00  0.00     0.293 C 
HETATM   24  O   UNL     1      39.507 -13.194   6.242  1.00  0.00    -0.259 OA
BRANCH  23  25
HETATM   25  O   UNL     1      41.137 -14.815   6.296  1.00  0.00    -0.323 OA
HETATM   26  C   UNL     1      40.177 -15.801   6.680  1.00  0.00     0.213 C 
ENDBRANCH  23  25
ENDBRANCH  19  23
ENDBRANCH  15  17
ENDBRANCH  13  15
ENDBRANCH  11  13
ENDBRANCH  10  11
ENDBRANCH   4  10
BRANCH   1  27
HETATM   27  C   UNL     1      40.079 -12.277  -1.014  1.00  0.00     0.038 C 
HETATM   28  N   UNL     1      39.247 -13.352  -1.233  1.00  0.00    -0.277 N 
HETATM   29  C   UNL     1      38.092 -13.512  -2.083  1.00  0.00     0.179 C 
HETATM   30  N   UNL     1      39.604 -14.444  -0.536  1.00  0.00    -0.172 NA
HETATM   31  C   UNL     1      40.588 -14.056   0.279  1.00  0.00     0.089 C 
HETATM   32  C   UNL     1      40.907 -12.705   0.017  1.00  0.00     0.061 C 
BRANCH  31  33
HETATM   33  C   UNL     1      41.220 -14.972   1.229  1.00  0.00    -0.005 A 
HETATM   34  C   UNL     1      42.588 -15.256   1.139  1.00  0.00     0.016 A 
HETATM   35  C   UNL     1      43.203 -16.092   2.074  1.00  0.00     0.037 A 
HETATM   36  C   UNL     1      42.468 -16.661   3.113  1.00  0.00     0.068 A 
HETATM   37  C   UNL     1      41.099 -16.411   3.194  1.00  0.00     0.037 A 
HETATM   38  C   UNL     1      40.479 -15.570   2.258  1.00  0.00     0.016 A 
BRANCH  36  39
HETATM   39  O   UNL     1      43.192 -17.441   3.970  1.00  0.00    -0.356 OA
HETATM   40  C   UNL     1      43.924 -18.517   3.396  1.00  0.00     0.210 C 
ENDBRANCH  36  39
ENDBRANCH  31  33
ENDBRANCH   1  27
TORSDOF 10
ENDMDL
MODEL 7
REMARK VINA RESULT:      -8.3      3.540     11.491
REMARK  10 active torsions:
REMARK  status: ('A' for Active; 'I' for Inactive)
REMARK    1  A    between atoms: C_4  and  C_5 
REMARK    2  A    between atoms: C_8  and  O_9 
REMARK    3  A    between atoms: C_14  and  C_15 
REMARK    4  A    between atoms: C_18  and  C_19 
REMARK    5  A    between atoms: C_19  and  N_20 
REMARK    6  A    between atoms: N_20  and  C_21 
REMARK    7  A    between atoms: C_21  and  N_22 
REMARK    8  A    between atoms: N_22  and  C_23 
REMARK    9  A    between atoms: C_25  and  C_26 
REMARK   10  A    between atoms: C_26  and  O_27 
ROOT
HETATM    1  C   UNL     1      44.053  -9.162  10.155  1.00  0.00     0.067 C 
HETATM    2  C   UNL     1      44.380  -8.338   8.895  1.00  0.00     0.001 C 
HETATM    3  C   UNL     1      43.476  -8.718   7.704  1.00  0.00     0.040 C 
HETATM    4  C   UNL     1      43.666 -10.183   7.280  1.00  0.00     0.206 C 
HETATM    5  N   UNL     1      44.507 -10.849   8.367  1.00  0.00    -0.065 N 
HETATM    6  H   UNL     1      44.565 -11.861   8.182  1.00  0.00     0.280 HD
HETATM    7  C   UNL     1      43.908 -10.649   9.762  1.00  0.00     0.246 C 
HETATM    8  C   UNL     1      45.818  -8.746   8.475  1.00  0.00     0.033 C 
HETATM    9  C   UNL     1      45.919 -10.271   8.325  1.00  0.00     0.236 C 
ENDROOT
BRANCH   4  10
HETATM   10  C   UNL     1      42.340 -10.933   7.017  1.00  0.00     0.155 C 
BRANCH  10  11
HETATM   11  N   UNL     1      42.439 -11.873   5.902  1.00  0.00    -0.365 N 
HETATM   12  H   UNL     1      43.362 -12.014   5.499  1.00  0.00     0.161 HD
BRANCH  11  13
HETATM   13  C   UNL     1      41.611 -12.937   5.670  1.00  0.00     0.172 C 
HETATM   14  S   UNL     1      39.943 -12.866   5.632  1.00  0.00    -0.041 SA
BRANCH  13  15
HETATM   15  N   UNL     1      42.198 -14.156   5.482  1.00  0.00    -0.333 N 
HETATM   16  H   UNL     1      42.288 -14.682   6.348  1.00  0.00     0.168 HD
BRANCH  15  17
HETATM   17  C   UNL     1      42.561 -14.861   4.314  1.00  0.00     0.035 A 
HETATM   18  C   UNL     1      42.907 -16.212   4.292  1.00  0.00     0.047 A 
HETATM   19  C   UNL     1      43.277 -16.849   3.095  1.00  0.00     0.041 A 
HETATM   20  C   UNL     1      43.328 -16.112   1.908  1.00  0.00     0.018 A 
HETATM   21  C   UNL     1      43.018 -14.752   1.927  1.00  0.00     0.003 A 
HETATM   22  C   UNL     1      42.640 -14.133   3.123  1.00  0.00     0.029 A 
BRANCH  19  23
HETATM   23  C   UNL     1      43.593 -18.302   3.159  1.00  0.00     0.293 C 
HETATM   24  O   UNL     1      44.293 -18.788   4.036  1.00  0.00    -0.259 OA
BRANCH  23  25
HETATM   25  O   UNL     1      43.011 -18.967   2.135  1.00  0.00    -0.323 OA
HETATM   26  C   UNL     1      43.519 -20.286   1.924  1.00  0.00     0.213 C 
ENDBRANCH  23  25
ENDBRANCH  19  23
ENDBRANCH  15  17
ENDBRANCH  13  15
ENDBRANCH  11  13
ENDBRANCH  10  11
ENDBRANCH   4  10
BRANCH   1  27
HETATM   27  C   UNL     1      42.986  -8.726  11.122  1.00  0.00     0.038 C 
HETATM   28  N   UNL     1      41.613  -8.825  11.079  1.00  0.00    -0.277 N 
HETATM   29  C   UNL     1      40.717  -9.257  10.034  1.00  0.00     0.179 C 
HETATM   30  N   UNL     1      41.024  -8.469  12.232  1.00  0.00    -0.172 NA
HETATM   31  C   UNL     1      41.994  -7.977  13.006  1.00  0.00     0.089 C 
HETATM   32  C   UNL     1      43.235  -8.111  12.344  1.00  0.00     0.061 C 
BRANCH  31  33
HETATM   33  C   UNL     1      41.731  -7.451  14.346  1.00  0.00    -0.005 A 
HETATM   34  C   UNL     1      41.791  -6.074  14.591  1.00  0.00     0.016 A 
HETATM   35  C   UNL     1      41.493  -5.564  15.858  1.00  0.00     0.037 A 
HETATM   36  C   UNL     1      41.131  -6.416  16.901  1.00  0.00     0.068 A 
HETATM   37  C   UNL     1      41.098  -7.791  16.676  1.00  0.00     0.037 A 
HETATM   38  C   UNL     1      41.395  -8.305  15.406  1.00  0.00     0.016 A 
BRANCH  36  39
HETATM   39  O   UNL     1      40.845  -5.790  18.082  1.00  0.00    -0.356 OA
HETATM   40  C   UNL     1      41.822  -4.887  18.583  1.00  0.00     0.210 C 
ENDBRANCH  36  39
ENDBRANCH  31  33
ENDBRANCH   1  27
TORSDOF 10
ENDMDL
MODEL 8
REMARK VINA RESULT:      -8.2      3.817      7.867
REMARK  10 active torsions:
REMARK  status: ('A' for Active; 'I' for Inactive)
REMARK    1  A    between atoms: C_4  and  C_5 
REMARK    2  A    between atoms: C_8  and  O_9 
REMARK    3  A    between atoms: C_14  and  C_15 
REMARK    4  A    between atoms: C_18  and  C_19 
REMARK    5  A    between atoms: C_19  and  N_20 
REMARK    6  A    between atoms: N_20  and  C_21 
REMARK    7  A    between atoms: C_21  and  N_22 
REMARK    8  A    between atoms: N_22  and  C_23 
REMARK    9  A    between atoms: C_25  and  C_26 
REMARK   10  A    between atoms: C_26  and  O_27 
ROOT
HETATM    1  C   UNL     1      41.491 -11.524   5.772  1.00  0.00     0.067 C 
HETATM    2  C   UNL     1      40.045 -11.636   6.292  1.00  0.00     0.001 C 
HETATM    3  C   UNL     1      39.069 -12.101   5.192  1.00  0.00     0.040 C 
HETATM    4  C   UNL     1      38.995 -11.104   4.026  1.00  0.00     0.206 C 
HETATM    5  N   UNL     1      40.128 -10.102   4.232  1.00  0.00    -0.065 N 
HETATM    6  H   UNL     1      40.188  -9.481   3.413  1.00  0.00     0.280 HD
HETATM    7  C   UNL     1      41.483 -10.794   4.410  1.00  0.00     0.246 C 
HETATM    8  C   UNL     1      39.605 -10.191   6.655  1.00  0.00     0.033 C 
HETATM    9  C   UNL     1      39.819  -9.251   5.459  1.00  0.00     0.236 C 
ENDROOT
BRANCH   4  10
HETATM   10  C   UNL     1      39.042 -11.772   2.632  1.00  0.00     0.155 C 
BRANCH  10  11
HETATM   11  N   UNL     1      38.921 -13.227   2.703  1.00  0.00    -0.365 N 
HETATM   12  H   UNL     1      38.002 -13.602   2.922  1.00  0.00     0.161 HD
BRANCH  11  13
HETATM   13  C   UNL     1      39.698 -14.133   2.034  1.00  0.00     0.172 C 
HETATM   14  S   UNL     1      39.958 -15.713   2.509  1.00  0.00    -0.041 SA
BRANCH  13  15
HETATM   15  N   UNL     1      40.328 -13.699   0.902  1.00  0.00    -0.333 N 
HETATM   16  H   UNL     1      41.318 -13.520   1.054  1.00  0.00     0.168 HD
BRANCH  15  17
HETATM   17  C   UNL     1      39.901 -13.596  -0.440  1.00  0.00     0.035 A 
HETATM   18  C   UNL     1      39.827 -12.396  -1.147  1.00  0.00     0.047 A 
HETATM   19  C   UNL     1      39.375 -12.363  -2.477  1.00  0.00     0.041 A 
HETATM   20  C   UNL     1      38.964 -13.547  -3.096  1.00  0.00     0.018 A 
HETATM   21  C   UNL     1      39.001 -14.746  -2.385  1.00  0.00     0.003 A 
HETATM   22  C   UNL     1      39.465 -14.768  -1.066  1.00  0.00     0.029 A 
BRANCH  19  23
HETATM   23  C   UNL     1      39.364 -11.045  -3.166  1.00  0.00     0.293 C 
HETATM   24  O   UNL     1      38.339 -10.407  -3.359  1.00  0.00    -0.259 OA
BRANCH  23  25
HETATM   25  O   UNL     1      40.615 -10.682  -3.532  1.00  0.00    -0.323 OA
HETATM   26  C   UNL     1      40.777  -9.284  -3.777  1.00  0.00     0.213 C 
ENDBRANCH  23  25
ENDBRANCH  19  23
ENDBRANCH  15  17
ENDBRANCH  13  15
ENDBRANCH  11  13
ENDBRANCH  10  11
ENDBRANCH   4  10
BRANCH   1  27
HETATM   27  C   UNL     1      42.418 -12.710   5.773  1.00  0.00     0.038 C 
HETATM   28  N   UNL     1      43.588 -12.958   6.453  1.00  0.00    -0.277 N 
HETATM   29  C   UNL     1      44.404 -12.116   7.293  1.00  0.00     0.179 C 
HETATM   30  N   UNL     1      44.023 -14.221   6.309  1.00  0.00    -0.172 NA
HETATM   31  C   UNL     1      43.224 -14.785   5.399  1.00  0.00     0.089 C 
HETATM   32  C   UNL     1      42.214 -13.869   5.032  1.00  0.00     0.061 C 
BRANCH  31  33
HETATM   33  C   UNL     1      43.408 -16.165   4.950  1.00  0.00    -0.005 A 
HETATM   34  C   UNL     1      43.375 -16.477   3.586  1.00  0.00     0.016 A 
HETATM   35  C   UNL     1      43.599 -17.787   3.151  1.00  0.00     0.037 A 
HETATM   36  C   UNL     1      43.856 -18.807   4.066  1.00  0.00     0.068 A 
HETATM   37  C   UNL     1      43.860 -18.513   5.429  1.00  0.00     0.037 A 
HETATM   38  C   UNL     1      43.638 -17.200   5.868  1.00  0.00     0.016 A 
BRANCH  36  39
HETATM   39  O   UNL     1      44.077 -20.035   3.511  1.00  0.00    -0.356 OA
HETATM   40  C   UNL     1      43.524 -20.266   2.221  1.00  0.00     0.210 C 
ENDBRANCH  36  39
ENDBRANCH  31  33
ENDBRANCH   1  27
TORSDOF 10
ENDMDL
MODEL 9
REMARK VINA RESULT:      -8.0      2.042      2.606
REMARK  10 active torsions:
REMARK  status: ('A' for Active; 'I' for Inactive)
REMARK    1  A    between atoms: C_4  and  C_5 
REMARK    2  A    between atoms: C_8  and  O_9 
REMARK    3  A    between atoms: C_14  and  C_15 
REMARK    4  A    between atoms: C_18  and  C_19 
REMARK    5  A    between atoms: C_19  and  N_20 
REMARK    6  A    between atoms: N_20  and  C_21 
REMARK    7  A    between atoms: C_21  and  N_22 
REMARK    8  A    between atoms: N_22  and  C_23 
REMARK    9  A    between atoms: C_25  and  C_26 
REMARK   10  A    between atoms: C_26  and  O_27 
ROOT
HETATM    1  C   UNL     1      39.910 -12.300   2.530  1.00  0.00     0.067 C 
HETATM    2  C   UNL     1      40.588 -10.962   2.181  1.00  0.00     0.001 C 
HETATM    3  C   UNL     1      41.533 -10.482   3.302  1.00  0.00     0.040 C 
HETATM    4  C   UNL     1      40.782 -10.217   4.616  1.00  0.00     0.206 C 
HETATM    5  N   UNL     1      39.372 -10.777   4.438  1.00  0.00    -0.065 N 
HETATM    6  H   UNL     1      38.867 -10.723   5.333  1.00  0.00     0.280 HD
HETATM    7  C   UNL     1      39.388 -12.240   3.982  1.00  0.00     0.246 C 
HETATM    8  C   UNL     1      39.450  -9.907   2.116  1.00  0.00     0.033 C 
HETATM    9  C   UNL     1      38.627  -9.927   3.413  1.00  0.00     0.236 C 
ENDROOT
BRANCH   4  10
HETATM   10  C   UNL     1      41.491 -10.788   5.866  1.00  0.00     0.155 C 
BRANCH  10  11
HETATM   11  N   UNL     1      40.779 -10.478   7.105  1.00  0.00    -0.365 N 
HETATM   12  H   UNL     1      40.718 -11.219   7.799  1.00  0.00     0.161 HD
BRANCH  11  13
HETATM   13  C   UNL     1      40.643  -9.238   7.666  1.00  0.00     0.172 C 
HETATM   14  S   UNL     1      39.377  -8.187   7.381  1.00  0.00    -0.041 SA
BRANCH  13  15
HETATM   15  N   UNL     1      41.638  -8.820   8.505  1.00  0.00    -0.333 N 
HETATM   16  H   UNL     1      41.989  -7.897   8.261  1.00  0.00     0.168 HD
BRANCH  15  17
HETATM   17  C   UNL     1      42.152  -9.358   9.704  1.00  0.00     0.035 A 
HETATM   18  C   UNL     1      41.529  -9.237  10.947  1.00  0.00     0.047 A 
HETATM   19  C   UNL     1      42.107  -9.782  12.106  1.00  0.00     0.041 A 
HETATM   20  C   UNL     1      43.342 -10.431  12.022  1.00  0.00     0.018 A 
HETATM   21  C   UNL     1      43.989 -10.526  10.790  1.00  0.00     0.003 A 
HETATM   22  C   UNL     1      43.398  -9.990   9.641  1.00  0.00     0.029 A 
BRANCH  19  23
HETATM   23  C   UNL     1      41.354  -9.638  13.381  1.00  0.00     0.293 C 
HETATM   24  O   UNL     1      40.226 -10.084  13.537  1.00  0.00    -0.259 OA
BRANCH  23  25
HETATM   25  O   UNL     1      42.083  -8.961  14.298  1.00  0.00    -0.323 OA
HETATM   26  C   UNL     1      41.308  -8.314  15.308  1.00  0.00     0.213 C 
ENDBRANCH  23  25
ENDBRANCH  19  23
ENDBRANCH  15  17
ENDBRANCH  13  15
ENDBRANCH  11  13
ENDBRANCH  10  11
ENDBRANCH   4  10
BRANCH   1  27
HETATM   27  C   UNL     1      40.571 -13.617   2.221  1.00  0.00     0.038 C 
HETATM   28  N   UNL     1      40.776 -14.283   1.034  1.00  0.00    -0.277 N 
HETATM   29  C   UNL     1      40.312 -14.018  -0.306  1.00  0.00     0.179 C 
HETATM   30  N   UNL     1      41.569 -15.359   1.165  1.00  0.00    -0.172 NA
HETATM   31  C   UNL     1      41.772 -15.511   2.476  1.00  0.00     0.089 C 
HETATM   32  C   UNL     1      41.155 -14.446   3.171  1.00  0.00     0.061 C 
BRANCH  31  33
HETATM   33  C   UNL     1      42.570 -16.610   3.020  1.00  0.00    -0.005 A 
HETATM   34  C   UNL     1      43.136 -16.512   4.296  1.00  0.00     0.016 A 
HETATM   35  C   UNL     1      43.859 -17.579   4.838  1.00  0.00     0.037 A 
HETATM   36  C   UNL     1      44.030 -18.761   4.116  1.00  0.00     0.068 A 
HETATM   37  C   UNL     1      43.498 -18.857   2.832  1.00  0.00     0.037 A 
HETATM   38  C   UNL     1      42.771 -17.788   2.288  1.00  0.00     0.016 A 
BRANCH  36  39
HETATM   39  O   UNL     1      44.738 -19.733   4.766  1.00  0.00    -0.356 OA
HETATM   40  C   UNL     1      44.017 -20.891   5.167  1.00  0.00     0.210 C 
ENDBRANCH  36  39
ENDBRANCH  31  33
ENDBRANCH   1  27
TORSDOF 10
ENDMDL
MODEL 10
REMARK VINA RESULT:      -8.0      1.532      2.165
REMARK  10 active torsions:
REMARK  status: ('A' for Active; 'I' for Inactive)
REMARK    1  A    between atoms: C_4  and  C_5 
REMARK    2  A    between atoms: C_8  and  O_9 
REMARK    3  A    between atoms: C_14  and  C_15 
REMARK    4  A    between atoms: C_18  and  C_19 
REMARK    5  A    between atoms: C_19  and  N_20 
REMARK    6  A    between atoms: N_20  and  C_21 
REMARK    7  A    between atoms: C_21  and  N_22 
REMARK    8  A    between atoms: N_22  and  C_23 
REMARK    9  A    between atoms: C_25  and  C_26 
REMARK   10  A    between atoms: C_26  and  O_27 
ROOT
HETATM    1  C   UNL     1      39.916 -12.334   2.890  1.00  0.00     0.067 C 
HETATM    2  C   UNL     1      40.615 -11.002   2.561  1.00  0.00     0.001 C 
HETATM    3  C   UNL     1      41.612 -10.584   3.662  1.00  0.00     0.040 C 
HETATM    4  C   UNL     1      40.917 -10.345   5.011  1.00  0.00     0.206 C 
HETATM    5  N   UNL     1      39.488 -10.864   4.866  1.00  0.00    -0.065 N 
HETATM    6  H   UNL     1      39.017 -10.828   5.781  1.00  0.00     0.280 HD
HETATM    7  C   UNL     1      39.449 -12.310   4.363  1.00  0.00     0.246 C 
HETATM    8  C   UNL     1      39.504  -9.918   2.573  1.00  0.00     0.033 C 
HETATM    9  C   UNL     1      38.728  -9.961   3.899  1.00  0.00     0.236 C 
ENDROOT
BRANCH   4  10
HETATM   10  C   UNL     1      41.656 -10.976   6.214  1.00  0.00     0.155 C 
BRANCH  10  11
HETATM   11  N   UNL     1      43.109 -10.860   6.102  1.00  0.00    -0.365 N 
HETATM   12  H   UNL     1      43.468 -10.261   5.364  1.00  0.00     0.161 HD
BRANCH  11  13
HETATM   13  C   UNL     1      44.008 -11.010   7.122  1.00  0.00     0.172 C 
HETATM   14  S   UNL     1      45.661 -11.157   6.932  1.00  0.00    -0.041 SA
BRANCH  13  15
HETATM   15  N   UNL     1      43.508 -11.070   8.392  1.00  0.00    -0.333 N 
HETATM   16  H   UNL     1      43.314 -12.024   8.688  1.00  0.00     0.168 HD
BRANCH  15  17
HETATM   17  C   UNL     1      43.352 -10.090   9.396  1.00  0.00     0.035 A 
HETATM   18  C   UNL     1      42.625  -8.911   9.232  1.00  0.00     0.047 A 
HETATM   19  C   UNL     1      42.525  -7.968  10.269  1.00  0.00     0.041 A 
HETATM   20  C   UNL     1      43.191  -8.196  11.476  1.00  0.00     0.018 A 
HETATM   21  C   UNL     1      43.950  -9.355  11.637  1.00  0.00     0.003 A 
HETATM   22  C   UNL     1      44.031 -10.293  10.602  1.00  0.00     0.029 A 
BRANCH  19  23
HETATM   23  C   UNL     1      41.697  -6.757  10.018  1.00  0.00     0.293 C 
HETATM   24  O   UNL     1      40.497  -6.717  10.252  1.00  0.00    -0.259 OA
BRANCH  23  25
HETATM   25  O   UNL     1      42.450  -5.755   9.510  1.00  0.00    -0.323 OA
HETATM   26  C   UNL     1      42.261  -4.492  10.150  1.00  0.00     0.213 C 
ENDBRANCH  23  25
ENDBRANCH  19  23
ENDBRANCH  15  17
ENDBRANCH  13  15
ENDBRANCH  11  13
ENDBRANCH  10  11
ENDBRANCH   4  10
BRANCH   1  27
HETATM   27  C   UNL     1      40.530 -13.656   2.513  1.00  0.00     0.038 C 
HETATM   28  N   UNL     1      40.648 -14.300   1.302  1.00  0.00    -0.277 N 
HETATM   29  C   UNL     1      40.105 -13.998   0.001  1.00  0.00     0.179 C 
HETATM   30  N   UNL     1      41.427 -15.393   1.362  1.00  0.00    -0.172 NA
HETATM   31  C   UNL     1      41.709 -15.575   2.654  1.00  0.00     0.089 C 
HETATM   32  C   UNL     1      41.158 -14.515   3.408  1.00  0.00     0.061 C 
BRANCH  31  33
HETATM   33  C   UNL     1      42.519 -16.700   3.123  1.00  0.00    -0.005 A 
HETATM   34  C   UNL     1      42.966 -16.748   4.449  1.00  0.00     0.016 A 
HETATM   35  C   UNL     1      43.699 -17.844   4.913  1.00  0.00     0.037 A 
HETATM   36  C   UNL     1      44.000 -18.909   4.065  1.00  0.00     0.068 A 
HETATM   37  C   UNL     1      43.587 -18.857   2.734  1.00  0.00     0.037 A 
HETATM   38  C   UNL     1      42.850 -17.760   2.267  1.00  0.00     0.016 A 
BRANCH  36  39
HETATM   39  O   UNL     1      44.703 -19.926   4.647  1.00  0.00    -0.356 OA
HETATM   40  C   UNL     1      43.945 -20.955   5.272  1.00  0.00     0.210 C 
ENDBRANCH  36  39
ENDBRANCH  31  33
ENDBRANCH   1  27
TORSDOF 10
ENDMDL
