MODEL 1
REMARK VINA RESULT:      -9.2      0.000      0.000
REMARK  7 active torsions:
REMARK  status: ('A' for Active; 'I' for Inactive)
REMARK    1  A    between atoms: N_2  and  C_4 
REMARK       I    between atoms: N_7  and  C_8 
REMARK    2  A    between atoms: C_8  and  C_9 
REMARK    3  A    between atoms: N_12  and  C_13 
REMARK    4  A    between atoms: C_20  and  C_21 
REMARK    5  A    between atoms: C_21  and  N_22 
REMARK    6  A    between atoms: N_22  and  C_25 
REMARK    7  A    between atoms: C_25  and  C_26 
ROOT
HETATM    1  C   UNL     1      43.580 -12.981   6.308  1.00  0.00     0.719 A 
HETATM    2  N   UNL     1      43.270 -13.021   4.953  1.00  0.00    -0.154 N 
HETATM    3  C   UNL     1      42.716 -14.287   4.733  1.00  0.00     0.083 A 
HETATM    4  C   UNL     1      42.231 -14.599   3.431  1.00  0.00     0.033 A 
HETATM    5  C   UNL     1      42.373 -13.699   2.440  1.00  0.00     0.004 A 
HETATM    6  C   UNL     1      43.031 -12.427   2.665  1.00  0.00     0.018 A 
HETATM    7  C   UNL     1      43.460 -12.119   3.901  1.00  0.00     0.115 A 
HETATM    8  C   UNL     1      42.836 -14.973   5.921  1.00  0.00     0.107 A 
HETATM    9  N   UNL     1      43.381 -14.158   6.892  1.00  0.00    -0.064 NA
ENDROOT
BRANCH   1  10
HETATM   10  N   UNL     1      44.052 -11.874   7.025  1.00  0.00    -0.147 N 
HETATM   11  C   UNL     1      45.366 -11.450   7.056  1.00  0.00     0.233 A 
HETATM   12  N   UNL     1      45.535 -10.349   7.754  1.00  0.00    -0.236 NA
HETATM   13  C   UNL     1      44.295 -10.039   8.266  1.00  0.00     0.142 A 
HETATM   14  C   UNL     1      43.389 -11.006   7.857  1.00  0.00     0.153 A 
BRANCH  13  15
HETATM   15  C   UNL     1      43.920  -8.866   9.078  1.00  0.00     0.273 C 
HETATM   16  N   UNL     1      43.514  -9.007  10.426  1.00  0.00    -0.347 N 
HETATM   17  C   UNL     1      42.809 -10.189  10.918  1.00  0.00     0.128 C 
HETATM   18  C   UNL     1      43.260  -7.749  11.125  1.00  0.00     0.128 C 
HETATM   19  C   UNL     1      42.867 -10.314  12.438  1.00  0.00     0.053 C 
HETATM   20  C   UNL     1      42.461  -9.026  13.164  1.00  0.00     0.190 C 
HETATM   21  C   UNL     1      43.342  -7.890  12.638  1.00  0.00     0.053 C 
HETATM   22  O   UNL     1      43.993  -7.744   8.572  1.00  0.00    -0.266 OA
BRANCH  20  23
HETATM   23  N   UNL     1      40.962  -8.714  13.005  1.00  0.00    -0.074 N 
HETATM   24  C   UNL     1      40.494  -7.577  13.895  1.00  0.00     0.269 C 
HETATM   25  H   UNL     1      40.781  -8.413  12.039  1.00  0.00     0.279 HD
HETATM   26  C   UNL     1      40.075  -9.918  13.250  1.00  0.00     0.269 C 
ENDBRANCH  20  23
ENDBRANCH  13  15
ENDBRANCH   1  10
BRANCH   8  27
HETATM   27  C   UNL     1      42.467 -16.383   6.226  1.00  0.00     0.294 C 
BRANCH  27  28
HETATM   28  N   UNL     1      43.681 -17.224   6.420  1.00  0.00    -0.066 N 
HETATM   29  H   UNL     1      44.180 -16.854   7.242  1.00  0.00     0.277 HD
HETATM   30  H   UNL     1      43.377 -18.159   6.718  1.00  0.00     0.277 HD
BRANCH  28  31
HETATM   31  C   UNL     1      44.575 -17.305   5.239  1.00  0.00     0.272 C 
BRANCH  31  32
HETATM   32  C   UNL     1      44.143 -18.366   4.281  1.00  0.00    -0.015 A 
HETATM   33  C   UNL     1      44.278 -19.713   4.605  1.00  0.00     0.125 A 
HETATM   34  N   UNL     1      43.940 -20.722   3.780  1.00  0.00    -0.273 NA
HETATM   35  C   UNL     1      43.410 -20.393   2.583  1.00  0.00     0.116 A 
HETATM   36  C   UNL     1      43.229 -19.086   2.166  1.00  0.00     0.020 A 
HETATM   37  C   UNL     1      43.609 -18.058   3.025  1.00  0.00     0.012 A 
ENDBRANCH  31  32
ENDBRANCH  28  31
ENDBRANCH  27  28
ENDBRANCH   8  27
TORSDOF 7
ENDMDL
MODEL 2
REMARK VINA RESULT:      -9.1      1.725      2.767
REMARK  7 active torsions:
REMARK  status: ('A' for Active; 'I' for Inactive)
REMARK    1  A    between atoms: N_2  and  C_4 
REMARK       I    between atoms: N_7  and  C_8 
REMARK    2  A    between atoms: C_8  and  C_9 
REMARK    3  A    between atoms: N_12  and  C_13 
REMARK    4  A    between atoms: C_20  and  C_21 
REMARK    5  A    between atoms: C_21  and  N_22 
REMARK    6  A    between atoms: N_22  and  C_25 
REMARK    7  A    between atoms: C_25  and  C_26 
ROOT
HETATM    1  C   UNL     1      42.641 -13.226   5.115  1.00  0.00     0.719 A 
HETATM    2  N   UNL     1      41.729 -14.231   5.415  1.00  0.00    -0.154 N 
HETATM    3  C   UNL     1      41.741 -15.090   4.311  1.00  0.00     0.083 A 
HETATM    4  C   UNL     1      40.945 -16.270   4.360  1.00  0.00     0.033 A 
HETATM    5  C   UNL     1      40.160 -16.493   5.431  1.00  0.00     0.004 A 
HETATM    6  C   UNL     1      40.092 -15.547   6.526  1.00  0.00     0.018 A 
HETATM    7  C   UNL     1      40.867 -14.450   6.496  1.00  0.00     0.115 A 
HETATM    8  C   UNL     1      42.553 -14.498   3.370  1.00  0.00     0.107 A 
HETATM    9  N   UNL     1      43.102 -13.336   3.873  1.00  0.00    -0.064 NA
ENDROOT
BRANCH   1  10
HETATM   10  N   UNL     1      43.060 -12.194   5.965  1.00  0.00    -0.147 N 
HETATM   11  C   UNL     1      42.993 -10.846   5.671  1.00  0.00     0.233 A 
HETATM   12  N   UNL     1      43.391 -10.082   6.664  1.00  0.00    -0.236 NA
HETATM   13  C   UNL     1      43.798 -10.946   7.657  1.00  0.00     0.142 A 
HETATM   14  C   UNL     1      43.639 -12.248   7.208  1.00  0.00     0.153 A 
BRANCH  13  15
HETATM   15  C   UNL     1      44.284 -10.605   9.007  1.00  0.00     0.273 C 
HETATM   16  N   UNL     1      43.394 -10.173  10.020  1.00  0.00    -0.347 N 
HETATM   17  C   UNL     1      42.178  -9.416   9.731  1.00  0.00     0.128 C 
HETATM   18  C   UNL     1      44.010  -9.958  11.327  1.00  0.00     0.128 C 
HETATM   19  C   UNL     1      41.181  -9.446  10.885  1.00  0.00     0.053 C 
HETATM   20  C   UNL     1      41.812  -9.080  12.234  1.00  0.00     0.190 C 
HETATM   21  C   UNL     1      43.003 -10.012  12.467  1.00  0.00     0.053 C 
HETATM   22  O   UNL     1      45.485 -10.728   9.257  1.00  0.00    -0.266 OA
BRANCH  20  23
HETATM   23  N   UNL     1      42.217  -7.596  12.305  1.00  0.00    -0.074 N 
HETATM   24  C   UNL     1      42.854  -7.217  13.630  1.00  0.00     0.269 C 
HETATM   25  H   UNL     1      42.924  -7.406  11.584  1.00  0.00     0.279 HD
HETATM   26  C   UNL     1      41.064  -6.651  12.033  1.00  0.00     0.269 C 
ENDBRANCH  20  23
ENDBRANCH  13  15
ENDBRANCH   1  10
BRANCH   8  27
HETATM   27  C   UNL     1      42.865 -14.954   1.986  1.00  0.00     0.294 C 
BRANCH  27  28
HETATM   28  N   UNL     1      43.700 -16.187   2.006  1.00  0.00    -0.066 N 
HETATM   29  H   UNL     1      44.469 -16.046   1.336  1.00  0.00     0.277 HD
HETATM   30  H   UNL     1      44.173 -16.237   2.917  1.00  0.00     0.277 HD
BRANCH  28  31
HETATM   31  C   UNL     1      42.960 -17.441   1.721  1.00  0.00     0.272 C 
BRANCH  31  32
HETATM   32  C   UNL     1      43.390 -18.560   2.612  1.00  0.00    -0.015 A 
HETATM   33  C   UNL     1      43.332 -19.880   2.174  1.00  0.00     0.125 A 
HETATM   34  N   UNL     1      43.672 -20.940   2.933  1.00  0.00    -0.273 NA
HETATM   35  C   UNL     1      44.123 -20.689   4.180  1.00  0.00     0.116 A 
HETATM   36  C   UNL     1      44.223 -19.415   4.711  1.00  0.00     0.020 A 
HETATM   37  C   UNL     1      43.843 -18.335   3.917  1.00  0.00     0.012 A 
ENDBRANCH  31  32
ENDBRANCH  28  31
ENDBRANCH  27  28
ENDBRANCH   8  27
TORSDOF 7
ENDMDL
MODEL 3
REMARK VINA RESULT:      -8.7      1.962      2.640
REMARK  7 active torsions:
REMARK  status: ('A' for Active; 'I' for Inactive)
REMARK    1  A    between atoms: N_2  and  C_4 
REMARK       I    between atoms: N_7  and  C_8 
REMARK    2  A    between atoms: C_8  and  C_9 
REMARK    3  A    between atoms: N_12  and  C_13 
REMARK    4  A    between atoms: C_20  and  C_21 
REMARK    5  A    between atoms: C_21  and  N_22 
REMARK    6  A    between atoms: N_22  and  C_25 
REMARK    7  A    between atoms: C_25  and  C_26 
ROOT
HETATM    1  C   UNL     1      42.398 -13.182   4.701  1.00  0.00     0.719 A 
HETATM    2  N   UNL     1      41.377 -12.727   3.873  1.00  0.00    -0.154 N 
HETATM    3  C   UNL     1      40.735 -13.878   3.404  1.00  0.00     0.083 A 
HETATM    4  C   UNL     1      39.586 -13.723   2.576  1.00  0.00     0.033 A 
HETATM    5  C   UNL     1      39.190 -12.488   2.220  1.00  0.00     0.004 A 
HETATM    6  C   UNL     1      39.921 -11.310   2.642  1.00  0.00     0.018 A 
HETATM    7  C   UNL     1      40.986 -11.453   3.449  1.00  0.00     0.115 A 
HETATM    8  C   UNL     1      41.469 -14.946   3.867  1.00  0.00     0.107 A 
HETATM    9  N   UNL     1      42.505 -14.506   4.665  1.00  0.00    -0.064 NA
ENDROOT
BRANCH   1  10
HETATM   10  N   UNL     1      43.246 -12.396   5.493  1.00  0.00    -0.147 N 
HETATM   11  C   UNL     1      44.266 -11.598   5.013  1.00  0.00     0.233 A 
HETATM   12  N   UNL     1      44.872 -10.914   5.959  1.00  0.00    -0.236 NA
HETATM   13  C   UNL     1      44.277 -11.303   7.138  1.00  0.00     0.142 A 
HETATM   14  C   UNL     1      43.307 -12.253   6.856  1.00  0.00     0.153 A 
BRANCH  13  15
HETATM   15  C   UNL     1      44.548 -10.796   8.496  1.00  0.00     0.273 C 
HETATM   16  N   UNL     1      43.534 -10.173   9.263  1.00  0.00    -0.347 N 
HETATM   17  C   UNL     1      42.451  -9.400   8.658  1.00  0.00     0.128 C 
HETATM   18  C   UNL     1      43.931  -9.803  10.620  1.00  0.00     0.128 C 
HETATM   19  C   UNL     1      41.271  -9.206   9.605  1.00  0.00     0.053 C 
HETATM   20  C   UNL     1      41.686  -8.682  10.985  1.00  0.00     0.190 C 
HETATM   21  C   UNL     1      42.741  -9.635  11.554  1.00  0.00     0.053 C 
HETATM   22  O   UNL     1      45.674 -10.948   8.975  1.00  0.00    -0.266 OA
BRANCH  20  23
HETATM   23  N   UNL     1      42.191  -7.229  10.930  1.00  0.00    -0.074 N 
HETATM   24  C   UNL     1      42.445  -6.635  12.304  1.00  0.00     0.269 C 
HETATM   25  H   UNL     1      43.093  -7.205  10.438  1.00  0.00     0.279 HD
HETATM   26  C   UNL     1      41.264  -6.306  10.167  1.00  0.00     0.269 C 
ENDBRANCH  20  23
ENDBRANCH  13  15
ENDBRANCH   1  10
BRANCH   8  27
HETATM   27  C   UNL     1      41.267 -16.399   3.611  1.00  0.00     0.294 C 
BRANCH  27  28
HETATM   28  N   UNL     1      41.839 -16.793   2.293  1.00  0.00    -0.066 N 
HETATM   29  H   UNL     1      41.289 -17.592   1.947  1.00  0.00     0.277 HD
HETATM   30  H   UNL     1      41.634 -16.044   1.620  1.00  0.00     0.277 HD
BRANCH  28  31
HETATM   31  C   UNL     1      43.289 -17.107   2.315  1.00  0.00     0.272 C 
BRANCH  31  32
HETATM   32  C   UNL     1      43.567 -18.429   2.952  1.00  0.00    -0.015 A 
HETATM   33  C   UNL     1      43.408 -19.611   2.235  1.00  0.00     0.125 A 
HETATM   34  N   UNL     1      43.609 -20.838   2.753  1.00  0.00    -0.273 NA
HETATM   35  C   UNL     1      44.019 -20.908   4.037  1.00  0.00     0.116 A 
HETATM   36  C   UNL     1      44.211 -19.795   4.836  1.00  0.00     0.020 A 
HETATM   37  C   UNL     1      43.973 -18.536   4.286  1.00  0.00     0.012 A 
ENDBRANCH  31  32
ENDBRANCH  28  31
ENDBRANCH  27  28
ENDBRANCH   8  27
TORSDOF 7
ENDMDL
MODEL 4
REMARK VINA RESULT:      -8.6      4.419     10.218
REMARK  7 active torsions:
REMARK  status: ('A' for Active; 'I' for Inactive)
REMARK    1  A    between atoms: N_2  and  C_4 
REMARK       I    between atoms: N_7  and  C_8 
REMARK    2  A    between atoms: C_8  and  C_9 
REMARK    3  A    between atoms: N_12  and  C_13 
REMARK    4  A    between atoms: C_20  and  C_21 
REMARK    5  A    between atoms: C_21  and  N_22 
REMARK    6  A    between atoms: N_22  and  C_25 
REMARK    7  A    between atoms: C_25  and  C_26 
ROOT
HETATM    1  C   UNL     1      42.045 -15.029   3.878  1.00  0.00     0.719 A 
HETATM    2  N   UNL     1      42.777 -16.210   3.840  1.00  0.00    -0.154 N 
HETATM    3  C   UNL     1      43.416 -16.295   5.082  1.00  0.00     0.083 A 
HETATM    4  C   UNL     1      44.194 -17.454   5.366  1.00  0.00     0.033 A 
HETATM    5  C   UNL     1      44.344 -18.398   4.419  1.00  0.00     0.004 A 
HETATM    6  C   UNL     1      43.748 -18.251   3.106  1.00  0.00     0.018 A 
HETATM    7  C   UNL     1      42.986 -17.174   2.848  1.00  0.00     0.115 A 
HETATM    8  C   UNL     1      43.139 -15.118   5.740  1.00  0.00     0.107 A 
HETATM    9  N   UNL     1      42.293 -14.333   4.983  1.00  0.00    -0.064 NA
ENDROOT
BRANCH   1  10
HETATM   10  N   UNL     1      41.148 -14.568   2.905  1.00  0.00    -0.147 N 
HETATM   11  C   UNL     1      39.952 -13.929   3.168  1.00  0.00     0.233 A 
HETATM   12  N   UNL     1      39.325 -13.543   2.078  1.00  0.00    -0.236 NA
HETATM   13  C   UNL     1      40.099 -13.984   1.028  1.00  0.00     0.142 A 
HETATM   14  C   UNL     1      41.198 -14.659   1.537  1.00  0.00     0.153 A 
BRANCH  13  15
HETATM   15  C   UNL     1      39.875 -13.765  -0.413  1.00  0.00     0.273 C 
HETATM   16  N   UNL     1      40.323 -12.586  -1.055  1.00  0.00    -0.347 N 
HETATM   17  C   UNL     1      40.403 -11.297  -0.370  1.00  0.00     0.128 C 
HETATM   18  C   UNL     1      40.106 -12.553  -2.499  1.00  0.00     0.128 C 
HETATM   19  C   UNL     1      41.302 -10.302  -1.098  1.00  0.00     0.053 C 
HETATM   20  C   UNL     1      40.972 -10.172  -2.589  1.00  0.00     0.190 C 
HETATM   21  C   UNL     1      41.027 -11.570  -3.209  1.00  0.00     0.053 C 
HETATM   22  O   UNL     1      39.311 -14.644  -1.069  1.00  0.00    -0.266 OA
BRANCH  20  23
HETATM   23  N   UNL     1      39.614  -9.487  -2.828  1.00  0.00    -0.074 N 
HETATM   24  C   UNL     1      39.295  -9.298  -4.300  1.00  0.00     0.269 C 
HETATM   25  H   UNL     1      38.866 -10.082  -2.449  1.00  0.00     0.279 HD
HETATM   26  C   UNL     1      39.491  -8.149  -2.129  1.00  0.00     0.269 C 
ENDBRANCH  20  23
ENDBRANCH  13  15
ENDBRANCH   1  10
BRANCH   8  27
HETATM   27  C   UNL     1      43.622 -14.657   7.071  1.00  0.00     0.294 C 
BRANCH  27  28
HETATM   28  N   UNL     1      43.519 -13.175   7.192  1.00  0.00    -0.066 N 
HETATM   29  H   UNL     1      42.658 -12.888   6.707  1.00  0.00     0.277 HD
HETATM   30  H   UNL     1      43.333 -12.949   8.177  1.00  0.00     0.277 HD
BRANCH  28  31
HETATM   31  C   UNL     1      44.698 -12.429   6.688  1.00  0.00     0.272 C 
BRANCH  31  32
HETATM   32  C   UNL     1      44.838 -11.093   7.342  1.00  0.00    -0.015 A 
HETATM   33  C   UNL     1      43.713 -10.347   7.682  1.00  0.00     0.125 A 
HETATM   34  N   UNL     1      43.763  -9.125   8.244  1.00  0.00    -0.273 NA
HETATM   35  C   UNL     1      44.984  -8.619   8.517  1.00  0.00     0.116 A 
HETATM   36  C   UNL     1      46.164  -9.280   8.225  1.00  0.00     0.020 A 
HETATM   37  C   UNL     1      46.089 -10.533   7.620  1.00  0.00     0.012 A 
ENDBRANCH  31  32
ENDBRANCH  28  31
ENDBRANCH  27  28
ENDBRANCH   8  27
TORSDOF 7
ENDMDL
MODEL 5
REMARK VINA RESULT:      -8.6      3.456      5.421
REMARK  7 active torsions:
REMARK  status: ('A' for Active; 'I' for Inactive)
REMARK    1  A    between atoms: N_2  and  C_4 
REMARK       I    between atoms: N_7  and  C_8 
REMARK    2  A    between atoms: C_8  and  C_9 
REMARK    3  A    between atoms: N_12  and  C_13 
REMARK    4  A    between atoms: C_20  and  C_21 
REMARK    5  A    between atoms: C_21  and  N_22 
REMARK    6  A    between atoms: N_22  and  C_25 
REMARK    7  A    between atoms: C_25  and  C_26 
ROOT
HETATM    1  C   UNL     1      42.488 -14.159   4.264  1.00  0.00     0.719 A 
HETATM    2  N   UNL     1      42.937 -15.473   4.194  1.00  0.00    -0.154 N 
HETATM    3  C   UNL     1      42.076 -16.116   3.299  1.00  0.00     0.083 A 
HETATM    4  C   UNL     1      42.335 -17.478   2.968  1.00  0.00     0.033 A 
HETATM    5  C   UNL     1      43.354 -18.121   3.567  1.00  0.00     0.004 A 
HETATM    6  C   UNL     1      44.181 -17.464   4.560  1.00  0.00     0.018 A 
HETATM    7  C   UNL     1      43.958 -16.171   4.849  1.00  0.00     0.115 A 
HETATM    8  C   UNL     1      41.097 -15.203   2.980  1.00  0.00     0.107 A 
HETATM    9  N   UNL     1      41.354 -13.992   3.590  1.00  0.00    -0.064 NA
ENDROOT
BRANCH   1  10
HETATM   10  N   UNL     1      43.101 -13.100   4.946  1.00  0.00    -0.147 N 
HETATM   11  C   UNL     1      43.650 -11.983   4.347  1.00  0.00     0.233 A 
HETATM   12  N   UNL     1      44.108 -11.107   5.214  1.00  0.00    -0.236 NA
HETATM   13  C   UNL     1      43.912 -11.674   6.454  1.00  0.00     0.142 A 
HETATM   14  C   UNL     1      43.336 -12.924   6.286  1.00  0.00     0.153 A 
BRANCH  13  15
HETATM   15  C   UNL     1      44.201 -11.083   7.773  1.00  0.00     0.273 C 
HETATM   16  N   UNL     1      43.222 -10.339   8.474  1.00  0.00    -0.347 N 
HETATM   17  C   UNL     1      42.198  -9.547   7.796  1.00  0.00     0.128 C 
HETATM   18  C   UNL     1      43.627  -9.892   9.805  1.00  0.00     0.128 C 
HETATM   19  C   UNL     1      41.023  -9.206   8.707  1.00  0.00     0.053 C 
HETATM   20  C   UNL     1      41.456  -8.605  10.049  1.00  0.00     0.190 C 
HETATM   21  C   UNL     1      42.441  -9.576  10.705  1.00  0.00     0.053 C 
HETATM   22  O   UNL     1      45.310 -11.269   8.281  1.00  0.00    -0.266 OA
BRANCH  20  23
HETATM   23  N   UNL     1      42.055  -7.195   9.891  1.00  0.00    -0.074 N 
HETATM   24  C   UNL     1      42.435  -6.559  11.216  1.00  0.00     0.269 C 
HETATM   25  H   UNL     1      42.924  -7.258   9.346  1.00  0.00     0.279 HD
HETATM   26  C   UNL     1      41.147  -6.244   9.139  1.00  0.00     0.269 C 
ENDBRANCH  20  23
ENDBRANCH  13  15
ENDBRANCH   1  10
BRANCH   8  27
HETATM   27  C   UNL     1      39.896 -15.384   2.118  1.00  0.00     0.294 C 
BRANCH  27  28
HETATM   28  N   UNL     1      39.656 -14.178   1.277  1.00  0.00    -0.066 N 
HETATM   29  H   UNL     1      38.636 -14.064   1.190  1.00  0.00     0.277 HD
HETATM   30  H   UNL     1      39.951 -13.352   1.813  1.00  0.00     0.277 HD
BRANCH  28  31
HETATM   31  C   UNL     1      40.309 -14.211  -0.055  1.00  0.00     0.272 C 
BRANCH  31  32
HETATM   32  C   UNL     1      39.326 -14.037  -1.166  1.00  0.00    -0.015 A 
HETATM   33  C   UNL     1      38.478 -12.934  -1.199  1.00  0.00     0.125 A 
HETATM   34  N   UNL     1      37.548 -12.729  -2.150  1.00  0.00    -0.273 NA
HETATM   35  C   UNL     1      37.465 -13.641  -3.142  1.00  0.00     0.116 A 
HETATM   36  C   UNL     1      38.263 -14.769  -3.206  1.00  0.00     0.020 A 
HETATM   37  C   UNL     1      39.202 -14.974  -2.197  1.00  0.00     0.012 A 
ENDBRANCH  31  32
ENDBRANCH  28  31
ENDBRANCH  27  28
ENDBRANCH   8  27
TORSDOF 7
ENDMDL
MODEL 6
REMARK VINA RESULT:      -8.4      3.194      5.818
REMARK  7 active torsions:
REMARK  status: ('A' for Active; 'I' for Inactive)
REMARK    1  A    between atoms: N_2  and  C_4 
REMARK       I    between atoms: N_7  and  C_8 
REMARK    2  A    between atoms: C_8  and  C_9 
REMARK    3  A    between atoms: N_12  and  C_13 
REMARK    4  A    between atoms: C_20  and  C_21 
REMARK    5  A    between atoms: C_21  and  N_22 
REMARK    6  A    between atoms: N_22  and  C_25 
REMARK    7  A    between atoms: C_25  and  C_26 
ROOT
HETATM    1  C   UNL     1      42.082 -13.983   3.293  1.00  0.00     0.719 A 
HETATM    2  N   UNL     1      42.569 -15.275   3.455  1.00  0.00    -0.154 N 
HETATM    3  C   UNL     1      41.892 -16.052   2.509  1.00  0.00     0.083 A 
HETATM    4  C   UNL     1      42.239 -17.429   2.388  1.00  0.00     0.033 A 
HETATM    5  C   UNL     1      43.153 -17.955   3.223  1.00  0.00     0.004 A 
HETATM    6  C   UNL     1      43.779 -17.156   4.258  1.00  0.00     0.018 A 
HETATM    7  C   UNL     1      43.477 -15.850   4.351  1.00  0.00     0.115 A 
HETATM    8  C   UNL     1      40.961 -15.224   1.924  1.00  0.00     0.107 A 
HETATM    9  N   UNL     1      41.079 -13.942   2.422  1.00  0.00    -0.064 NA
ENDROOT
BRANCH   1  10
HETATM   10  N   UNL     1      42.541 -12.828   3.940  1.00  0.00    -0.147 N 
HETATM   11  C   UNL     1      43.742 -12.197   3.680  1.00  0.00     0.233 A 
HETATM   12  N   UNL     1      43.907 -11.097   4.380  1.00  0.00    -0.236 NA
HETATM   13  C   UNL     1      42.799 -11.003   5.192  1.00  0.00     0.142 A 
HETATM   14  C   UNL     1      41.979 -12.096   4.955  1.00  0.00     0.153 A 
BRANCH  13  15
HETATM   15  C   UNL     1      42.461  -9.922   6.137  1.00  0.00     0.273 C 
HETATM   16  N   UNL     1      43.214  -9.718   7.317  1.00  0.00    -0.347 N 
HETATM   17  C   UNL     1      43.868 -10.810   8.035  1.00  0.00     0.128 C 
HETATM   18  C   UNL     1      42.814  -8.556   8.108  1.00  0.00     0.128 C 
HETATM   19  C   UNL     1      44.953 -10.318   8.988  1.00  0.00     0.053 C 
HETATM   20  C   UNL     1      44.478  -9.191   9.912  1.00  0.00     0.190 C 
HETATM   21  C   UNL     1      43.916  -8.067   9.036  1.00  0.00     0.053 C 
HETATM   22  O   UNL     1      41.520  -9.171   5.871  1.00  0.00    -0.266 OA
BRANCH  20  23
HETATM   23  N   UNL     1      43.451  -9.681  10.950  1.00  0.00    -0.074 N 
HETATM   24  C   UNL     1      43.152  -8.649  12.022  1.00  0.00     0.269 C 
HETATM   25  H   UNL     1      42.558  -9.867  10.477  1.00  0.00     0.279 HD
HETATM   26  C   UNL     1      43.858 -10.976  11.622  1.00  0.00     0.269 C 
ENDBRANCH  20  23
ENDBRANCH  13  15
ENDBRANCH   1  10
BRANCH   8  27
HETATM   27  C   UNL     1      39.933 -15.553   0.898  1.00  0.00     0.294 C 
BRANCH  27  28
HETATM   28  N   UNL     1      39.503 -14.331   0.161  1.00  0.00    -0.066 N 
HETATM   29  H   UNL     1      38.474 -14.338   0.133  1.00  0.00     0.277 HD
HETATM   30  H   UNL     1      39.728 -13.514   0.743  1.00  0.00     0.277 HD
BRANCH  28  31
HETATM   31  C   UNL     1      40.079 -14.192  -1.199  1.00  0.00     0.272 C 
BRANCH  31  32
HETATM   32  C   UNL     1      40.455 -12.780  -1.506  1.00  0.00    -0.015 A 
HETATM   33  C   UNL     1      40.595 -12.352  -2.823  1.00  0.00     0.125 A 
HETATM   34  N   UNL     1      40.961 -11.105  -3.174  1.00  0.00    -0.273 NA
HETATM   35  C   UNL     1      41.172 -10.218  -2.179  1.00  0.00     0.116 A 
HETATM   36  C   UNL     1      41.056 -10.539  -0.837  1.00  0.00     0.020 A 
HETATM   37  C   UNL     1      40.700 -11.843  -0.497  1.00  0.00     0.012 A 
ENDBRANCH  31  32
ENDBRANCH  28  31
ENDBRANCH  27  28
ENDBRANCH   8  27
TORSDOF 7
ENDMDL
MODEL 7
REMARK VINA RESULT:      -8.3      1.977      9.732
REMARK  7 active torsions:
REMARK  status: ('A' for Active; 'I' for Inactive)
REMARK    1  A    between atoms: N_2  and  C_4 
REMARK       I    between atoms: N_7  and  C_8 
REMARK    2  A    between atoms: C_8  and  C_9 
REMARK    3  A    between atoms: N_12  and  C_13 
REMARK    4  A    between atoms: C_20  and  C_21 
REMARK    5  A    between atoms: C_21  and  N_22 
REMARK    6  A    between atoms: N_22  and  C_25 
REMARK    7  A    between atoms: C_25  and  C_26 
ROOT
HETATM    1  C   UNL     1      43.464  -9.354  10.302  1.00  0.00     0.719 A 
HETATM    2  N   UNL     1      43.094  -8.015  10.364  1.00  0.00    -0.154 N 
HETATM    3  C   UNL     1      42.743  -7.785  11.699  1.00  0.00     0.083 A 
HETATM    4  C   UNL     1      42.383  -6.463  12.088  1.00  0.00     0.033 A 
HETATM    5  C   UNL     1      42.329  -5.492  11.157  1.00  0.00     0.004 A 
HETATM    6  C   UNL     1      42.608  -5.768   9.762  1.00  0.00     0.018 A 
HETATM    7  C   UNL     1      42.980  -7.008   9.400  1.00  0.00     0.115 A 
HETATM    8  C   UNL     1      42.801  -9.007  12.329  1.00  0.00     0.107 A 
HETATM    9  N   UNL     1      43.241  -9.979  11.453  1.00  0.00    -0.064 NA
ENDROOT
BRANCH   1  10
HETATM   10  N   UNL     1      44.003 -10.022   9.195  1.00  0.00    -0.147 N 
HETATM   11  C   UNL     1      45.317 -10.433   9.078  1.00  0.00     0.233 A 
HETATM   12  N   UNL     1      45.553 -11.094   7.966  1.00  0.00    -0.236 NA
HETATM   13  C   UNL     1      44.365 -11.086   7.270  1.00  0.00     0.142 A 
HETATM   14  C   UNL     1      43.422 -10.383   8.005  1.00  0.00     0.153 A 
BRANCH  13  15
HETATM   15  C   UNL     1      44.069 -11.737   5.980  1.00  0.00     0.273 C 
HETATM   16  N   UNL     1      43.357 -12.959   5.922  1.00  0.00    -0.347 N 
HETATM   17  C   UNL     1      43.437 -13.970   6.975  1.00  0.00     0.128 C 
HETATM   18  C   UNL     1      43.065 -13.435   4.572  1.00  0.00     0.128 C 
HETATM   19  C   UNL     1      42.284 -14.967   6.918  1.00  0.00     0.053 C 
HETATM   20  C   UNL     1      42.076 -15.567   5.522  1.00  0.00     0.190 C 
HETATM   21  C   UNL     1      41.899 -14.413   4.533  1.00  0.00     0.053 C 
HETATM   22  O   UNL     1      44.428 -11.185   4.938  1.00  0.00    -0.266 OA
BRANCH  20  23
HETATM   23  N   UNL     1      43.226 -16.506   5.113  1.00  0.00    -0.074 N 
HETATM   24  C   UNL     1      43.056 -17.082   3.720  1.00  0.00     0.269 C 
HETATM   25  H   UNL     1      44.105 -15.973   5.096  1.00  0.00     0.279 HD
HETATM   26  C   UNL     1      43.438 -17.647   6.087  1.00  0.00     0.269 C 
ENDBRANCH  20  23
ENDBRANCH  13  15
ENDBRANCH   1  10
BRANCH   8  27
HETATM   27  C   UNL     1      42.462  -9.348  13.739  1.00  0.00     0.294 C 
BRANCH  27  28
HETATM   28  N   UNL     1      41.010  -9.144  14.004  1.00  0.00    -0.066 N 
HETATM   29  H   UNL     1      40.854  -9.324  15.006  1.00  0.00     0.277 HD
HETATM   30  H   UNL     1      40.805  -8.143  13.899  1.00  0.00     0.277 HD
BRANCH  28  31
HETATM   31  C   UNL     1      40.105  -9.965  13.162  1.00  0.00     0.272 C 
BRANCH  31  32
HETATM   32  C   UNL     1      39.599  -9.206  11.980  1.00  0.00    -0.015 A 
HETATM   33  C   UNL     1      39.036  -7.943  12.134  1.00  0.00     0.125 A 
HETATM   34  N   UNL     1      38.531  -7.215  11.119  1.00  0.00    -0.273 NA
HETATM   35  C   UNL     1      38.611  -7.743   9.880  1.00  0.00     0.116 A 
HETATM   36  C   UNL     1      39.155  -8.988   9.617  1.00  0.00     0.020 A 
HETATM   37  C   UNL     1      39.648  -9.734  10.685  1.00  0.00     0.012 A 
ENDBRANCH  31  32
ENDBRANCH  28  31
ENDBRANCH  27  28
ENDBRANCH   8  27
TORSDOF 7
ENDMDL
MODEL 8
REMARK VINA RESULT:      -8.1      2.713      4.629
REMARK  7 active torsions:
REMARK  status: ('A' for Active; 'I' for Inactive)
REMARK    1  A    between atoms: N_2  and  C_4 
REMARK       I    between atoms: N_7  and  C_8 
REMARK    2  A    between atoms: C_8  and  C_9 
REMARK    3  A    between atoms: N_12  and  C_13 
REMARK    4  A    between atoms: C_20  and  C_21 
REMARK    5  A    between atoms: C_21  and  N_22 
REMARK    6  A    between atoms: N_22  and  C_25 
REMARK    7  A    between atoms: C_25  and  C_26 
ROOT
HETATM    1  C   UNL     1      43.150 -13.182   5.195  1.00  0.00     0.719 A 
HETATM    2  N   UNL     1      42.883 -14.497   5.560  1.00  0.00    -0.154 N 
HETATM    3  C   UNL     1      42.894 -15.227   4.367  1.00  0.00     0.083 A 
HETATM    4  C   UNL     1      42.718 -16.639   4.433  1.00  0.00     0.033 A 
HETATM    5  C   UNL     1      42.484 -17.220   5.625  1.00  0.00     0.004 A 
HETATM    6  C   UNL     1      42.385 -16.436   6.840  1.00  0.00     0.018 A 
HETATM    7  C   UNL     1      42.584 -15.108   6.783  1.00  0.00     0.115 A 
HETATM    8  C   UNL     1      43.042 -14.308   3.353  1.00  0.00     0.107 A 
HETATM    9  N   UNL     1      43.191 -13.038   3.874  1.00  0.00    -0.064 NA
ENDROOT
BRANCH   1  10
HETATM   10  N   UNL     1      43.354 -12.098   6.059  1.00  0.00    -0.147 N 
HETATM   11  C   UNL     1      44.545 -11.800   6.691  1.00  0.00     0.233 A 
HETATM   12  N   UNL     1      44.489 -10.694   7.400  1.00  0.00    -0.236 NA
HETATM   13  C   UNL     1      43.191 -10.249   7.292  1.00  0.00     0.142 A 
HETATM   14  C   UNL     1      42.477 -11.141   6.504  1.00  0.00     0.153 A 
BRANCH  13  15
HETATM   15  C   UNL     1      42.609  -9.016   7.853  1.00  0.00     0.273 C 
HETATM   16  N   UNL     1      42.740  -8.703   9.228  1.00  0.00    -0.347 N 
HETATM   17  C   UNL     1      42.812  -9.728  10.267  1.00  0.00     0.128 C 
HETATM   18  C   UNL     1      42.188  -7.407   9.617  1.00  0.00     0.128 C 
HETATM   19  C   UNL     1      43.381  -9.194  11.578  1.00  0.00     0.053 C 
HETATM   20  C   UNL     1      42.697  -7.905  12.050  1.00  0.00     0.190 C 
HETATM   21  C   UNL     1      42.783  -6.881  10.916  1.00  0.00     0.053 C 
HETATM   22  O   UNL     1      42.024  -8.235   7.099  1.00  0.00    -0.266 OA
BRANCH  20  23
HETATM   23  N   UNL     1      41.244  -8.148  12.500  1.00  0.00    -0.074 N 
HETATM   24  C   UNL     1      40.526  -6.873  12.902  1.00  0.00     0.269 C 
HETATM   25  H   UNL     1      40.710  -8.539  11.714  1.00  0.00     0.279 HD
HETATM   26  C   UNL     1      41.131  -9.147  13.633  1.00  0.00     0.269 C 
ENDBRANCH  20  23
ENDBRANCH  13  15
ENDBRANCH   1  10
BRANCH   8  27
HETATM   27  C   UNL     1      43.053 -14.534   1.881  1.00  0.00     0.294 C 
BRANCH  27  28
HETATM   28  N   UNL     1      41.894 -13.863   1.228  1.00  0.00    -0.066 N 
HETATM   29  H   UNL     1      41.561 -13.133   1.873  1.00  0.00     0.277 HD
HETATM   30  H   UNL     1      42.247 -13.334   0.420  1.00  0.00     0.277 HD
BRANCH  28  31
HETATM   31  C   UNL     1      40.793 -14.774   0.830  1.00  0.00     0.272 C 
BRANCH  31  32
HETATM   32  C   UNL     1      39.896 -14.156  -0.192  1.00  0.00    -0.015 A 
HETATM   33  C   UNL     1      39.454 -12.844  -0.049  1.00  0.00     0.125 A 
HETATM   34  N   UNL     1      38.621 -12.233  -0.912  1.00  0.00    -0.273 NA
HETATM   35  C   UNL     1      38.223 -12.937  -1.993  1.00  0.00     0.116 A 
HETATM   36  C   UNL     1      38.608 -14.245  -2.232  1.00  0.00     0.020 A 
HETATM   37  C   UNL     1      39.451 -14.865  -1.312  1.00  0.00     0.012 A 
ENDBRANCH  31  32
ENDBRANCH  28  31
ENDBRANCH  27  28
ENDBRANCH   8  27
TORSDOF 7
ENDMDL
MODEL 9
REMARK VINA RESULT:      -8.1      2.548      3.082
REMARK  7 active torsions:
REMARK  status: ('A' for Active; 'I' for Inactive)
REMARK    1  A    between atoms: N_2  and  C_4 
REMARK       I    between atoms: N_7  and  C_8 
REMARK    2  A    between atoms: C_8  and  C_9 
REMARK    3  A    between atoms: N_12  and  C_13 
REMARK    4  A    between atoms: C_20  and  C_21 
REMARK    5  A    between atoms: C_21  and  N_22 
REMARK    6  A    between atoms: N_22  and  C_25 
REMARK    7  A    between atoms: C_25  and  C_26 
ROOT
HETATM    1  C   UNL     1      40.418 -13.055   5.445  1.00  0.00     0.719 A 
HETATM    2  N   UNL     1      40.217 -13.463   4.131  1.00  0.00    -0.154 N 
HETATM    3  C   UNL     1      40.535 -14.825   4.109  1.00  0.00     0.083 A 
HETATM    4  C   UNL     1      40.355 -15.545   2.893  1.00  0.00     0.033 A 
HETATM    5  C   UNL     1      39.948 -14.889   1.791  1.00  0.00     0.004 A 
HETATM    6  C   UNL     1      39.710 -13.459   1.810  1.00  0.00     0.018 A 
HETATM    7  C   UNL     1      39.847 -12.785   2.964  1.00  0.00     0.115 A 
HETATM    8  C   UNL     1      41.021 -15.129   5.361  1.00  0.00     0.107 A 
HETATM    9  N   UNL     1      40.953 -14.022   6.183  1.00  0.00    -0.064 NA
ENDROOT
BRANCH   1  10
HETATM   10  N   UNL     1      40.121 -11.796   5.984  1.00  0.00    -0.147 N 
HETATM   11  C   UNL     1      38.869 -11.385   6.397  1.00  0.00     0.233 A 
HETATM   12  N   UNL     1      38.870 -10.180   6.924  1.00  0.00    -0.236 NA
HETATM   13  C   UNL     1      40.167  -9.730   6.817  1.00  0.00     0.142 A 
HETATM   14  C   UNL     1      40.929 -10.707   6.194  1.00  0.00     0.153 A 
BRANCH  13  15
HETATM   15  C   UNL     1      40.724  -8.455   7.308  1.00  0.00     0.273 C 
HETATM   16  N   UNL     1      41.374  -8.373   8.562  1.00  0.00    -0.347 N 
HETATM   17  C   UNL     1      41.007  -9.216   9.698  1.00  0.00     0.128 C 
HETATM   18  C   UNL     1      41.949  -7.065   8.870  1.00  0.00     0.128 C 
HETATM   19  C   UNL     1      42.096  -9.267  10.766  1.00  0.00     0.053 C 
HETATM   20  C   UNL     1      42.594  -7.878  11.184  1.00  0.00     0.190 C 
HETATM   21  C   UNL     1      43.047  -7.139   9.922  1.00  0.00     0.053 C 
HETATM   22  O   UNL     1      40.641  -7.454   6.592  1.00  0.00    -0.266 OA
BRANCH  20  23
HETATM   23  N   UNL     1      41.528  -7.087  11.964  1.00  0.00    -0.074 N 
HETATM   24  C   UNL     1      42.001  -5.707  12.382  1.00  0.00     0.269 C 
HETATM   25  H   UNL     1      40.711  -6.937  11.360  1.00  0.00     0.279 HD
HETATM   26  C   UNL     1      41.024  -7.819  13.191  1.00  0.00     0.269 C 
ENDBRANCH  20  23
ENDBRANCH  13  15
ENDBRANCH   1  10
BRANCH   8  27
HETATM   27  C   UNL     1      41.564 -16.421   5.864  1.00  0.00     0.294 C 
BRANCH  27  28
HETATM   28  N   UNL     1      43.050 -16.449   5.771  1.00  0.00    -0.066 N 
HETATM   29  H   UNL     1      43.395 -15.540   6.111  1.00  0.00     0.277 HD
HETATM   30  H   UNL     1      43.400 -17.120   6.466  1.00  0.00     0.277 HD
BRANCH  28  31
HETATM   31  C   UNL     1      43.581 -16.755   4.420  1.00  0.00     0.272 C 
BRANCH  31  32
HETATM   32  C   UNL     1      43.721 -18.225   4.193  1.00  0.00    -0.015 A 
HETATM   33  C   UNL     1      43.562 -18.765   2.920  1.00  0.00     0.125 A 
HETATM   34  N   UNL     1      43.642 -20.081   2.646  1.00  0.00    -0.273 NA
HETATM   35  C   UNL     1      43.924 -20.911   3.673  1.00  0.00     0.116 A 
HETATM   36  C   UNL     1      44.104 -20.477   4.974  1.00  0.00     0.020 A 
HETATM   37  C   UNL     1      43.992 -19.113   5.239  1.00  0.00     0.012 A 
ENDBRANCH  31  32
ENDBRANCH  28  31
ENDBRANCH  27  28
ENDBRANCH   8  27
TORSDOF 7
ENDMDL
MODEL 10
REMARK VINA RESULT:      -8.0      7.523     10.918
REMARK  7 active torsions:
REMARK  status: ('A' for Active; 'I' for Inactive)
REMARK    1  A    between atoms: N_2  and  C_4 
REMARK       I    between atoms: N_7  and  C_8 
REMARK    2  A    between atoms: C_8  and  C_9 
REMARK    3  A    between atoms: N_12  and  C_13 
REMARK    4  A    between atoms: C_20  and  C_21 
REMARK    5  A    between atoms: C_21  and  N_22 
REMARK    6  A    between atoms: N_22  and  C_25 
REMARK    7  A    between atoms: C_25  and  C_26 
ROOT
HETATM    1  C   UNL     1      40.615 -12.459  -0.492  1.00  0.00     0.719 A 
HETATM    2  N   UNL     1      39.935 -13.257  -1.407  1.00  0.00    -0.154 N 
HETATM    3  C   UNL     1      39.787 -14.499  -0.781  1.00  0.00     0.083 A 
HETATM    4  C   UNL     1      39.055 -15.517  -1.459  1.00  0.00     0.033 A 
HETATM    5  C   UNL     1      38.584 -15.278  -2.697  1.00  0.00     0.004 A 
HETATM    6  C   UNL     1      38.825 -14.015  -3.365  1.00  0.00     0.018 A 
HETATM    7  C   UNL     1      39.487 -13.043  -2.714  1.00  0.00     0.115 A 
HETATM    8  C   UNL     1      40.483 -14.421   0.404  1.00  0.00     0.107 A 
HETATM    9  N   UNL     1      41.002 -13.154   0.573  1.00  0.00    -0.064 NA
ENDROOT
BRANCH   1  10
HETATM   10  N   UNL     1      40.895 -11.092  -0.621  1.00  0.00    -0.147 N 
HETATM   11  C   UNL     1      40.371 -10.096   0.179  1.00  0.00     0.233 A 
HETATM   12  N   UNL     1      40.842  -8.903  -0.109  1.00  0.00    -0.236 NA
HETATM   13  C   UNL     1      41.680  -9.085  -1.186  1.00  0.00     0.142 A 
HETATM   14  C   UNL     1      41.677 -10.427  -1.532  1.00  0.00     0.153 A 
BRANCH  13  15
HETATM   15  C   UNL     1      42.508  -8.072  -1.867  1.00  0.00     0.273 C 
HETATM   16  N   UNL     1      42.062  -7.436  -3.051  1.00  0.00    -0.347 N 
HETATM   17  C   UNL     1      41.198  -8.099  -4.025  1.00  0.00     0.128 C 
HETATM   18  C   UNL     1      42.950  -6.393  -3.560  1.00  0.00     0.128 C 
HETATM   19  C   UNL     1      40.505  -7.113  -4.961  1.00  0.00     0.053 C 
HETATM   20  C   UNL     1      41.473  -6.109  -5.600  1.00  0.00     0.190 C 
HETATM   21  C   UNL     1      42.237  -5.408  -4.474  1.00  0.00     0.053 C 
HETATM   22  O   UNL     1      43.593  -7.758  -1.374  1.00  0.00    -0.266 OA
BRANCH  20  23
HETATM   23  N   UNL     1      42.421  -6.777  -6.613  1.00  0.00    -0.074 N 
HETATM   24  C   UNL     1      43.643  -5.933  -6.927  1.00  0.00     0.269 C 
HETATM   25  H   UNL     1      42.776  -7.655  -6.213  1.00  0.00     0.279 HD
HETATM   26  C   UNL     1      41.738  -7.145  -7.914  1.00  0.00     0.269 C 
ENDBRANCH  20  23
ENDBRANCH  13  15
ENDBRANCH   1  10
BRANCH   8  27
HETATM   27  C   UNL     1      40.708 -15.481   1.426  1.00  0.00     0.294 C 
BRANCH  27  28
HETATM   28  N   UNL     1      42.159 -15.790   1.565  1.00  0.00    -0.066 N 
HETATM   29  H   UNL     1      42.353 -16.612   0.975  1.00  0.00     0.277 HD
HETATM   30  H   UNL     1      42.689 -15.034   1.114  1.00  0.00     0.277 HD
BRANCH  28  31
HETATM   31  C   UNL     1      42.617 -16.006   2.959  1.00  0.00     0.272 C 
BRANCH  31  32
HETATM   32  C   UNL     1      43.097 -17.403   3.181  1.00  0.00    -0.015 A 
HETATM   33  C   UNL     1      43.702 -17.764   4.381  1.00  0.00     0.125 A 
HETATM   34  N   UNL     1      44.187 -18.994   4.639  1.00  0.00    -0.273 NA
HETATM   35  C   UNL     1      44.042 -19.930   3.678  1.00  0.00     0.116 A 
HETATM   36  C   UNL     1      43.451 -19.677   2.452  1.00  0.00     0.020 A 
HETATM   37  C   UNL     1      42.980 -18.391   2.198  1.00  0.00     0.012 A 
ENDBRANCH  31  32
ENDBRANCH  28  31
ENDBRANCH  27  28
ENDBRANCH   8  27
TORSDOF 7
ENDMDL
