MODEL 1
REMARK VINA RESULT:     -10.4      0.000      0.000
REMARK  3 active torsions:
REMARK  status: ('A' for Active; 'I' for Inactive)
REMARK    1  A    between atoms: C_4  and  N_5 
REMARK    2  A    between atoms: N_5  and  C_6 
REMARK    3  A    between atoms: C_13  and  C_14 
ROOT
HETATM    1  C   UNL     1      41.963 -12.758   2.429  1.00  0.00     0.741 A 
HETATM    2  N   UNL     1      42.097 -14.091   2.328  1.00  0.00    -0.066 NA
HETATM    3  C   UNL     1      42.556 -14.783   3.392  1.00  0.00     0.069 A 
HETATM    4  C   UNL     1      42.876 -14.168   4.580  1.00  0.00     0.053 A 
HETATM    5  C   UNL     1      43.346 -14.929   5.747  1.00  0.00     0.163 C 
HETATM    6  O   UNL     1      43.600 -14.342   6.794  1.00  0.00    -0.292 OA
HETATM    7  C   UNL     1      43.426 -16.435   5.624  1.00  0.00     0.093 C 
HETATM    8  C   UNL     1      43.703 -16.867   4.179  1.00  0.00     0.031 C 
HETATM    9  C   UNL     1      42.647 -16.275   3.233  1.00  0.00     0.070 C 
HETATM   10  C   UNL     1      42.719 -12.803   4.609  1.00  0.00     0.153 A 
HETATM   11  N   UNL     1      42.270 -12.084   3.554  1.00  0.00    -0.073 NA
ENDROOT
BRANCH   1  12
HETATM   12  N   UNL     1      41.483 -11.997   1.387  1.00  0.00    -0.015 N 
HETATM   13  H   UNL     1      41.894 -11.085   1.318  1.00  0.00     0.203 HD
BRANCH  12  14
HETATM   14  C   UNL     1      40.469 -12.223   0.480  1.00  0.00     0.742 A 
HETATM   15  N   UNL     1      39.375 -11.462   0.641  1.00  0.00    -0.066 NA
HETATM   16  C   UNL     1      38.343 -11.644  -0.215  1.00  0.00     0.062 A 
HETATM   17  C   UNL     1      37.145 -10.772   0.023  1.00  0.00     0.072 C 
HETATM   18  C   UNL     1      38.377 -12.582  -1.252  1.00  0.00     0.018 A 
HETATM   19  C   UNL     1      39.563 -13.316  -1.333  1.00  0.00     0.088 A 
HETATM   20  C   UNL     1      37.337 -12.826  -2.184  1.00  0.00     0.016 A 
HETATM   21  N   UNL     1      40.581 -13.139  -0.488  1.00  0.00    -0.062 NA
HETATM   22  C   UNL     1      39.690 -14.270  -2.334  1.00  0.00     0.033 A 
HETATM   23  C   UNL     1      38.668 -14.514  -3.255  1.00  0.00     0.002 A 
HETATM   24  C   UNL     1      37.486 -13.790  -3.180  1.00  0.00     0.001 A 
ENDBRANCH  12  14
ENDBRANCH   1  12
BRANCH   8  25
HETATM   25  C   UNL     1      43.790 -18.377   4.048  1.00  0.00    -0.053 A 
HETATM   26  C   UNL     1      44.047 -19.201   5.155  1.00  0.00     0.007 A 
HETATM   27  C   UNL     1      44.109 -20.588   5.011  1.00  0.00     0.001 A 
HETATM   28  C   UNL     1      43.918 -21.171   3.761  1.00  0.00     0.000 A 
HETATM   29  C   UNL     1      43.666 -20.367   2.653  1.00  0.00     0.001 A 
HETATM   30  C   UNL     1      43.603 -18.978   2.794  1.00  0.00     0.007 A 
ENDBRANCH   8  25
TORSDOF 3
ENDMDL
MODEL 2
REMARK VINA RESULT:     -10.1      5.162      9.435
REMARK  3 active torsions:
REMARK  status: ('A' for Active; 'I' for Inactive)
REMARK    1  A    between atoms: C_4  and  N_5 
REMARK    2  A    between atoms: N_5  and  C_6 
REMARK    3  A    between atoms: C_13  and  C_14 
ROOT
HETATM    1  C   UNL     1      43.368 -12.425   6.226  1.00  0.00     0.741 A 
HETATM    2  N   UNL     1      42.864 -11.600   7.158  1.00  0.00    -0.066 NA
HETATM    3  C   UNL     1      43.685 -10.704   7.748  1.00  0.00     0.069 A 
HETATM    4  C   UNL     1      45.015 -10.603   7.413  1.00  0.00     0.053 A 
HETATM    5  C   UNL     1      45.899  -9.606   8.036  1.00  0.00     0.163 C 
HETATM    6  O   UNL     1      47.074  -9.536   7.693  1.00  0.00    -0.292 OA
HETATM    7  C   UNL     1      45.289  -8.647   9.036  1.00  0.00     0.093 C 
HETATM    8  C   UNL     1      44.098  -9.279   9.766  1.00  0.00     0.031 C 
HETATM    9  C   UNL     1      43.057  -9.781   8.754  1.00  0.00     0.070 C 
HETATM   10  C   UNL     1      45.461 -11.483   6.457  1.00  0.00     0.153 A 
HETATM   11  N   UNL     1      44.662 -12.395   5.856  1.00  0.00    -0.073 NA
ENDROOT
BRANCH   1  12
HETATM   12  N   UNL     1      42.580 -13.348   5.573  1.00  0.00    -0.015 N 
HETATM   13  H   UNL     1      41.600 -13.137   5.586  1.00  0.00     0.203 HD
BRANCH  12  14
HETATM   14  C   UNL     1      42.882 -14.561   4.991  1.00  0.00     0.742 A 
HETATM   15  N   UNL     1      42.919 -14.560   3.649  1.00  0.00    -0.066 NA
HETATM   16  C   UNL     1      43.203 -15.724   3.021  1.00  0.00     0.062 A 
HETATM   17  C   UNL     1      43.220 -15.661   1.522  1.00  0.00     0.072 C 
HETATM   18  C   UNL     1      43.460 -16.913   3.711  1.00  0.00     0.018 A 
HETATM   19  C   UNL     1      43.401 -16.801   5.102  1.00  0.00     0.088 A 
HETATM   20  C   UNL     1      43.764 -18.165   3.121  1.00  0.00     0.016 A 
HETATM   21  N   UNL     1      43.119 -15.654   5.724  1.00  0.00    -0.062 NA
HETATM   22  C   UNL     1      43.645 -17.931   5.873  1.00  0.00     0.033 A 
HETATM   23  C   UNL     1      43.945 -19.168   5.296  1.00  0.00     0.002 A 
HETATM   24  C   UNL     1      44.005 -19.286   3.914  1.00  0.00     0.001 A 
ENDBRANCH  12  14
ENDBRANCH   1  12
BRANCH   8  25
HETATM   25  C   UNL     1      43.484  -8.324  10.774  1.00  0.00    -0.053 A 
HETATM   26  C   UNL     1      43.538  -8.572  12.155  1.00  0.00     0.007 A 
HETATM   27  C   UNL     1      42.978  -7.673  13.064  1.00  0.00     0.001 A 
HETATM   28  C   UNL     1      42.355  -6.515  12.607  1.00  0.00     0.000 A 
HETATM   29  C   UNL     1      42.289  -6.256  11.240  1.00  0.00     0.001 A 
HETATM   30  C   UNL     1      42.849  -7.154  10.329  1.00  0.00     0.007 A 
ENDBRANCH   8  25
TORSDOF 3
ENDMDL
MODEL 3
REMARK VINA RESULT:     -10.0      5.300      9.498
REMARK  3 active torsions:
REMARK  status: ('A' for Active; 'I' for Inactive)
REMARK    1  A    between atoms: C_4  and  N_5 
REMARK    2  A    between atoms: N_5  and  C_6 
REMARK    3  A    between atoms: C_13  and  C_14 
ROOT
HETATM    1  C   UNL     1      43.464 -12.061   6.169  1.00  0.00     0.741 A 
HETATM    2  N   UNL     1      42.932 -11.307   7.145  1.00  0.00    -0.066 NA
HETATM    3  C   UNL     1      43.716 -10.405   7.772  1.00  0.00     0.069 A 
HETATM    4  C   UNL     1      45.037 -10.225   7.433  1.00  0.00     0.053 A 
HETATM    5  C   UNL     1      45.880  -9.220   8.098  1.00  0.00     0.163 C 
HETATM    6  O   UNL     1      47.048  -9.078   7.750  1.00  0.00    -0.292 OA
HETATM    7  C   UNL     1      45.236  -8.341   9.149  1.00  0.00     0.093 C 
HETATM    8  C   UNL     1      44.083  -9.063   9.856  1.00  0.00     0.031 C 
HETATM    9  C   UNL     1      43.057  -9.563   8.828  1.00  0.00     0.070 C 
HETATM   10  C   UNL     1      45.514 -11.035   6.431  1.00  0.00     0.153 A 
HETATM   11  N   UNL     1      44.752 -11.953   5.791  1.00  0.00    -0.073 NA
ENDROOT
BRANCH   1  12
HETATM   12  N   UNL     1      42.714 -12.986   5.477  1.00  0.00    -0.015 N 
HETATM   13  H   UNL     1      41.802 -12.664   5.214  1.00  0.00     0.203 HD
BRANCH  12  14
HETATM   14  C   UNL     1      42.950 -14.309   5.167  1.00  0.00     0.742 A 
HETATM   15  N   UNL     1      43.214 -15.106   6.214  1.00  0.00    -0.066 NA
HETATM   16  C   UNL     1      43.462 -16.413   5.969  1.00  0.00     0.062 A 
HETATM   17  C   UNL     1      43.761 -17.251   7.179  1.00  0.00     0.072 C 
HETATM   18  C   UNL     1      43.450 -16.958   4.681  1.00  0.00     0.018 A 
HETATM   19  C   UNL     1      43.159 -16.043   3.667  1.00  0.00     0.088 A 
HETATM   20  C   UNL     1      43.699 -18.314   4.352  1.00  0.00     0.016 A 
HETATM   21  N   UNL     1      42.917 -14.752   3.905  1.00  0.00    -0.062 NA
HETATM   22  C   UNL     1      43.121 -16.494   2.353  1.00  0.00     0.033 A 
HETATM   23  C   UNL     1      43.367 -17.829   2.023  1.00  0.00     0.002 A 
HETATM   24  C   UNL     1      43.657 -18.744   3.027  1.00  0.00     0.001 A 
ENDBRANCH  12  14
ENDBRANCH   1  12
BRANCH   8  25
HETATM   25  C   UNL     1      43.436  -8.189  10.915  1.00  0.00    -0.053 A 
HETATM   26  C   UNL     1      43.503  -8.510  12.281  1.00  0.00     0.007 A 
HETATM   27  C   UNL     1      42.912  -7.684  13.237  1.00  0.00     0.001 A 
HETATM   28  C   UNL     1      42.243  -6.527  12.845  1.00  0.00     0.000 A 
HETATM   29  C   UNL     1      42.163  -6.197  11.494  1.00  0.00     0.001 A 
HETATM   30  C   UNL     1      42.755  -7.022  10.535  1.00  0.00     0.007 A 
ENDBRANCH   8  25
TORSDOF 3
ENDMDL
MODEL 4
REMARK VINA RESULT:      -9.9      4.880      8.697
REMARK  3 active torsions:
REMARK  status: ('A' for Active; 'I' for Inactive)
REMARK    1  A    between atoms: C_4  and  N_5 
REMARK    2  A    between atoms: N_5  and  C_6 
REMARK    3  A    between atoms: C_13  and  C_14 
ROOT
HETATM    1  C   UNL     1      43.821 -12.266   6.906  1.00  0.00     0.741 A 
HETATM    2  N   UNL     1      44.202 -13.534   6.675  1.00  0.00    -0.066 NA
HETATM    3  C   UNL     1      43.456 -14.296   5.846  1.00  0.00     0.069 A 
HETATM    4  C   UNL     1      42.330 -13.811   5.223  1.00  0.00     0.053 A 
HETATM    5  C   UNL     1      41.539 -14.636   4.298  1.00  0.00     0.163 C 
HETATM    6  O   UNL     1      40.552 -14.157   3.747  1.00  0.00    -0.292 OA
HETATM    7  C   UNL     1      42.027 -16.039   4.006  1.00  0.00     0.093 C 
HETATM    8  C   UNL     1      42.798 -16.624   5.195  1.00  0.00     0.031 C 
HETATM    9  C   UNL     1      43.953 -15.693   5.593  1.00  0.00     0.070 C 
HETATM   10  C   UNL     1      41.999 -12.510   5.512  1.00  0.00     0.153 A 
HETATM   11  N   UNL     1      42.723 -11.726   6.345  1.00  0.00    -0.073 NA
ENDROOT
BRANCH   1  12
HETATM   12  N   UNL     1      44.548 -11.430   7.725  1.00  0.00    -0.015 N 
HETATM   13  H   UNL     1      45.541 -11.508   7.619  1.00  0.00     0.203 HD
BRANCH  12  14
HETATM   14  C   UNL     1      44.160 -10.576   8.737  1.00  0.00     0.742 A 
HETATM   15  N   UNL     1      44.099  -9.278   8.399  1.00  0.00    -0.066 NA
HETATM   16  C   UNL     1      43.732  -8.391   9.353  1.00  0.00     0.062 A 
HETATM   17  C   UNL     1      43.693  -6.955   8.918  1.00  0.00     0.072 C 
HETATM   18  C   UNL     1      43.414  -8.774  10.660  1.00  0.00     0.018 A 
HETATM   19  C   UNL     1      43.505 -10.146  10.902  1.00  0.00     0.088 A 
HETATM   20  C   UNL     1      43.023  -7.902  11.707  1.00  0.00     0.016 A 
HETATM   21  N   UNL     1      43.869 -11.023   9.963  1.00  0.00    -0.062 NA
HETATM   22  C   UNL     1      43.205 -10.621  12.172  1.00  0.00     0.033 A 
HETATM   23  C   UNL     1      42.819  -9.767  13.208  1.00  0.00     0.002 A 
HETATM   24  C   UNL     1      42.727  -8.401  12.975  1.00  0.00     0.001 A 
ENDBRANCH  12  14
ENDBRANCH   1  12
BRANCH   8  25
HETATM   25  C   UNL     1      43.286 -18.033   4.912  1.00  0.00    -0.053 A 
HETATM   26  C   UNL     1      43.492 -18.966   5.941  1.00  0.00     0.007 A 
HETATM   27  C   UNL     1      43.928 -20.260   5.653  1.00  0.00     0.001 A 
HETATM   28  C   UNL     1      44.169 -20.640   4.336  1.00  0.00     0.000 A 
HETATM   29  C   UNL     1      43.975 -19.725   3.304  1.00  0.00     0.001 A 
HETATM   30  C   UNL     1      43.537 -18.430   3.589  1.00  0.00     0.007 A 
ENDBRANCH   8  25
TORSDOF 3
ENDMDL
MODEL 5
REMARK VINA RESULT:      -9.8      2.287      2.727
REMARK  3 active torsions:
REMARK  status: ('A' for Active; 'I' for Inactive)
REMARK    1  A    between atoms: C_4  and  N_5 
REMARK    2  A    between atoms: N_5  and  C_6 
REMARK    3  A    between atoms: C_13  and  C_14 
ROOT
HETATM    1  C   UNL     1      39.974 -13.817   0.593  1.00  0.00     0.741 A 
HETATM    2  N   UNL     1      40.366 -15.070   0.877  1.00  0.00    -0.066 NA
HETATM    3  C   UNL     1      41.259 -15.264   1.871  1.00  0.00     0.069 A 
HETATM    4  C   UNL     1      41.767 -14.221   2.609  1.00  0.00     0.053 A 
HETATM    5  C   UNL     1      42.717 -14.440   3.711  1.00  0.00     0.163 C 
HETATM    6  O   UNL     1      43.129 -13.483   4.358  1.00  0.00    -0.292 OA
HETATM    7  C   UNL     1      43.091 -15.867   4.050  1.00  0.00     0.093 C 
HETATM    8  C   UNL     1      43.021 -16.774   2.815  1.00  0.00     0.031 C 
HETATM    9  C   UNL     1      41.631 -16.690   2.169  1.00  0.00     0.070 C 
HETATM   10  C   UNL     1      41.326 -12.969   2.260  1.00  0.00     0.153 A 
HETATM   11  N   UNL     1      40.438 -12.745   1.263  1.00  0.00    -0.073 NA
ENDROOT
BRANCH   1  12
HETATM   12  N   UNL     1      39.052 -13.553  -0.395  1.00  0.00    -0.015 N 
HETATM   13  H   UNL     1      38.392 -14.290  -0.552  1.00  0.00     0.203 HD
BRANCH  12  14
HETATM   14  C   UNL     1      38.933 -12.500  -1.278  1.00  0.00     0.742 A 
HETATM   15  N   UNL     1      37.688 -12.024  -1.438  1.00  0.00    -0.066 NA
HETATM   16  C   UNL     1      37.508 -10.995  -2.298  1.00  0.00     0.062 A 
HETATM   17  C   UNL     1      36.093 -10.515  -2.442  1.00  0.00     0.072 C 
HETATM   18  C   UNL     1      38.560 -10.414  -3.014  1.00  0.00     0.018 A 
HETATM   19  C   UNL     1      39.812 -10.981  -2.768  1.00  0.00     0.088 A 
HETATM   20  C   UNL     1      38.445  -9.337  -3.928  1.00  0.00     0.016 A 
HETATM   21  N   UNL     1      39.992 -11.998  -1.923  1.00  0.00    -0.062 NA
HETATM   22  C   UNL     1      40.919 -10.467  -3.433  1.00  0.00     0.033 A 
HETATM   23  C   UNL     1      40.811  -9.406  -4.335  1.00  0.00     0.002 A 
HETATM   24  C   UNL     1      39.569  -8.838  -4.584  1.00  0.00     0.001 A 
ENDBRANCH  12  14
ENDBRANCH   1  12
BRANCH   8  25
HETATM   25  C   UNL     1      43.401 -18.206   3.146  1.00  0.00    -0.053 A 
HETATM   26  C   UNL     1      43.910 -18.565   4.404  1.00  0.00     0.007 A 
HETATM   27  C   UNL     1      44.240 -19.891   4.688  1.00  0.00     0.001 A 
HETATM   28  C   UNL     1      44.069 -20.877   3.720  1.00  0.00     0.000 A 
HETATM   29  C   UNL     1      43.570 -20.536   2.465  1.00  0.00     0.001 A 
HETATM   30  C   UNL     1      43.238 -19.210   2.179  1.00  0.00     0.007 A 
ENDBRANCH   8  25
TORSDOF 3
ENDMDL
MODEL 6
REMARK VINA RESULT:      -9.7      3.675      7.761
REMARK  3 active torsions:
REMARK  status: ('A' for Active; 'I' for Inactive)
REMARK    1  A    between atoms: C_4  and  N_5 
REMARK    2  A    between atoms: N_5  and  C_6 
REMARK    3  A    between atoms: C_13  and  C_14 
ROOT
HETATM    1  C   UNL     1      41.610 -11.728   4.478  1.00  0.00     0.741 A 
HETATM    2  N   UNL     1      42.171 -12.936   4.651  1.00  0.00    -0.066 NA
HETATM    3  C   UNL     1      42.135 -13.822   3.633  1.00  0.00     0.069 A 
HETATM    4  C   UNL     1      41.553 -13.521   2.423  1.00  0.00     0.053 A 
HETATM    5  C   UNL     1      41.543 -14.479   1.307  1.00  0.00     0.163 C 
HETATM    6  O   UNL     1      41.032 -14.161   0.238  1.00  0.00    -0.292 OA
HETATM    7  C   UNL     1      42.239 -15.807   1.508  1.00  0.00     0.093 C 
HETATM    8  C   UNL     1      42.211 -16.239   2.979  1.00  0.00     0.031 C 
HETATM    9  C   UNL     1      42.814 -15.142   3.869  1.00  0.00     0.070 C 
HETATM   10  C   UNL     1      40.994 -12.271   2.322  1.00  0.00     0.153 A 
HETATM   11  N   UNL     1      41.010 -11.366   3.329  1.00  0.00    -0.073 NA
ENDROOT
BRANCH   1  12
HETATM   12  N   UNL     1      41.629 -10.772   5.470  1.00  0.00    -0.015 N 
HETATM   13  H   UNL     1      40.915 -10.075   5.385  1.00  0.00     0.203 HD
BRANCH  12  14
HETATM   14  C   UNL     1      42.514 -10.543   6.503  1.00  0.00     0.742 A 
HETATM   15  N   UNL     1      43.787 -10.888   6.256  1.00  0.00    -0.066 NA
HETATM   16  C   UNL     1      44.699 -10.694   7.235  1.00  0.00     0.062 A 
HETATM   17  C   UNL     1      46.103 -11.109   6.903  1.00  0.00     0.072 C 
HETATM   18  C   UNL     1      44.368 -10.149   8.481  1.00  0.00     0.018 A 
HETATM   19  C   UNL     1      43.019  -9.821   8.630  1.00  0.00     0.088 A 
HETATM   20  C   UNL     1      45.269  -9.917   9.550  1.00  0.00     0.016 A 
HETATM   21  N   UNL     1      42.117 -10.014   7.666  1.00  0.00    -0.062 NA
HETATM   22  C   UNL     1      42.596  -9.270   9.834  1.00  0.00     0.033 A 
HETATM   23  C   UNL     1      43.480  -9.040  10.891  1.00  0.00     0.002 A 
HETATM   24  C   UNL     1      44.822  -9.365  10.749  1.00  0.00     0.001 A 
ENDBRANCH  12  14
ENDBRANCH   1  12
BRANCH   8  25
HETATM   25  C   UNL     1      42.903 -17.574   3.187  1.00  0.00    -0.053 A 
HETATM   26  C   UNL     1      42.923 -18.562   2.190  1.00  0.00     0.007 A 
HETATM   27  C   UNL     1      43.577 -19.776   2.401  1.00  0.00     0.001 A 
HETATM   28  C   UNL     1      44.219 -20.023   3.611  1.00  0.00     0.000 A 
HETATM   29  C   UNL     1      44.205 -19.056   4.613  1.00  0.00     0.001 A 
HETATM   30  C   UNL     1      43.551 -17.839   4.404  1.00  0.00     0.007 A 
ENDBRANCH   8  25
TORSDOF 3
ENDMDL
MODEL 7
REMARK VINA RESULT:      -9.5      3.571      9.264
REMARK  3 active torsions:
REMARK  status: ('A' for Active; 'I' for Inactive)
REMARK    1  A    between atoms: C_4  and  N_5 
REMARK    2  A    between atoms: N_5  and  C_6 
REMARK    3  A    between atoms: C_13  and  C_14 
ROOT
HETATM    1  C   UNL     1      40.229 -14.044   1.424  1.00  0.00     0.741 A 
HETATM    2  N   UNL     1      40.567 -12.774   1.145  1.00  0.00    -0.066 NA
HETATM    3  C   UNL     1      40.539 -12.361  -0.140  1.00  0.00     0.069 A 
HETATM    4  C   UNL     1      40.162 -13.194  -1.167  1.00  0.00     0.053 A 
HETATM    5  C   UNL     1      40.104 -12.731  -2.562  1.00  0.00     0.163 C 
HETATM    6  O   UNL     1      39.742 -13.502  -3.445  1.00  0.00    -0.292 OA
HETATM    7  C   UNL     1      40.428 -11.279  -2.839  1.00  0.00     0.093 C 
HETATM    8  C   UNL     1      41.421 -10.719  -1.814  1.00  0.00     0.031 C 
HETATM    9  C   UNL     1      40.888 -10.920  -0.388  1.00  0.00     0.070 C 
HETATM   10  C   UNL     1      39.837 -14.479  -0.807  1.00  0.00     0.153 A 
HETATM   11  N   UNL     1      39.864 -14.922   0.471  1.00  0.00    -0.073 NA
ENDROOT
BRANCH   1  12
HETATM   12  N   UNL     1      40.219 -14.523   2.716  1.00  0.00    -0.015 N 
HETATM   13  H   UNL     1      39.523 -14.107   3.305  1.00  0.00     0.203 HD
BRANCH  12  14
HETATM   14  C   UNL     1      41.056 -15.401   3.373  1.00  0.00     0.742 A 
HETATM   15  N   UNL     1      41.042 -15.312   4.713  1.00  0.00    -0.066 NA
HETATM   16  C   UNL     1      41.849 -16.142   5.412  1.00  0.00     0.062 A 
HETATM   17  C   UNL     1      41.797 -15.988   6.904  1.00  0.00     0.072 C 
HETATM   18  C   UNL     1      42.684 -17.082   4.797  1.00  0.00     0.018 A 
HETATM   19  C   UNL     1      42.616 -17.093   3.402  1.00  0.00     0.088 A 
HETATM   20  C   UNL     1      43.552 -17.981   5.465  1.00  0.00     0.016 A 
HETATM   21  N   UNL     1      41.823 -16.273   2.710  1.00  0.00    -0.062 NA
HETATM   22  C   UNL     1      43.408 -17.996   2.704  1.00  0.00     0.033 A 
HETATM   23  C   UNL     1      44.266 -18.885   3.357  1.00  0.00     0.002 A 
HETATM   24  C   UNL     1      44.339 -18.878   4.743  1.00  0.00     0.001 A 
ENDBRANCH  12  14
ENDBRANCH   1  12
BRANCH   8  25
HETATM   25  C   UNL     1      41.755  -9.264  -2.089  1.00  0.00    -0.053 A 
HETATM   26  C   UNL     1      41.106  -8.534  -3.097  1.00  0.00     0.007 A 
HETATM   27  C   UNL     1      41.421  -7.193  -3.321  1.00  0.00     0.001 A 
HETATM   28  C   UNL     1      42.391  -6.563  -2.546  1.00  0.00     0.000 A 
HETATM   29  C   UNL     1      43.048  -7.275  -1.545  1.00  0.00     0.001 A 
HETATM   30  C   UNL     1      42.733  -8.617  -1.318  1.00  0.00     0.007 A 
ENDBRANCH   8  25
TORSDOF 3
ENDMDL
MODEL 8
REMARK VINA RESULT:      -9.3      1.491      2.426
REMARK  3 active torsions:
REMARK  status: ('A' for Active; 'I' for Inactive)
REMARK    1  A    between atoms: C_4  and  N_5 
REMARK    2  A    between atoms: N_5  and  C_6 
REMARK    3  A    between atoms: C_13  and  C_14 
ROOT
HETATM    1  C   UNL     1      41.682 -13.332   1.132  1.00  0.00     0.741 A 
HETATM    2  N   UNL     1      41.901 -14.650   1.278  1.00  0.00    -0.066 NA
HETATM    3  C   UNL     1      42.312 -15.113   2.477  1.00  0.00     0.069 A 
HETATM    4  C   UNL     1      42.500 -14.281   3.556  1.00  0.00     0.053 A 
HETATM    5  C   UNL     1      42.918 -14.794   4.869  1.00  0.00     0.163 C 
HETATM    6  O   UNL     1      43.053 -14.019   5.811  1.00  0.00    -0.292 OA
HETATM    7  C   UNL     1      43.094 -16.290   5.021  1.00  0.00     0.093 C 
HETATM    8  C   UNL     1      43.510 -16.944   3.698  1.00  0.00     0.031 C 
HETATM    9  C   UNL     1      42.501 -16.600   2.592  1.00  0.00     0.070 C 
HETATM   10  C   UNL     1      42.263 -12.947   3.331  1.00  0.00     0.153 A 
HETATM   11  N   UNL     1      41.859 -12.454   2.137  1.00  0.00    -0.073 NA
ENDROOT
BRANCH   1  12
HETATM   12  N   UNL     1      41.244 -12.798  -0.059  1.00  0.00    -0.015 N 
HETATM   13  H   UNL     1      41.894 -12.890  -0.817  1.00  0.00     0.203 HD
BRANCH  12  14
HETATM   14  C   UNL     1      40.116 -12.071  -0.377  1.00  0.00     0.742 A 
HETATM   15  N   UNL     1      40.067 -11.608  -1.636  1.00  0.00    -0.066 NA
HETATM   16  C   UNL     1      38.987 -10.881  -2.003  1.00  0.00     0.062 A 
HETATM   17  C   UNL     1      38.995 -10.383  -3.419  1.00  0.00     0.072 C 
HETATM   18  C   UNL     1      37.930 -10.602  -1.130  1.00  0.00     0.018 A 
HETATM   19  C   UNL     1      38.080 -11.135   0.152  1.00  0.00     0.088 A 
HETATM   20  C   UNL     1      36.771  -9.850  -1.446  1.00  0.00     0.016 A 
HETATM   21  N   UNL     1      39.146 -11.850   0.517  1.00  0.00    -0.062 NA
HETATM   22  C   UNL     1      37.078 -10.911   1.089  1.00  0.00     0.033 A 
HETATM   23  C   UNL     1      35.934 -10.171   0.783  1.00  0.00     0.002 A 
HETATM   24  C   UNL     1      35.779  -9.637  -0.490  1.00  0.00     0.001 A 
ENDBRANCH  12  14
ENDBRANCH   1  12
BRANCH   8  25
HETATM   25  C   UNL     1      43.694 -18.443   3.843  1.00  0.00    -0.053 A 
HETATM   26  C   UNL     1      43.980 -19.037   5.083  1.00  0.00     0.007 A 
HETATM   27  C   UNL     1      44.131 -20.420   5.193  1.00  0.00     0.001 A 
HETATM   28  C   UNL     1      44.004 -21.229   4.068  1.00  0.00     0.000 A 
HETATM   29  C   UNL     1      43.726 -20.656   2.830  1.00  0.00     0.001 A 
HETATM   30  C   UNL     1      43.572 -19.272   2.717  1.00  0.00     0.007 A 
ENDBRANCH   8  25
TORSDOF 3
ENDMDL
MODEL 9
REMARK VINA RESULT:      -9.3      4.678      8.523
REMARK  3 active torsions:
REMARK  status: ('A' for Active; 'I' for Inactive)
REMARK    1  A    between atoms: C_4  and  N_5 
REMARK    2  A    between atoms: N_5  and  C_6 
REMARK    3  A    between atoms: C_13  and  C_14 
ROOT
HETATM    1  C   UNL     1      41.911 -10.800   5.765  1.00  0.00     0.741 A 
HETATM    2  N   UNL     1      42.568 -11.949   5.533  1.00  0.00    -0.066 NA
HETATM    3  C   UNL     1      41.994 -12.878   4.739  1.00  0.00     0.069 A 
HETATM    4  C   UNL     1      40.767 -12.678   4.151  1.00  0.00     0.053 A 
HETATM    5  C   UNL     1      40.160 -13.680   3.262  1.00  0.00     0.163 C 
HETATM    6  O   UNL     1      39.073 -13.453   2.741  1.00  0.00    -0.292 OA
HETATM    7  C   UNL     1      40.951 -14.937   2.967  1.00  0.00     0.093 C 
HETATM    8  C   UNL     1      41.874 -15.306   4.134  1.00  0.00     0.031 C 
HETATM    9  C   UNL     1      42.793 -14.125   4.483  1.00  0.00     0.070 C 
HETATM   10  C   UNL     1      40.152 -11.484   4.438  1.00  0.00     0.153 A 
HETATM   11  N   UNL     1      40.700 -10.539   5.237  1.00  0.00    -0.073 NA
ENDROOT
BRANCH   1  12
HETATM   12  N   UNL     1      42.449  -9.804   6.550  1.00  0.00    -0.015 N 
HETATM   13  H   UNL     1      42.866  -9.052   6.035  1.00  0.00     0.203 HD
BRANCH  12  14
HETATM   14  C   UNL     1      42.606  -9.700   7.917  1.00  0.00     0.742 A 
HETATM   15  N   UNL     1      43.852  -9.908   8.369  1.00  0.00    -0.066 NA
HETATM   16  C   UNL     1      44.066  -9.827   9.702  1.00  0.00     0.062 A 
HETATM   17  C   UNL     1      45.477 -10.080  10.146  1.00  0.00     0.072 C 
HETATM   18  C   UNL     1      43.048  -9.533  10.615  1.00  0.00     0.018 A 
HETATM   19  C   UNL     1      41.792  -9.330  10.038  1.00  0.00     0.088 A 
HETATM   20  C   UNL     1      43.198  -9.432  12.021  1.00  0.00     0.016 A 
HETATM   21  N   UNL     1      41.579  -9.412   8.723  1.00  0.00    -0.062 NA
HETATM   22  C   UNL     1      40.718  -9.030  10.867  1.00  0.00     0.033 A 
HETATM   23  C   UNL     1      40.862  -8.929  12.253  1.00  0.00     0.002 A 
HETATM   24  C   UNL     1      42.107  -9.131  12.833  1.00  0.00     0.001 A 
ENDBRANCH  12  14
ENDBRANCH   1  12
BRANCH   8  25
HETATM   25  C   UNL     1      42.667 -16.568   3.848  1.00  0.00    -0.053 A 
HETATM   26  C   UNL     1      43.579 -17.096   4.777  1.00  0.00     0.007 A 
HETATM   27  C   UNL     1      44.286 -18.266   4.495  1.00  0.00     0.001 A 
HETATM   28  C   UNL     1      44.096 -18.924   3.283  1.00  0.00     0.000 A 
HETATM   29  C   UNL     1      43.199 -18.411   2.349  1.00  0.00     0.001 A 
HETATM   30  C   UNL     1      42.489 -17.240   2.629  1.00  0.00     0.007 A 
ENDBRANCH   8  25
TORSDOF 3
ENDMDL
MODEL 10
REMARK VINA RESULT:      -9.3      3.636      7.334
REMARK  3 active torsions:
REMARK  status: ('A' for Active; 'I' for Inactive)
REMARK    1  A    between atoms: C_4  and  N_5 
REMARK    2  A    between atoms: N_5  and  C_6 
REMARK    3  A    between atoms: C_13  and  C_14 
ROOT
HETATM    1  C   UNL     1      40.991 -11.848   4.601  1.00  0.00     0.741 A 
HETATM    2  N   UNL     1      41.616 -13.025   4.772  1.00  0.00    -0.066 NA
HETATM    3  C   UNL     1      41.751 -13.851   3.713  1.00  0.00     0.069 A 
HETATM    4  C   UNL     1      41.282 -13.518   2.463  1.00  0.00     0.053 A 
HETATM    5  C   UNL     1      41.458 -14.407   1.305  1.00  0.00     0.163 C 
HETATM    6  O   UNL     1      41.043 -14.063   0.204  1.00  0.00    -0.292 OA
HETATM    7  C   UNL     1      42.223 -15.697   1.514  1.00  0.00     0.093 C 
HETATM    8  C   UNL     1      42.069 -16.215   2.949  1.00  0.00     0.031 C 
HETATM    9  C   UNL     1      42.494 -15.135   3.955  1.00  0.00     0.070 C 
HETATM   10  C   UNL     1      40.649 -12.303   2.365  1.00  0.00     0.153 A 
HETATM   11  N   UNL     1      40.492 -11.460   3.412  1.00  0.00    -0.073 NA
ENDROOT
BRANCH   1  12
HETATM   12  N   UNL     1      40.837 -10.952   5.636  1.00  0.00    -0.015 N 
HETATM   13  H   UNL     1      39.941 -10.504   5.664  1.00  0.00     0.203 HD
BRANCH  12  14
HETATM   14  C   UNL     1      41.725 -10.486   6.583  1.00  0.00     0.742 A 
HETATM   15  N   UNL     1      41.180  -9.761   7.572  1.00  0.00    -0.066 NA
HETATM   16  C   UNL     1      42.004  -9.269   8.526  1.00  0.00     0.062 A 
HETATM   17  C   UNL     1      41.337  -8.459   9.600  1.00  0.00     0.072 C 
HETATM   18  C   UNL     1      43.385  -9.491   8.521  1.00  0.00     0.018 A 
HETATM   19  C   UNL     1      43.845 -10.261   7.451  1.00  0.00     0.088 A 
HETATM   20  C   UNL     1      44.305  -9.009   9.486  1.00  0.00     0.016 A 
HETATM   21  N   UNL     1      43.035 -10.745   6.507  1.00  0.00    -0.062 NA
HETATM   22  C   UNL     1      45.204 -10.536   7.363  1.00  0.00     0.033 A 
HETATM   23  C   UNL     1      46.116 -10.064   8.311  1.00  0.00     0.002 A 
HETATM   24  C   UNL     1      45.665  -9.297   9.377  1.00  0.00     0.001 A 
ENDBRANCH  12  14
ENDBRANCH   1  12
BRANCH   8  25
HETATM   25  C   UNL     1      42.829 -17.512   3.164  1.00  0.00    -0.053 A 
HETATM   26  C   UNL     1      43.545 -17.762   4.345  1.00  0.00     0.007 A 
HETATM   27  C   UNL     1      44.225 -18.968   4.525  1.00  0.00     0.001 A 
HETATM   28  C   UNL     1      44.201 -19.939   3.528  1.00  0.00     0.000 A 
HETATM   29  C   UNL     1      43.498 -19.705   2.348  1.00  0.00     0.001 A 
HETATM   30  C   UNL     1      42.817 -18.499   2.167  1.00  0.00     0.007 A 
ENDBRANCH   8  25
TORSDOF 3
ENDMDL
