MODEL 1
REMARK VINA RESULT:      -8.8      0.000      0.000
REMARK  5 active torsions:
REMARK  status: ('A' for Active; 'I' for Inactive)
REMARK    1  A    between atoms: C_4  and  N_5 
REMARK       I    between atoms: N_5  and  C_6 
REMARK       I    between atoms: C_6  and  N_7 
REMARK    2  A    between atoms: N_7  and  C_8 
REMARK    3  A    between atoms: C_17  and  C_18 
REMARK       I    between atoms: C_18  and  N_19 
REMARK    4  A    between atoms: N_19  and  C_20 
REMARK    5  A    between atoms: C_20  and  C_21 
ROOT
HETATM    1  C   UNL     1      43.191 -15.056   7.214  1.00  0.00     0.072 C 
HETATM    2  C   UNL     1      43.473 -13.688   6.703  1.00  0.00     0.056 C 
HETATM    3  N   UNL     1      43.911 -12.719   7.608  1.00  0.00    -0.228 NA
HETATM    4  C   UNL     1      44.030 -11.564   6.999  1.00  0.00     0.175 C 
HETATM    5  S   UNL     1      43.804 -11.596   5.319  1.00  0.00    -0.044 SA
HETATM    6  C   UNL     1      43.293 -13.230   5.407  1.00  0.00     0.100 C 
ENDROOT
BRANCH   4   7
HETATM    7  N   UNL     1      44.301 -10.408   7.690  1.00  0.00    -0.287 N 
HETATM    8  C   UNL     1      43.382  -9.654   8.395  1.00  0.00     0.326 C 
HETATM    9  N   UNL     1      44.011  -8.650   9.118  1.00  0.00    -0.309 N 
HETATM   10  O   UNL     1      42.173  -9.847   8.410  1.00  0.00    -0.247 OA
HETATM   11  H   UNL     1      44.988  -8.493   8.921  1.00  0.00     0.170 HD
HETATM   12  H   UNL     1      45.287 -10.258   7.827  1.00  0.00     0.172 HD
BRANCH   9  13
HETATM   13  C   UNL     1      43.422  -7.786  10.070  1.00  0.00     0.037 A 
HETATM   14  C   UNL     1      43.253  -8.105  11.421  1.00  0.00     0.053 A 
HETATM   15  C   UNL     1      42.681  -7.179  12.297  1.00  0.00     0.036 A 
HETATM   16 CL   UNL     1      42.481  -7.585  13.959  1.00  0.00    -0.084 Cl
HETATM   17  C   UNL     1      42.275  -5.928  11.843  1.00  0.00     0.024 A 
HETATM   18  C   UNL     1      42.440  -5.600  10.500  1.00  0.00     0.004 A 
HETATM   19  C   UNL     1      43.010  -6.525   9.620  1.00  0.00     0.029 A 
ENDBRANCH   9  13
ENDBRANCH   4   7
BRANCH   6  20
HETATM   20  C   UNL     1      42.717 -13.905   4.256  1.00  0.00     0.260 C 
HETATM   21  N   UNL     1      43.154 -15.198   4.074  1.00  0.00    -0.352 N 
HETATM   22  H   UNL     1      43.748 -15.605   4.786  1.00  0.00     0.163 HD
HETATM   23  O   UNL     1      41.946 -13.368   3.468  1.00  0.00    -0.267 OA
BRANCH  21  24
HETATM   24  C   UNL     1      42.961 -15.929   2.846  1.00  0.00     0.161 C 
BRANCH  24  25
HETATM   25  C   UNL     1      43.278 -17.394   3.039  1.00  0.00    -0.040 A 
HETATM   26  C   UNL     1      43.914 -17.835   4.210  1.00  0.00     0.012 A 
HETATM   27  C   UNL     1      44.212 -19.189   4.386  1.00  0.00     0.043 A 
HETATM   28  C   UNL     1      43.875 -20.103   3.395  1.00  0.00     0.116 A 
HETATM   29  F   UNL     1      44.172 -21.399   3.563  1.00  0.00    -0.206 F 
HETATM   30  C   UNL     1      43.232 -19.694   2.235  1.00  0.00     0.043 A 
HETATM   31  C   UNL     1      42.922 -18.344   2.062  1.00  0.00     0.012 A 
ENDBRANCH  24  25
ENDBRANCH  21  24
ENDBRANCH   6  20
TORSDOF 5
ENDMDL
MODEL 2
REMARK VINA RESULT:      -8.7      1.599      2.431
REMARK  5 active torsions:
REMARK  status: ('A' for Active; 'I' for Inactive)
REMARK    1  A    between atoms: C_4  and  N_5 
REMARK       I    between atoms: N_5  and  C_6 
REMARK       I    between atoms: C_6  and  N_7 
REMARK    2  A    between atoms: N_7  and  C_8 
REMARK    3  A    between atoms: C_17  and  C_18 
REMARK       I    between atoms: C_18  and  N_19 
REMARK    4  A    between atoms: N_19  and  C_20 
REMARK    5  A    between atoms: C_20  and  C_21 
ROOT
HETATM    1  C   UNL     1      42.060 -11.775   2.177  1.00  0.00     0.072 C 
HETATM    2  C   UNL     1      42.374 -12.160   3.580  1.00  0.00     0.056 C 
HETATM    3  N   UNL     1      42.810 -11.168   4.458  1.00  0.00    -0.228 NA
HETATM    4  C   UNL     1      43.113 -11.701   5.617  1.00  0.00     0.175 C 
HETATM    5  S   UNL     1      42.742 -13.347   5.783  1.00  0.00    -0.044 SA
HETATM    6  C   UNL     1      42.339 -13.437   4.119  1.00  0.00     0.100 C 
ENDROOT
BRANCH   4   7
HETATM    7  N   UNL     1      43.710 -10.970   6.615  1.00  0.00    -0.287 N 
HETATM    8  C   UNL     1      43.053 -10.185   7.545  1.00  0.00     0.326 C 
HETATM    9  N   UNL     1      43.930  -9.724   8.515  1.00  0.00    -0.309 N 
HETATM   10  O   UNL     1      41.853  -9.941   7.540  1.00  0.00    -0.247 OA
HETATM   11  H   UNL     1      44.914  -9.867   8.343  1.00  0.00     0.170 HD
HETATM   12  H   UNL     1      44.674 -11.220   6.759  1.00  0.00     0.172 HD
BRANCH   9  13
HETATM   13  C   UNL     1      43.601  -9.030   9.703  1.00  0.00     0.037 A 
HETATM   14  C   UNL     1      43.187  -7.695   9.744  1.00  0.00     0.053 A 
HETATM   15  C   UNL     1      42.858  -7.096  10.962  1.00  0.00     0.036 A 
HETATM   16 CL   UNL     1      42.349  -5.451  10.996  1.00  0.00    -0.084 Cl
HETATM   17  C   UNL     1      42.934  -7.816  12.151  1.00  0.00     0.024 A 
HETATM   18  C   UNL     1      43.342  -9.146  12.122  1.00  0.00     0.004 A 
HETATM   19  C   UNL     1      43.675  -9.748  10.904  1.00  0.00     0.029 A 
ENDBRANCH   9  13
ENDBRANCH   4   7
BRANCH   6  20
HETATM   20  C   UNL     1      42.085 -14.712   3.470  1.00  0.00     0.260 C 
HETATM   21  N   UNL     1      43.215 -15.372   3.044  1.00  0.00    -0.352 N 
HETATM   22  H   UNL     1      44.117 -14.984   3.294  1.00  0.00     0.163 HD
HETATM   23  O   UNL     1      40.961 -15.156   3.260  1.00  0.00    -0.267 OA
BRANCH  21  24
HETATM   24  C   UNL     1      43.181 -16.475   2.116  1.00  0.00     0.161 C 
BRANCH  24  25
HETATM   25  C   UNL     1      43.452 -17.781   2.826  1.00  0.00    -0.040 A 
HETATM   26  C   UNL     1      43.284 -19.003   2.156  1.00  0.00     0.012 A 
HETATM   27  C   UNL     1      43.530 -20.211   2.814  1.00  0.00     0.043 A 
HETATM   28  C   UNL     1      43.944 -20.201   4.140  1.00  0.00     0.116 A 
HETATM   29  F   UNL     1      44.169 -21.362   4.771  1.00  0.00    -0.206 F 
HETATM   30  C   UNL     1      44.133 -19.006   4.820  1.00  0.00     0.043 A 
HETATM   31  C   UNL     1      43.900 -17.798   4.162  1.00  0.00     0.012 A 
ENDBRANCH  24  25
ENDBRANCH  21  24
ENDBRANCH   6  20
TORSDOF 5
ENDMDL
MODEL 3
REMARK VINA RESULT:      -8.6      3.012      3.336
REMARK  5 active torsions:
REMARK  status: ('A' for Active; 'I' for Inactive)
REMARK    1  A    between atoms: C_4  and  N_5 
REMARK       I    between atoms: N_5  and  C_6 
REMARK       I    between atoms: C_6  and  N_7 
REMARK    2  A    between atoms: N_7  and  C_8 
REMARK    3  A    between atoms: C_17  and  C_18 
REMARK       I    between atoms: C_18  and  N_19 
REMARK    4  A    between atoms: N_19  and  C_20 
REMARK    5  A    between atoms: C_20  and  C_21 
ROOT
HETATM    1  C   UNL     1      38.972 -12.749   2.471  1.00  0.00     0.072 C 
HETATM    2  C   UNL     1      39.690 -12.809   3.772  1.00  0.00     0.056 C 
HETATM    3  N   UNL     1      39.647 -11.691   4.606  1.00  0.00    -0.228 NA
HETATM    4  C   UNL     1      40.395 -11.895   5.663  1.00  0.00     0.175 C 
HETATM    5  S   UNL     1      41.040 -13.456   5.812  1.00  0.00    -0.044 SA
HETATM    6  C   UNL     1      40.469 -13.855   4.245  1.00  0.00     0.100 C 
ENDROOT
BRANCH   4   7
HETATM    7  N   UNL     1      40.649 -10.897   6.572  1.00  0.00    -0.287 N 
HETATM    8  C   UNL     1      39.824 -10.529   7.619  1.00  0.00     0.326 C 
HETATM    9  N   UNL     1      40.451  -9.610   8.447  1.00  0.00    -0.309 N 
HETATM   10  O   UNL     1      38.697 -10.964   7.816  1.00  0.00    -0.247 OA
HETATM   11  H   UNL     1      41.318  -9.214   8.113  1.00  0.00     0.170 HD
HETATM   12  H   UNL     1      41.605 -10.583   6.550  1.00  0.00     0.172 HD
BRANCH   9  13
HETATM   13  C   UNL     1      39.986  -9.126   9.693  1.00  0.00     0.037 A 
HETATM   14  C   UNL     1      40.390  -9.632  10.932  1.00  0.00     0.053 A 
HETATM   15  C   UNL     1      39.895  -9.076  12.114  1.00  0.00     0.036 A 
HETATM   16 CL   UNL     1      40.403  -9.709  13.634  1.00  0.00    -0.084 Cl
HETATM   17  C   UNL     1      38.999  -8.012  12.079  1.00  0.00     0.024 A 
HETATM   18  C   UNL     1      38.592  -7.499  10.851  1.00  0.00     0.004 A 
HETATM   19  C   UNL     1      39.083  -8.055   9.665  1.00  0.00     0.029 A 
ENDBRANCH   9  13
ENDBRANCH   4   7
BRANCH   6  20
HETATM   20  C   UNL     1      40.858 -15.092   3.590  1.00  0.00     0.260 C 
HETATM   21  N   UNL     1      42.173 -15.137   3.187  1.00  0.00    -0.352 N 
HETATM   22  H   UNL     1      42.780 -14.371   3.455  1.00  0.00     0.163 HD
HETATM   23  O   UNL     1      40.080 -16.011   3.357  1.00  0.00    -0.267 OA
BRANCH  21  24
HETATM   24  C   UNL     1      42.679 -16.116   2.258  1.00  0.00     0.161 C 
BRANCH  24  25
HETATM   25  C   UNL     1      43.215 -17.324   2.990  1.00  0.00    -0.040 A 
HETATM   26  C   UNL     1      43.661 -17.211   4.317  1.00  0.00     0.012 A 
HETATM   27  C   UNL     1      44.162 -18.327   4.992  1.00  0.00     0.043 A 
HETATM   28  C   UNL     1      44.217 -19.556   4.346  1.00  0.00     0.116 A 
HETATM   29  F   UNL     1      44.707 -20.621   4.994  1.00  0.00    -0.206 F 
HETATM   30  C   UNL     1      43.767 -19.696   3.040  1.00  0.00     0.043 A 
HETATM   31  C   UNL     1      43.256 -18.587   2.367  1.00  0.00     0.012 A 
ENDBRANCH  24  25
ENDBRANCH  21  24
ENDBRANCH   6  20
TORSDOF 5
ENDMDL
MODEL 4
REMARK VINA RESULT:      -8.5      2.121      2.806
REMARK  5 active torsions:
REMARK  status: ('A' for Active; 'I' for Inactive)
REMARK    1  A    between atoms: C_4  and  N_5 
REMARK       I    between atoms: N_5  and  C_6 
REMARK       I    between atoms: C_6  and  N_7 
REMARK    2  A    between atoms: N_7  and  C_8 
REMARK    3  A    between atoms: C_17  and  C_18 
REMARK       I    between atoms: C_18  and  N_19 
REMARK    4  A    between atoms: N_19  and  C_20 
REMARK    5  A    between atoms: C_20  and  C_21 
ROOT
HETATM    1  C   UNL     1      46.478 -11.568   5.798  1.00  0.00     0.072 C 
HETATM    2  C   UNL     1      45.144 -11.280   6.390  1.00  0.00     0.056 C 
HETATM    3  N   UNL     1      45.073 -10.990   7.754  1.00  0.00    -0.228 NA
HETATM    4  C   UNL     1      43.820 -10.844   8.112  1.00  0.00     0.175 C 
HETATM    5  S   UNL     1      42.690 -10.868   6.848  1.00  0.00    -0.044 SA
HETATM    6  C   UNL     1      43.919 -11.323   5.742  1.00  0.00     0.100 C 
ENDROOT
BRANCH   4   7
HETATM    7  N   UNL     1      43.458 -10.701   9.429  1.00  0.00    -0.287 N 
HETATM    8  C   UNL     1      43.324  -9.502  10.105  1.00  0.00     0.326 C 
HETATM    9  N   UNL     1      42.778  -9.700  11.365  1.00  0.00    -0.309 N 
HETATM   10  O   UNL     1      43.618  -8.402   9.656  1.00  0.00    -0.247 OA
HETATM   11  H   UNL     1      42.708 -10.654  11.685  1.00  0.00     0.170 HD
HETATM   12  H   UNL     1      43.080 -11.546   9.824  1.00  0.00     0.172 HD
BRANCH   9  13
HETATM   13  C   UNL     1      42.353  -8.705  12.276  1.00  0.00     0.037 A 
HETATM   14  C   UNL     1      41.024  -8.295  12.428  1.00  0.00     0.053 A 
HETATM   15  C   UNL     1      40.691  -7.320  13.371  1.00  0.00     0.036 A 
HETATM   16 CL   UNL     1      39.050  -6.826  13.547  1.00  0.00    -0.084 Cl
HETATM   17  C   UNL     1      41.670  -6.746  14.175  1.00  0.00     0.024 A 
HETATM   18  C   UNL     1      42.996  -7.148  14.035  1.00  0.00     0.004 A 
HETATM   19  C   UNL     1      43.334  -8.121  13.090  1.00  0.00     0.029 A 
ENDBRANCH   9  13
ENDBRANCH   4   7
BRANCH   6  20
HETATM   20  C   UNL     1      43.601 -11.732   4.385  1.00  0.00     0.260 C 
HETATM   21  N   UNL     1      42.883 -12.902   4.293  1.00  0.00    -0.352 N 
HETATM   22  H   UNL     1      42.552 -13.327   5.152  1.00  0.00     0.163 HD
HETATM   23  O   UNL     1      43.980 -11.128   3.387  1.00  0.00    -0.267 OA
BRANCH  21  24
HETATM   24  C   UNL     1      42.736 -13.643   3.065  1.00  0.00     0.161 C 
BRANCH  24  25
HETATM   25  C   UNL     1      43.020 -15.110   3.287  1.00  0.00    -0.040 A 
HETATM   26  C   UNL     1      43.135 -15.986   2.195  1.00  0.00     0.012 A 
HETATM   27  C   UNL     1      43.392 -17.343   2.401  1.00  0.00     0.043 A 
HETATM   28  C   UNL     1      43.537 -17.829   3.695  1.00  0.00     0.116 A 
HETATM   29  F   UNL     1      43.773 -19.134   3.888  1.00  0.00    -0.206 F 
HETATM   30  C   UNL     1      43.443 -16.981   4.790  1.00  0.00     0.043 A 
HETATM   31  C   UNL     1      43.198 -15.623   4.587  1.00  0.00     0.012 A 
ENDBRANCH  24  25
ENDBRANCH  21  24
ENDBRANCH   6  20
TORSDOF 5
ENDMDL
MODEL 5
REMARK VINA RESULT:      -8.5      2.315      2.935
REMARK  5 active torsions:
REMARK  status: ('A' for Active; 'I' for Inactive)
REMARK    1  A    between atoms: C_4  and  N_5 
REMARK       I    between atoms: N_5  and  C_6 
REMARK       I    between atoms: C_6  and  N_7 
REMARK    2  A    between atoms: N_7  and  C_8 
REMARK    3  A    between atoms: C_17  and  C_18 
REMARK       I    between atoms: C_18  and  N_19 
REMARK    4  A    between atoms: N_19  and  C_20 
REMARK    5  A    between atoms: C_20  and  C_21 
ROOT
HETATM    1  C   UNL     1      40.912 -12.460   1.610  1.00  0.00     0.072 C 
HETATM    2  C   UNL     1      40.778 -12.884   3.029  1.00  0.00     0.056 C 
HETATM    3  N   UNL     1      40.552 -11.903   3.996  1.00  0.00    -0.228 NA
HETATM    4  C   UNL     1      40.542 -12.448   5.189  1.00  0.00     0.175 C 
HETATM    5  S   UNL     1      40.624 -14.141   5.220  1.00  0.00    -0.044 SA
HETATM    6  C   UNL     1      40.914 -14.170   3.530  1.00  0.00     0.100 C 
ENDROOT
BRANCH   4   7
HETATM    7  N   UNL     1      40.487 -11.686   6.330  1.00  0.00    -0.287 N 
HETATM    8  C   UNL     1      41.524 -10.932   6.848  1.00  0.00     0.326 C 
HETATM    9  N   UNL     1      41.088 -10.149   7.908  1.00  0.00    -0.309 N 
HETATM   10  O   UNL     1      42.672 -10.925   6.425  1.00  0.00    -0.247 OA
HETATM   11  H   UNL     1      40.163 -10.339   8.262  1.00  0.00     0.170 HD
HETATM   12  H   UNL     1      39.547 -11.543   6.659  1.00  0.00     0.172 HD
BRANCH   9  13
HETATM   13  C   UNL     1      41.818  -9.142   8.581  1.00  0.00     0.037 A 
HETATM   14  C   UNL     1      42.300  -9.262   9.888  1.00  0.00     0.053 A 
HETATM   15  C   UNL     1      43.033  -8.223  10.467  1.00  0.00     0.036 A 
HETATM   16 CL   UNL     1      43.622  -8.386  12.077  1.00  0.00    -0.084 Cl
HETATM   17  C   UNL     1      43.298  -7.058   9.754  1.00  0.00     0.024 A 
HETATM   18  C   UNL     1      42.825  -6.928   8.452  1.00  0.00     0.004 A 
HETATM   19  C   UNL     1      42.088  -7.965   7.870  1.00  0.00     0.029 A 
ENDBRANCH   9  13
ENDBRANCH   4   7
BRANCH   6  20
HETATM   20  C   UNL     1      41.297 -15.395   2.849  1.00  0.00     0.260 C 
HETATM   21  N   UNL     1      42.637 -15.696   2.924  1.00  0.00    -0.352 N 
HETATM   22  H   UNL     1      43.224 -15.115   3.511  1.00  0.00     0.163 HD
HETATM   23  O   UNL     1      40.515 -16.090   2.208  1.00  0.00    -0.267 OA
BRANCH  21  24
HETATM   24  C   UNL     1      43.275 -16.671   2.074  1.00  0.00     0.161 C 
BRANCH  24  25
HETATM   25  C   UNL     1      43.511 -17.962   2.823  1.00  0.00    -0.040 A 
HETATM   26  C   UNL     1      43.904 -17.941   4.171  1.00  0.00     0.012 A 
HETATM   27  C   UNL     1      44.127 -19.135   4.861  1.00  0.00     0.043 A 
HETATM   28  C   UNL     1      43.958 -20.350   4.209  1.00  0.00     0.116 A 
HETATM   29  F   UNL     1      44.183 -21.493   4.873  1.00  0.00    -0.206 F 
HETATM   30  C   UNL     1      43.555 -20.398   2.882  1.00  0.00     0.043 A 
HETATM   31  C   UNL     1      43.319 -19.208   2.193  1.00  0.00     0.012 A 
ENDBRANCH  24  25
ENDBRANCH  21  24
ENDBRANCH   6  20
TORSDOF 5
ENDMDL
MODEL 6
REMARK VINA RESULT:      -8.4      6.467      8.317
REMARK  5 active torsions:
REMARK  status: ('A' for Active; 'I' for Inactive)
REMARK    1  A    between atoms: C_4  and  N_5 
REMARK       I    between atoms: N_5  and  C_6 
REMARK       I    between atoms: C_6  and  N_7 
REMARK    2  A    between atoms: N_7  and  C_8 
REMARK    3  A    between atoms: C_17  and  C_18 
REMARK       I    between atoms: C_18  and  N_19 
REMARK    4  A    between atoms: N_19  and  C_20 
REMARK    5  A    between atoms: C_20  and  C_21 
ROOT
HETATM    1  C   UNL     1      39.965 -15.686   1.437  1.00  0.00     0.072 C 
HETATM    2  C   UNL     1      40.106 -14.243   1.770  1.00  0.00     0.056 C 
HETATM    3  N   UNL     1      39.772 -13.303   0.794  1.00  0.00    -0.228 NA
HETATM    4  C   UNL     1      40.034 -12.095   1.233  1.00  0.00     0.175 C 
HETATM    5  S   UNL     1      40.515 -11.995   2.856  1.00  0.00    -0.044 SA
HETATM    6  C   UNL     1      40.598 -13.705   2.949  1.00  0.00     0.100 C 
ENDROOT
BRANCH   4   7
HETATM    7  N   UNL     1      39.939 -10.994   0.417  1.00  0.00    -0.287 N 
HETATM    8  C   UNL     1      40.995 -10.205  -0.001  1.00  0.00     0.326 C 
HETATM    9  N   UNL     1      40.581  -9.283  -0.952  1.00  0.00    -0.309 N 
HETATM   10  O   UNL     1      42.151 -10.309   0.387  1.00  0.00    -0.247 OA
HETATM   11  H   UNL     1      39.586  -9.190  -1.091  1.00  0.00     0.170 HD
HETATM   12  H   UNL     1      39.045 -10.923  -0.040  1.00  0.00     0.172 HD
BRANCH   9  13
HETATM   13  C   UNL     1      41.400  -8.421  -1.718  1.00  0.00     0.037 A 
HETATM   14  C   UNL     1      42.295  -7.496  -1.171  1.00  0.00     0.053 A 
HETATM   15  C   UNL     1      43.083  -6.701  -2.006  1.00  0.00     0.036 A 
HETATM   16 CL   UNL     1      44.182  -5.567  -1.317  1.00  0.00    -0.084 Cl
HETATM   17  C   UNL     1      42.994  -6.816  -3.389  1.00  0.00     0.024 A 
HETATM   18  C   UNL     1      42.108  -7.735  -3.945  1.00  0.00     0.004 A 
HETATM   19  C   UNL     1      41.315  -8.531  -3.113  1.00  0.00     0.029 A 
ENDBRANCH   9  13
ENDBRANCH   4   7
BRANCH   6  20
HETATM   20  C   UNL     1      41.174 -14.373   4.104  1.00  0.00     0.260 C 
HETATM   21  N   UNL     1      42.478 -14.780   3.938  1.00  0.00    -0.352 N 
HETATM   22  H   UNL     1      42.959 -14.506   3.089  1.00  0.00     0.163 HD
HETATM   23  O   UNL     1      40.550 -14.612   5.132  1.00  0.00    -0.267 OA
BRANCH  21  24
HETATM   24  C   UNL     1      43.128 -15.719   4.817  1.00  0.00     0.161 C 
BRANCH  24  25
HETATM   25  C   UNL     1      43.347 -17.042   4.120  1.00  0.00    -0.040 A 
HETATM   26  C   UNL     1      44.019 -18.088   4.773  1.00  0.00     0.012 A 
HETATM   27  C   UNL     1      44.226 -19.309   4.126  1.00  0.00     0.043 A 
HETATM   28  C   UNL     1      43.762 -19.488   2.828  1.00  0.00     0.116 A 
HETATM   29  F   UNL     1      43.972 -20.657   2.208  1.00  0.00    -0.206 F 
HETATM   30  C   UNL     1      43.082 -18.475   2.167  1.00  0.00     0.043 A 
HETATM   31  C   UNL     1      42.863 -17.259   2.815  1.00  0.00     0.012 A 
ENDBRANCH  24  25
ENDBRANCH  21  24
ENDBRANCH   6  20
TORSDOF 5
ENDMDL
MODEL 7
REMARK VINA RESULT:      -8.3      5.182     10.774
REMARK  5 active torsions:
REMARK  status: ('A' for Active; 'I' for Inactive)
REMARK    1  A    between atoms: C_4  and  N_5 
REMARK       I    between atoms: N_5  and  C_6 
REMARK       I    between atoms: C_6  and  N_7 
REMARK    2  A    between atoms: N_7  and  C_8 
REMARK    3  A    between atoms: C_17  and  C_18 
REMARK       I    between atoms: C_18  and  N_19 
REMARK    4  A    between atoms: N_19  and  C_20 
REMARK    5  A    between atoms: C_20  and  C_21 
ROOT
HETATM    1  C   UNL     1      41.772  -8.637   8.587  1.00  0.00     0.072 C 
HETATM    2  C   UNL     1      42.745  -9.626   8.050  1.00  0.00     0.056 C 
HETATM    3  N   UNL     1      42.608 -10.038   6.723  1.00  0.00    -0.228 NA
HETATM    4  C   UNL     1      43.496 -10.964   6.451  1.00  0.00     0.175 C 
HETATM    5  S   UNL     1      44.632 -11.269   7.672  1.00  0.00    -0.044 SA
HETATM    6  C   UNL     1      43.767 -10.252   8.748  1.00  0.00     0.100 C 
ENDROOT
BRANCH   4   7
HETATM    7  N   UNL     1      43.485 -11.648   5.260  1.00  0.00    -0.287 N 
HETATM    8  C   UNL     1      42.943 -12.903   5.055  1.00  0.00     0.326 C 
HETATM    9  N   UNL     1      42.942 -13.230   3.706  1.00  0.00    -0.309 N 
HETATM   10  O   UNL     1      42.498 -13.632   5.931  1.00  0.00    -0.247 OA
HETATM   11  H   UNL     1      43.461 -12.621   3.091  1.00  0.00     0.170 HD
HETATM   12  H   UNL     1      43.717 -11.065   4.474  1.00  0.00     0.172 HD
BRANCH   9  13
HETATM   13  C   UNL     1      42.332 -14.353   3.100  1.00  0.00     0.037 A 
HETATM   14  C   UNL     1      42.938 -15.608   2.982  1.00  0.00     0.053 A 
HETATM   15  C   UNL     1      42.251 -16.669   2.389  1.00  0.00     0.036 A 
HETATM   16 CL   UNL     1      43.010 -18.209   2.251  1.00  0.00    -0.084 Cl
HETATM   17  C   UNL     1      40.955 -16.498   1.912  1.00  0.00     0.024 A 
HETATM   18  C   UNL     1      40.341 -15.254   2.026  1.00  0.00     0.004 A 
HETATM   19  C   UNL     1      41.027 -14.188   2.617  1.00  0.00     0.029 A 
ENDBRANCH   9  13
ENDBRANCH   4   7
BRANCH   6  20
HETATM   20  C   UNL     1      44.101 -10.185  10.160  1.00  0.00     0.260 C 
HETATM   21  N   UNL     1      43.285 -10.934  10.977  1.00  0.00    -0.352 N 
HETATM   22  H   UNL     1      42.595 -11.534  10.541  1.00  0.00     0.163 HD
HETATM   23  O   UNL     1      44.999  -9.484  10.614  1.00  0.00    -0.267 OA
BRANCH  21  24
HETATM   24  C   UNL     1      43.237 -10.769  12.409  1.00  0.00     0.161 C 
BRANCH  24  25
HETATM   25  C   UNL     1      42.123  -9.827  12.803  1.00  0.00    -0.040 A 
HETATM   26  C   UNL     1      40.931  -9.786  12.063  1.00  0.00     0.012 A 
HETATM   27  C   UNL     1      39.904  -8.911  12.425  1.00  0.00     0.043 A 
HETATM   28  C   UNL     1      40.064  -8.077  13.525  1.00  0.00     0.116 A 
HETATM   29  F   UNL     1      39.080  -7.232  13.862  1.00  0.00    -0.206 F 
HETATM   30  C   UNL     1      41.227  -8.110  14.282  1.00  0.00     0.043 A 
HETATM   31  C   UNL     1      42.250  -8.991  13.931  1.00  0.00     0.012 A 
ENDBRANCH  24  25
ENDBRANCH  21  24
ENDBRANCH   6  20
TORSDOF 5
ENDMDL
MODEL 8
REMARK VINA RESULT:      -8.1      5.678      7.791
REMARK  5 active torsions:
REMARK  status: ('A' for Active; 'I' for Inactive)
REMARK    1  A    between atoms: C_4  and  N_5 
REMARK       I    between atoms: N_5  and  C_6 
REMARK       I    between atoms: C_6  and  N_7 
REMARK    2  A    between atoms: N_7  and  C_8 
REMARK    3  A    between atoms: C_17  and  C_18 
REMARK       I    between atoms: C_18  and  N_19 
REMARK    4  A    between atoms: N_19  and  C_20 
REMARK    5  A    between atoms: C_20  and  C_21 
ROOT
HETATM    1  C   UNL     1      40.126 -13.498   5.869  1.00  0.00     0.072 C 
HETATM    2  C   UNL     1      41.247 -12.768   5.219  1.00  0.00     0.056 C 
HETATM    3  N   UNL     1      40.943 -11.672   4.410  1.00  0.00    -0.228 NA
HETATM    4  C   UNL     1      42.039 -11.207   3.861  1.00  0.00     0.175 C 
HETATM    5  S   UNL     1      43.483 -11.916   4.397  1.00  0.00    -0.044 SA
HETATM    6  C   UNL     1      42.594 -13.090   5.275  1.00  0.00     0.100 C 
ENDROOT
BRANCH   4   7
HETATM    7  N   UNL     1      42.006 -10.224   2.902  1.00  0.00    -0.287 N 
HETATM    8  C   UNL     1      41.745 -10.414   1.558  1.00  0.00     0.326 C 
HETATM    9  N   UNL     1      41.615  -9.200   0.899  1.00  0.00    -0.309 N 
HETATM   10  O   UNL     1      41.616 -11.502   1.011  1.00  0.00    -0.247 OA
HETATM   11  H   UNL     1      41.881  -8.373   1.414  1.00  0.00     0.170 HD
HETATM   12  H   UNL     1      41.977  -9.297   3.294  1.00  0.00     0.172 HD
BRANCH   9  13
HETATM   13  C   UNL     1      41.197  -8.994  -0.436  1.00  0.00     0.037 A 
HETATM   14  C   UNL     1      42.011  -8.465  -1.442  1.00  0.00     0.053 A 
HETATM   15  C   UNL     1      41.520  -8.318  -2.741  1.00  0.00     0.036 A 
HETATM   16 CL   UNL     1      42.536  -7.666  -3.970  1.00  0.00    -0.084 Cl
HETATM   17  C   UNL     1      40.219  -8.697  -3.056  1.00  0.00     0.024 A 
HETATM   18  C   UNL     1      39.400  -9.227  -2.063  1.00  0.00     0.004 A 
HETATM   19  C   UNL     1      39.887  -9.373  -0.761  1.00  0.00     0.029 A 
ENDBRANCH   9  13
ENDBRANCH   4   7
BRANCH   6  20
HETATM   20  C   UNL     1      43.249 -14.235   5.885  1.00  0.00     0.260 C 
HETATM   21  N   UNL     1      43.321 -15.349   5.080  1.00  0.00    -0.352 N 
HETATM   22  H   UNL     1      43.012 -15.263   4.119  1.00  0.00     0.163 HD
HETATM   23  O   UNL     1      43.663 -14.246   7.040  1.00  0.00    -0.267 OA
BRANCH  21  24
HETATM   24  C   UNL     1      43.638 -16.663   5.580  1.00  0.00     0.161 C 
BRANCH  24  25
HETATM   25  C   UNL     1      43.580 -17.687   4.470  1.00  0.00    -0.040 A 
HETATM   26  C   UNL     1      43.037 -17.351   3.220  1.00  0.00     0.012 A 
HETATM   27  C   UNL     1      42.978 -18.300   2.196  1.00  0.00     0.043 A 
HETATM   28  C   UNL     1      43.461 -19.584   2.418  1.00  0.00     0.116 A 
HETATM   29  F   UNL     1      43.393 -20.493   1.436  1.00  0.00    -0.206 F 
HETATM   30  C   UNL     1      44.017 -19.936   3.640  1.00  0.00     0.043 A 
HETATM   31  C   UNL     1      44.088 -18.987   4.660  1.00  0.00     0.012 A 
ENDBRANCH  24  25
ENDBRANCH  21  24
ENDBRANCH   6  20
TORSDOF 5
ENDMDL
MODEL 9
REMARK VINA RESULT:      -8.1      5.619     10.680
REMARK  5 active torsions:
REMARK  status: ('A' for Active; 'I' for Inactive)
REMARK    1  A    between atoms: C_4  and  N_5 
REMARK       I    between atoms: N_5  and  C_6 
REMARK       I    between atoms: C_6  and  N_7 
REMARK    2  A    between atoms: N_7  and  C_8 
REMARK    3  A    between atoms: C_17  and  C_18 
REMARK       I    between atoms: C_18  and  N_19 
REMARK    4  A    between atoms: N_19  and  C_20 
REMARK    5  A    between atoms: C_20  and  C_21 
ROOT
HETATM    1  C   UNL     1      43.275 -14.123   7.105  1.00  0.00     0.072 C 
HETATM    2  C   UNL     1      43.298 -13.361   5.827  1.00  0.00     0.056 C 
HETATM    3  N   UNL     1      42.735 -13.950   4.694  1.00  0.00    -0.228 NA
HETATM    4  C   UNL     1      42.918 -13.173   3.653  1.00  0.00     0.175 C 
HETATM    5  S   UNL     1      43.597 -11.655   3.983  1.00  0.00    -0.044 SA
HETATM    6  C   UNL     1      43.881 -12.122   5.608  1.00  0.00     0.100 C 
ENDROOT
BRANCH   4   7
HETATM    7  N   UNL     1      42.593 -13.581   2.382  1.00  0.00    -0.287 N 
HETATM    8  C   UNL     1      41.432 -13.262   1.702  1.00  0.00     0.326 C 
HETATM    9  N   UNL     1      41.495 -13.687   0.383  1.00  0.00    -0.309 N 
HETATM   10  O   UNL     1      40.477 -12.662   2.179  1.00  0.00    -0.247 OA
HETATM   11  H   UNL     1      42.264 -14.293   0.137  1.00  0.00     0.170 HD
HETATM   12  H   UNL     1      43.378 -13.968   1.884  1.00  0.00     0.172 HD
BRANCH   9  13
HETATM   13  C   UNL     1      40.571 -13.403  -0.650  1.00  0.00     0.037 A 
HETATM   14  C   UNL     1      40.527 -12.197  -1.356  1.00  0.00     0.053 A 
HETATM   15  C   UNL     1      39.594 -12.012  -2.378  1.00  0.00     0.036 A 
HETATM   16 CL   UNL     1      39.553 -10.521  -3.239  1.00  0.00    -0.084 Cl
HETATM   17  C   UNL     1      38.699 -13.023  -2.714  1.00  0.00     0.024 A 
HETATM   18  C   UNL     1      38.735 -14.229  -2.019  1.00  0.00     0.004 A 
HETATM   19  C   UNL     1      39.666 -14.416  -0.993  1.00  0.00     0.029 A 
ENDBRANCH   9  13
ENDBRANCH   4   7
BRANCH   6  20
HETATM   20  C   UNL     1      44.677 -11.300   6.503  1.00  0.00     0.260 C 
HETATM   21  N   UNL     1      43.943 -10.489   7.339  1.00  0.00    -0.352 N 
HETATM   22  H   UNL     1      42.935 -10.592   7.339  1.00  0.00     0.163 HD
HETATM   23  O   UNL     1      45.903 -11.275   6.494  1.00  0.00    -0.267 OA
BRANCH  21  24
HETATM   24  C   UNL     1      44.516  -9.386   8.069  1.00  0.00     0.161 C 
BRANCH  24  25
HETATM   25  C   UNL     1      44.034  -9.384   9.501  1.00  0.00    -0.040 A 
HETATM   26  C   UNL     1      43.632  -8.188  10.115  1.00  0.00     0.012 A 
HETATM   27  C   UNL     1      43.193  -8.186  11.442  1.00  0.00     0.043 A 
HETATM   28  C   UNL     1      43.153  -9.377  12.156  1.00  0.00     0.116 A 
HETATM   29  F   UNL     1      42.741  -9.369  13.431  1.00  0.00    -0.206 F 
HETATM   30  C   UNL     1      43.531 -10.575  11.567  1.00  0.00     0.043 A 
HETATM   31  C   UNL     1      43.958 -10.582  10.239  1.00  0.00     0.012 A 
ENDBRANCH  24  25
ENDBRANCH  21  24
ENDBRANCH   6  20
TORSDOF 5
ENDMDL
MODEL 10
REMARK VINA RESULT:      -8.0      4.679     10.653
REMARK  5 active torsions:
REMARK  status: ('A' for Active; 'I' for Inactive)
REMARK    1  A    between atoms: C_4  and  N_5 
REMARK       I    between atoms: N_5  and  C_6 
REMARK       I    between atoms: C_6  and  N_7 
REMARK    2  A    between atoms: N_7  and  C_8 
REMARK    3  A    between atoms: C_17  and  C_18 
REMARK       I    between atoms: C_18  and  N_19 
REMARK    4  A    between atoms: N_19  and  C_20 
REMARK    5  A    between atoms: C_20  and  C_21 
ROOT
HETATM    1  C   UNL     1      40.202  -8.823   8.182  1.00  0.00     0.072 C 
HETATM    2  C   UNL     1      41.147  -9.690   7.428  1.00  0.00     0.056 C 
HETATM    3  N   UNL     1      40.619 -10.663   6.579  1.00  0.00    -0.228 NA
HETATM    4  C   UNL     1      41.591 -11.378   6.064  1.00  0.00     0.175 C 
HETATM    5  S   UNL     1      43.160 -10.838   6.413  1.00  0.00    -0.044 SA
HETATM    6  C   UNL     1      42.531  -9.684   7.514  1.00  0.00     0.100 C 
ENDROOT
BRANCH   4   7
HETATM    7  N   UNL     1      41.342 -12.499   5.310  1.00  0.00    -0.287 N 
HETATM    8  C   UNL     1      42.296 -13.376   4.828  1.00  0.00     0.326 C 
HETATM    9  N   UNL     1      41.701 -14.492   4.256  1.00  0.00    -0.309 N 
HETATM   10  O   UNL     1      43.507 -13.217   4.909  1.00  0.00    -0.247 OA
HETATM   11  H   UNL     1      40.703 -14.453   4.115  1.00  0.00     0.170 HD
HETATM   12  H   UNL     1      40.371 -12.762   5.311  1.00  0.00     0.172 HD
BRANCH   9  13
HETATM   13  C   UNL     1      42.348 -15.665   3.802  1.00  0.00     0.037 A 
HETATM   14  C   UNL     1      42.856 -16.659   4.644  1.00  0.00     0.053 A 
HETATM   15  C   UNL     1      43.460 -17.798   4.106  1.00  0.00     0.036 A 
HETATM   16 CL   UNL     1      44.080 -19.014   5.156  1.00  0.00    -0.084 Cl
HETATM   17  C   UNL     1      43.562 -17.964   2.728  1.00  0.00     0.024 A 
HETATM   18  C   UNL     1      43.058 -16.982   1.880  1.00  0.00     0.004 A 
HETATM   19  C   UNL     1      42.455 -15.839   2.415  1.00  0.00     0.029 A 
ENDBRANCH   9  13
ENDBRANCH   4   7
BRANCH   6  20
HETATM   20  C   UNL     1      43.402  -8.925   8.395  1.00  0.00     0.260 C 
HETATM   21  N   UNL     1      43.853  -9.621   9.493  1.00  0.00    -0.352 N 
HETATM   22  H   UNL     1      43.634 -10.609   9.554  1.00  0.00     0.163 HD
HETATM   23  O   UNL     1      43.682  -7.743   8.221  1.00  0.00    -0.267 OA
BRANCH  21  24
HETATM   24  C   UNL     1      44.457  -8.985  10.636  1.00  0.00     0.161 C 
BRANCH  24  25
HETATM   25  C   UNL     1      43.505  -8.975  11.810  1.00  0.00    -0.040 A 
HETATM   26  C   UNL     1      42.554  -9.996  11.962  1.00  0.00     0.012 A 
HETATM   27  C   UNL     1      41.670  -9.984  13.044  1.00  0.00     0.043 A 
HETATM   28  C   UNL     1      41.734  -8.954  13.975  1.00  0.00     0.116 A 
HETATM   29  F   UNL     1      40.877  -8.940  15.005  1.00  0.00    -0.206 F 
HETATM   30  C   UNL     1      42.675  -7.941  13.854  1.00  0.00     0.043 A 
HETATM   31  C   UNL     1      43.567  -7.957  12.782  1.00  0.00     0.012 A 
ENDBRANCH  24  25
ENDBRANCH  21  24
ENDBRANCH   6  20
TORSDOF 5
ENDMDL
