MODEL 1
REMARK VINA RESULT:     -10.6      0.000      0.000
REMARK  8 active torsions:
REMARK  status: ('A' for Active; 'I' for Inactive)
REMARK    1  A    between atoms: C_4  and  C_5 
REMARK    2  A    between atoms: C_5  and  C_6 
REMARK    3  A    between atoms: C_6  and  C_7 
REMARK    4  A    between atoms: C_7  and  N_8 
REMARK       I    between atoms: N_8  and  C_9 
REMARK    5  A    between atoms: C_9  and  C_10 
REMARK    6  A    between atoms: C_11  and  N_12 
REMARK    7  A    between atoms: N_13  and  N_14 
REMARK    8  A    between atoms: C_15  and  C_16 
ROOT
HETATM    1  C   UNL     1      42.752 -12.817   4.414  1.00  0.00     0.104 C 
HETATM    2  C   UNL     1      42.790 -12.101   3.223  1.00  0.00     0.123 C 
HETATM    3  N   UNL     1      42.371 -12.991   2.233  1.00  0.00    -0.202 N 
HETATM    4  C   UNL     1      42.775 -14.249   2.638  1.00  0.00     0.183 A 
HETATM    5  C   UNL     1      42.934 -14.178   4.022  1.00  0.00     0.124 A 
HETATM    6  N   UNL     1      43.163 -15.299   4.752  1.00  0.00    -0.242 NA
HETATM    7  C   UNL     1      43.293 -16.427   4.032  1.00  0.00     0.086 A 
HETATM    8  C   UNL     1      43.151 -16.461   2.619  1.00  0.00     0.088 A 
HETATM    9  N   UNL     1      42.852 -15.374   1.891  1.00  0.00    -0.225 NA
HETATM   10  C   UNL     1      43.589 -17.607   4.703  1.00  0.00     0.034 A 
HETATM   11  C   UNL     1      43.765 -18.813   4.022  1.00  0.00     0.002 A 
HETATM   12  C   UNL     1      43.638 -18.842   2.640  1.00  0.00     0.002 A 
HETATM   13  C   UNL     1      43.327 -17.668   1.955  1.00  0.00     0.034 A 
ENDROOT
BRANCH   1  14
HETATM   14  C   UNL     1      42.480 -12.277   5.743  1.00  0.00     0.257 C 
HETATM   15  N   UNL     1      43.330 -12.777   6.723  1.00  0.00    -0.357 N 
HETATM   16  H   UNL     1      43.939 -13.510   6.377  1.00  0.00     0.162 HD
HETATM   17  O   UNL     1      41.696 -11.359   5.952  1.00  0.00    -0.267 OA
BRANCH  15  18
HETATM   18  C   UNL     1      44.032 -11.877   7.614  1.00  0.00     0.123 C 
BRANCH  18  19
HETATM   19  C   UNL     1      45.247 -11.140   7.069  1.00  0.00     0.024 C 
BRANCH  19  20
HETATM   20  C   UNL     1      46.007 -10.350   8.138  1.00  0.00     0.040 C 
BRANCH  20  21
HETATM   21  C   UNL     1      45.125  -9.531   9.058  1.00  0.00    -0.058 A 
HETATM   22  C   UNL     1      44.918  -9.865  10.404  1.00  0.00     0.007 A 
HETATM   23  C   UNL     1      44.070  -9.100  11.208  1.00  0.00     0.001 A 
HETATM   24  C   UNL     1      43.440  -7.974  10.685  1.00  0.00     0.000 A 
HETATM   25  C   UNL     1      43.665  -7.606   9.360  1.00  0.00     0.001 A 
HETATM   26  C   UNL     1      44.505  -8.378   8.554  1.00  0.00     0.007 A 
ENDBRANCH  20  21
ENDBRANCH  19  20
ENDBRANCH  18  19
ENDBRANCH  15  18
ENDBRANCH   1  14
BRANCH   2  27
HETATM   27  N   UNL     1      42.968 -10.764   2.968  1.00  0.00    -0.286 NA
HETATM   28  H   UNL     1      43.772 -10.326   3.430  1.00  0.00     0.125 HD
HETATM   29  H   UNL     1      43.009 -10.509   1.974  1.00  0.00     0.125 HD
ENDBRANCH   2  27
BRANCH   3  30
HETATM   30  N   UNL     1      41.585 -12.710   1.138  1.00  0.00    -0.176 NA
HETATM   31  C   UNL     1      40.335 -12.597   1.462  1.00  0.00     0.153 C 
BRANCH  31  32
HETATM   32  C   UNL     1      39.294 -12.407   0.480  1.00  0.00     0.011 A 
HETATM   33  C   UNL     1      39.061 -13.240  -0.661  1.00  0.00     0.004 A 
HETATM   34  C   UNL     1      38.059 -12.637  -1.419  1.00  0.00     0.043 A 
HETATM   35  C   UNL     1      39.626 -14.447  -1.129  1.00  0.00     0.014 A 
HETATM   36  C   UNL     1      37.610 -13.168  -2.634  1.00  0.00     0.030 A 
HETATM   37  N   UNL     1      37.673 -11.499  -0.745  1.00  0.00    -0.364 N 
HETATM   38  C   UNL     1      38.188 -14.363  -3.076  1.00  0.00     0.002 A 
HETATM   39  C   UNL     1      39.179 -14.999  -2.333  1.00  0.00     0.001 A 
HETATM   40  H   UNL     1      36.969 -10.851  -1.072  1.00  0.00     0.165 HD
HETATM   41  C   UNL     1      38.398 -11.361   0.409  1.00  0.00     0.102 A 
ENDBRANCH  31  32
ENDBRANCH   3  30
TORSDOF 8
ENDMDL
MODEL 2
REMARK VINA RESULT:     -10.6      1.705      5.822
REMARK  8 active torsions:
REMARK  status: ('A' for Active; 'I' for Inactive)
REMARK    1  A    between atoms: C_4  and  C_5 
REMARK    2  A    between atoms: C_5  and  C_6 
REMARK    3  A    between atoms: C_6  and  C_7 
REMARK    4  A    between atoms: C_7  and  N_8 
REMARK       I    between atoms: N_8  and  C_9 
REMARK    5  A    between atoms: C_9  and  C_10 
REMARK    6  A    between atoms: C_11  and  N_12 
REMARK    7  A    between atoms: N_13  and  N_14 
REMARK    8  A    between atoms: C_15  and  C_16 
ROOT
HETATM    1  C   UNL     1      41.978 -12.407   4.434  1.00  0.00     0.104 C 
HETATM    2  C   UNL     1      41.467 -13.381   5.284  1.00  0.00     0.123 C 
HETATM    3  N   UNL     1      41.324 -14.528   4.502  1.00  0.00    -0.202 N 
HETATM    4  C   UNL     1      41.047 -14.097   3.218  1.00  0.00     0.183 A 
HETATM    5  C   UNL     1      41.532 -12.793   3.133  1.00  0.00     0.124 A 
HETATM    6  N   UNL     1      41.567 -12.141   1.943  1.00  0.00    -0.242 NA
HETATM    7  C   UNL     1      41.039 -12.821   0.911  1.00  0.00     0.086 A 
HETATM    8  C   UNL     1      40.529 -14.140   1.036  1.00  0.00     0.088 A 
HETATM    9  N   UNL     1      40.553 -14.825   2.190  1.00  0.00    -0.225 NA
HETATM   10  C   UNL     1      40.983 -12.197  -0.330  1.00  0.00     0.034 A 
HETATM   11  C   UNL     1      40.425 -12.827  -1.443  1.00  0.00     0.002 A 
HETATM   12  C   UNL     1      39.916 -14.112  -1.317  1.00  0.00     0.002 A 
HETATM   13  C   UNL     1      39.978 -14.756  -0.081  1.00  0.00     0.034 A 
ENDROOT
BRANCH   1  14
HETATM   14  C   UNL     1      42.860 -11.305   4.809  1.00  0.00     0.257 C 
HETATM   15  N   UNL     1      43.538 -11.526   6.002  1.00  0.00    -0.357 N 
HETATM   16  H   UNL     1      43.240 -12.374   6.472  1.00  0.00     0.162 HD
HETATM   17  O   UNL     1      43.105 -10.356   4.075  1.00  0.00    -0.267 OA
BRANCH  15  18
HETATM   18  C   UNL     1      44.975 -11.356   6.071  1.00  0.00     0.123 C 
BRANCH  18  19
HETATM   19  C   UNL     1      45.605 -11.178   7.445  1.00  0.00     0.024 C 
BRANCH  19  20
HETATM   20  C   UNL     1      45.867  -9.713   7.807  1.00  0.00     0.040 C 
BRANCH  20  21
HETATM   21  C   UNL     1      45.010  -9.185   8.939  1.00  0.00    -0.058 A 
HETATM   22  C   UNL     1      44.953  -9.801  10.198  1.00  0.00     0.007 A 
HETATM   23  C   UNL     1      44.123  -9.299  11.202  1.00  0.00     0.001 A 
HETATM   24  C   UNL     1      43.362  -8.155  10.973  1.00  0.00     0.000 A 
HETATM   25  C   UNL     1      43.437  -7.509   9.742  1.00  0.00     0.001 A 
HETATM   26  C   UNL     1      44.259  -8.018   8.734  1.00  0.00     0.007 A 
ENDBRANCH  20  21
ENDBRANCH  19  20
ENDBRANCH  18  19
ENDBRANCH  15  18
ENDBRANCH   1  14
BRANCH   2  27
HETATM   27  N   UNL     1      41.300 -13.406   6.646  1.00  0.00    -0.286 NA
HETATM   28  H   UNL     1      42.103 -13.087   7.199  1.00  0.00     0.125 HD
HETATM   29  H   UNL     1      40.470 -12.911   6.995  1.00  0.00     0.125 HD
ENDBRANCH   2  27
BRANCH   3  30
HETATM   30  N   UNL     1      41.554 -15.831   4.884  1.00  0.00    -0.176 NA
HETATM   31  C   UNL     1      42.799 -16.160   4.738  1.00  0.00     0.153 C 
BRANCH  31  32
HETATM   32  C   UNL     1      43.279 -17.501   4.970  1.00  0.00     0.011 A 
HETATM   33  C   UNL     1      43.451 -18.510   3.969  1.00  0.00     0.004 A 
HETATM   34  C   UNL     1      43.798 -19.691   4.623  1.00  0.00     0.043 A 
HETATM   35  C   UNL     1      43.325 -18.531   2.562  1.00  0.00     0.014 A 
HETATM   36  C   UNL     1      44.003 -20.898   3.943  1.00  0.00     0.030 A 
HETATM   37  N   UNL     1      43.870 -19.401   5.967  1.00  0.00    -0.364 N 
HETATM   38  C   UNL     1      43.869 -20.891   2.550  1.00  0.00     0.002 A 
HETATM   39  C   UNL     1      43.541 -19.724   1.865  1.00  0.00     0.001 A 
HETATM   40  H   UNL     1      44.087 -20.076   6.687  1.00  0.00     0.165 HD
HETATM   41  C   UNL     1      43.576 -18.080   6.186  1.00  0.00     0.102 A 
ENDBRANCH  31  32
ENDBRANCH   3  30
TORSDOF 8
ENDMDL
MODEL 3
REMARK VINA RESULT:     -10.4      1.824      9.178
REMARK  8 active torsions:
REMARK  status: ('A' for Active; 'I' for Inactive)
REMARK    1  A    between atoms: C_4  and  C_5 
REMARK    2  A    between atoms: C_5  and  C_6 
REMARK    3  A    between atoms: C_6  and  C_7 
REMARK    4  A    between atoms: C_7  and  N_8 
REMARK       I    between atoms: N_8  and  C_9 
REMARK    5  A    between atoms: C_9  and  C_10 
REMARK    6  A    between atoms: C_11  and  N_12 
REMARK    7  A    between atoms: N_13  and  N_14 
REMARK    8  A    between atoms: C_15  and  C_16 
ROOT
HETATM    1  C   UNL     1      40.814 -13.867   4.272  1.00  0.00     0.104 C 
HETATM    2  C   UNL     1      40.998 -13.523   5.606  1.00  0.00     0.123 C 
HETATM    3  N   UNL     1      42.243 -14.045   5.963  1.00  0.00    -0.202 N 
HETATM    4  C   UNL     1      42.422 -15.188   5.207  1.00  0.00     0.183 A 
HETATM    5  C   UNL     1      41.594 -15.051   4.094  1.00  0.00     0.124 A 
HETATM    6  N   UNL     1      41.663 -15.933   3.065  1.00  0.00    -0.242 NA
HETATM    7  C   UNL     1      42.517 -16.954   3.251  1.00  0.00     0.086 A 
HETATM    8  C   UNL     1      43.330 -17.078   4.410  1.00  0.00     0.088 A 
HETATM    9  N   UNL     1      43.326 -16.175   5.403  1.00  0.00    -0.225 NA
HETATM   10  C   UNL     1      42.600 -17.932   2.268  1.00  0.00     0.034 A 
HETATM   11  C   UNL     1      43.445 -19.035   2.401  1.00  0.00     0.002 A 
HETATM   12  C   UNL     1      44.229 -19.162   3.539  1.00  0.00     0.002 A 
HETATM   13  C   UNL     1      44.166 -18.180   4.528  1.00  0.00     0.034 A 
ENDROOT
BRANCH   1  14
HETATM   14  C   UNL     1      40.066 -13.106   3.275  1.00  0.00     0.257 C 
HETATM   15  N   UNL     1      40.559 -13.260   1.984  1.00  0.00    -0.357 N 
HETATM   16  H   UNL     1      41.418 -13.799   1.953  1.00  0.00     0.162 HD
HETATM   17  O   UNL     1      39.018 -12.522   3.518  1.00  0.00    -0.267 OA
BRANCH  15  18
HETATM   18  C   UNL     1      39.669 -13.613   0.897  1.00  0.00     0.123 C 
BRANCH  18  19
HETATM   19  C   UNL     1      40.173 -14.606  -0.141  1.00  0.00     0.024 C 
BRANCH  19  20
HETATM   20  C   UNL     1      39.459 -14.487  -1.490  1.00  0.00     0.040 C 
BRANCH  20  21
HETATM   21  C   UNL     1      39.559 -13.119  -2.134  1.00  0.00    -0.058 A 
HETATM   22  C   UNL     1      40.777 -12.571  -2.564  1.00  0.00     0.007 A 
HETATM   23  C   UNL     1      40.828 -11.292  -3.122  1.00  0.00     0.001 A 
HETATM   24  C   UNL     1      39.658 -10.554  -3.286  1.00  0.00     0.000 A 
HETATM   25  C   UNL     1      38.436 -11.099  -2.899  1.00  0.00     0.001 A 
HETATM   26  C   UNL     1      38.387 -12.374  -2.331  1.00  0.00     0.007 A 
ENDBRANCH  20  21
ENDBRANCH  19  20
ENDBRANCH  18  19
ENDBRANCH  15  18
ENDBRANCH   1  14
BRANCH   2  27
HETATM   27  N   UNL     1      40.299 -12.683   6.436  1.00  0.00    -0.286 NA
HETATM   28  H   UNL     1      39.286 -12.645   6.281  1.00  0.00     0.125 HD
HETATM   29  H   UNL     1      40.449 -12.834   7.441  1.00  0.00     0.125 HD
ENDBRANCH   2  27
BRANCH   3  30
HETATM   30  N   UNL     1      43.180 -13.470   6.791  1.00  0.00    -0.176 NA
HETATM   31  C   UNL     1      43.616 -12.346   6.315  1.00  0.00     0.153 C 
BRANCH  31  32
HETATM   32  C   UNL     1      44.679 -11.597   6.942  1.00  0.00     0.011 A 
HETATM   33  C   UNL     1      44.588 -10.911   8.195  1.00  0.00     0.004 A 
HETATM   34  C   UNL     1      45.778 -10.207   8.371  1.00  0.00     0.043 A 
HETATM   35  C   UNL     1      43.591 -10.810   9.191  1.00  0.00     0.014 A 
HETATM   36  C   UNL     1      46.012  -9.387   9.482  1.00  0.00     0.030 A 
HETATM   37  N   UNL     1      46.575 -10.484   7.283  1.00  0.00    -0.364 N 
HETATM   38  C   UNL     1      45.007  -9.303  10.453  1.00  0.00     0.002 A 
HETATM   39  C   UNL     1      43.814 -10.008  10.315  1.00  0.00     0.001 A 
HETATM   40  H   UNL     1      47.496 -10.095   7.134  1.00  0.00     0.165 HD
HETATM   41  C   UNL     1      45.930 -11.335   6.425  1.00  0.00     0.102 A 
ENDBRANCH  31  32
ENDBRANCH   3  30
TORSDOF 8
ENDMDL
MODEL 4
REMARK VINA RESULT:     -10.3      3.148      7.071
REMARK  8 active torsions:
REMARK  status: ('A' for Active; 'I' for Inactive)
REMARK    1  A    between atoms: C_4  and  C_5 
REMARK    2  A    between atoms: C_5  and  C_6 
REMARK    3  A    between atoms: C_6  and  C_7 
REMARK    4  A    between atoms: C_7  and  N_8 
REMARK       I    between atoms: N_8  and  C_9 
REMARK    5  A    between atoms: C_9  and  C_10 
REMARK    6  A    between atoms: C_11  and  N_12 
REMARK    7  A    between atoms: N_13  and  N_14 
REMARK    8  A    between atoms: C_15  and  C_16 
ROOT
HETATM    1  C   UNL     1      40.581 -14.093   4.516  1.00  0.00     0.104 C 
HETATM    2  C   UNL     1      40.837 -13.776   5.846  1.00  0.00     0.123 C 
HETATM    3  N   UNL     1      42.138 -14.215   6.095  1.00  0.00    -0.202 N 
HETATM    4  C   UNL     1      42.343 -15.319   5.289  1.00  0.00     0.183 A 
HETATM    5  C   UNL     1      41.428 -15.210   4.242  1.00  0.00     0.124 A 
HETATM    6  N   UNL     1      41.484 -16.054   3.181  1.00  0.00    -0.242 NA
HETATM    7  C   UNL     1      42.420 -17.014   3.270  1.00  0.00     0.086 A 
HETATM    8  C   UNL     1      43.322 -17.113   4.364  1.00  0.00     0.088 A 
HETATM    9  N   UNL     1      43.326 -16.243   5.385  1.00  0.00    -0.225 NA
HETATM   10  C   UNL     1      42.501 -17.953   2.250  1.00  0.00     0.034 A 
HETATM   11  C   UNL     1      43.429 -18.995   2.284  1.00  0.00     0.002 A 
HETATM   12  C   UNL     1      44.301 -19.098   3.359  1.00  0.00     0.002 A 
HETATM   13  C   UNL     1      44.241 -18.154   4.384  1.00  0.00     0.034 A 
ENDROOT
BRANCH   1  14
HETATM   14  C   UNL     1      39.710 -13.360   3.603  1.00  0.00     0.257 C 
HETATM   15  N   UNL     1      39.285 -12.137   4.111  1.00  0.00    -0.357 N 
HETATM   16  H   UNL     1      39.569 -11.993   5.074  1.00  0.00     0.162 HD
HETATM   17  O   UNL     1      39.502 -13.702   2.445  1.00  0.00    -0.267 OA
BRANCH  15  18
HETATM   18  C   UNL     1      39.428 -10.927   3.327  1.00  0.00     0.123 C 
BRANCH  18  19
HETATM   19  C   UNL     1      40.048  -9.712   4.000  1.00  0.00     0.024 C 
BRANCH  19  20
HETATM   20  C   UNL     1      41.222 -10.060   4.919  1.00  0.00     0.040 C 
BRANCH  20  21
HETATM   21  C   UNL     1      41.206  -9.348   6.255  1.00  0.00    -0.058 A 
HETATM   22  C   UNL     1      40.222  -9.582   7.227  1.00  0.00     0.007 A 
HETATM   23  C   UNL     1      40.226  -8.877   8.433  1.00  0.00     0.001 A 
HETATM   24  C   UNL     1      41.231  -7.950   8.697  1.00  0.00     0.000 A 
HETATM   25  C   UNL     1      42.238  -7.734   7.759  1.00  0.00     0.001 A 
HETATM   26  C   UNL     1      42.227  -8.431   6.549  1.00  0.00     0.007 A 
ENDBRANCH  20  21
ENDBRANCH  19  20
ENDBRANCH  18  19
ENDBRANCH  15  18
ENDBRANCH   1  14
BRANCH   2  27
HETATM   27  N   UNL     1      40.142 -13.015   6.752  1.00  0.00    -0.286 NA
HETATM   28  H   UNL     1      39.382 -12.445   6.365  1.00  0.00     0.125 HD
HETATM   29  H   UNL     1      39.761 -13.529   7.556  1.00  0.00     0.125 HD
ENDBRANCH   2  27
BRANCH   3  30
HETATM   30  N   UNL     1      43.090 -13.598   6.875  1.00  0.00    -0.176 NA
HETATM   31  C   UNL     1      43.465 -12.466   6.367  1.00  0.00     0.153 C 
BRANCH  31  32
HETATM   32  C   UNL     1      44.528 -11.674   6.938  1.00  0.00     0.011 A 
HETATM   33  C   UNL     1      44.466 -10.970   8.184  1.00  0.00     0.004 A 
HETATM   34  C   UNL     1      45.639 -10.225   8.299  1.00  0.00     0.043 A 
HETATM   35  C   UNL     1      43.509 -10.885   9.218  1.00  0.00     0.014 A 
HETATM   36  C   UNL     1      45.891  -9.380   9.388  1.00  0.00     0.030 A 
HETATM   37  N   UNL     1      46.399 -10.494   7.184  1.00  0.00    -0.364 N 
HETATM   38  C   UNL     1      44.925  -9.312  10.397  1.00  0.00     0.002 A 
HETATM   39  C   UNL     1      43.751 -10.058  10.319  1.00  0.00     0.001 A 
HETATM   40  H   UNL     1      47.300 -10.078   6.990  1.00  0.00     0.165 HD
HETATM   41  C   UNL     1      45.748 -11.380   6.365  1.00  0.00     0.102 A 
ENDBRANCH  31  32
ENDBRANCH   3  30
TORSDOF 8
ENDMDL
MODEL 5
REMARK VINA RESULT:     -10.2      2.561      8.579
REMARK  8 active torsions:
REMARK  status: ('A' for Active; 'I' for Inactive)
REMARK    1  A    between atoms: C_4  and  C_5 
REMARK    2  A    between atoms: C_5  and  C_6 
REMARK    3  A    between atoms: C_6  and  C_7 
REMARK    4  A    between atoms: C_7  and  N_8 
REMARK       I    between atoms: N_8  and  C_9 
REMARK    5  A    between atoms: C_9  and  C_10 
REMARK    6  A    between atoms: C_11  and  N_12 
REMARK    7  A    between atoms: N_13  and  N_14 
REMARK    8  A    between atoms: C_15  and  C_16 
ROOT
HETATM    1  C   UNL     1      42.501 -10.455   5.558  1.00  0.00     0.104 C 
HETATM    2  C   UNL     1      43.529 -11.311   5.180  1.00  0.00     0.123 C 
HETATM    3  N   UNL     1      43.955 -11.932   6.355  1.00  0.00    -0.202 N 
HETATM    4  C   UNL     1      43.756 -11.021   7.376  1.00  0.00     0.183 A 
HETATM    5  C   UNL     1      42.780 -10.136   6.922  1.00  0.00     0.124 A 
HETATM    6  N   UNL     1      42.234  -9.216   7.757  1.00  0.00    -0.242 NA
HETATM    7  C   UNL     1      42.762  -9.191   8.993  1.00  0.00     0.086 A 
HETATM    8  C   UNL     1      43.775 -10.091   9.418  1.00  0.00     0.088 A 
HETATM    9  N   UNL     1      44.273 -11.054   8.625  1.00  0.00    -0.225 NA
HETATM   10  C   UNL     1      42.297  -8.236   9.889  1.00  0.00     0.034 A 
HETATM   11  C   UNL     1      42.814  -8.131  11.181  1.00  0.00     0.002 A 
HETATM   12  C   UNL     1      43.813  -9.003  11.591  1.00  0.00     0.002 A 
HETATM   13  C   UNL     1      44.279  -9.976  10.707  1.00  0.00     0.034 A 
ENDROOT
BRANCH   1  14
HETATM   14  C   UNL     1      41.350 -10.071   4.745  1.00  0.00     0.257 C 
HETATM   15  N   UNL     1      41.703  -9.469   3.542  1.00  0.00    -0.357 N 
HETATM   16  H   UNL     1      42.701  -9.305   3.464  1.00  0.00     0.162 HD
HETATM   17  O   UNL     1      40.198 -10.388   5.013  1.00  0.00    -0.267 OA
BRANCH  15  18
HETATM   18  C   UNL     1      41.141  -9.941   2.294  1.00  0.00     0.123 C 
BRANCH  18  19
HETATM   19  C   UNL     1      41.765 -11.172   1.653  1.00  0.00     0.024 C 
BRANCH  19  20
HETATM   20  C   UNL     1      40.732 -12.155   1.096  1.00  0.00     0.040 C 
BRANCH  20  21
HETATM   21  C   UNL     1      40.597 -13.439   1.888  1.00  0.00    -0.058 A 
HETATM   22  C   UNL     1      40.748 -13.489   3.282  1.00  0.00     0.007 A 
HETATM   23  C   UNL     1      40.648 -14.700   3.969  1.00  0.00     0.001 A 
HETATM   24  C   UNL     1      40.365 -15.875   3.276  1.00  0.00     0.000 A 
HETATM   25  C   UNL     1      40.174 -15.837   1.897  1.00  0.00     0.001 A 
HETATM   26  C   UNL     1      40.285 -14.626   1.209  1.00  0.00     0.007 A 
ENDBRANCH  20  21
ENDBRANCH  19  20
ENDBRANCH  18  19
ENDBRANCH  15  18
ENDBRANCH   1  14
BRANCH   2  27
HETATM   27  N   UNL     1      43.975 -11.712   3.946  1.00  0.00    -0.286 NA
HETATM   28  H   UNL     1      43.613 -11.181   3.147  1.00  0.00     0.125 HD
HETATM   29  H   UNL     1      44.997 -11.760   3.843  1.00  0.00     0.125 HD
ENDBRANCH   2  27
BRANCH   3  30
HETATM   30  N   UNL     1      44.357 -13.240   6.508  1.00  0.00    -0.176 NA
HETATM   31  C   UNL     1      43.359 -14.061   6.422  1.00  0.00     0.153 C 
BRANCH  31  32
HETATM   32  C   UNL     1      43.499 -15.480   6.650  1.00  0.00     0.011 A 
HETATM   33  C   UNL     1      43.626 -16.479   5.632  1.00  0.00     0.004 A 
HETATM   34  C   UNL     1      43.599 -17.721   6.263  1.00  0.00     0.043 A 
HETATM   35  C   UNL     1      43.744 -16.440   4.225  1.00  0.00     0.014 A 
HETATM   36  C   UNL     1      43.660 -18.928   5.556  1.00  0.00     0.030 A 
HETATM   37  N   UNL     1      43.495 -17.485   7.616  1.00  0.00    -0.364 N 
HETATM   38  C   UNL     1      43.773 -18.862   4.163  1.00  0.00     0.002 A 
HETATM   39  C   UNL     1      43.821 -17.635   3.504  1.00  0.00     0.001 A 
HETATM   40  H   UNL     1      43.438 -18.206   8.321  1.00  0.00     0.165 HD
HETATM   41  C   UNL     1      43.453 -16.137   7.861  1.00  0.00     0.102 A 
ENDBRANCH  31  32
ENDBRANCH   3  30
TORSDOF 8
ENDMDL
MODEL 6
REMARK VINA RESULT:     -10.0      3.252      5.030
REMARK  8 active torsions:
REMARK  status: ('A' for Active; 'I' for Inactive)
REMARK    1  A    between atoms: C_4  and  C_5 
REMARK    2  A    between atoms: C_5  and  C_6 
REMARK    3  A    between atoms: C_6  and  C_7 
REMARK    4  A    between atoms: C_7  and  N_8 
REMARK       I    between atoms: N_8  and  C_9 
REMARK    5  A    between atoms: C_9  and  C_10 
REMARK    6  A    between atoms: C_11  and  N_12 
REMARK    7  A    between atoms: N_13  and  N_14 
REMARK    8  A    between atoms: C_15  and  C_16 
ROOT
HETATM    1  C   UNL     1      42.952 -14.586   4.627  1.00  0.00     0.104 C 
HETATM    2  C   UNL     1      43.218 -14.025   3.383  1.00  0.00     0.123 C 
HETATM    3  N   UNL     1      42.977 -15.036   2.453  1.00  0.00    -0.202 N 
HETATM    4  C   UNL     1      43.282 -16.230   3.080  1.00  0.00     0.183 A 
HETATM    5  C   UNL     1      43.185 -15.984   4.449  1.00  0.00     0.124 A 
HETATM    6  N   UNL     1      43.261 -17.001   5.344  1.00  0.00    -0.242 NA
HETATM    7  C   UNL     1      43.506 -18.209   4.807  1.00  0.00     0.086 A 
HETATM    8  C   UNL     1      43.626 -18.422   3.408  1.00  0.00     0.088 A 
HETATM    9  N   UNL     1      43.481 -17.438   2.507  1.00  0.00    -0.225 NA
HETATM   10  C   UNL     1      43.658 -19.293   5.664  1.00  0.00     0.034 A 
HETATM   11  C   UNL     1      43.940 -20.573   5.184  1.00  0.00     0.002 A 
HETATM   12  C   UNL     1      44.069 -20.777   3.817  1.00  0.00     0.002 A 
HETATM   13  C   UNL     1      43.905 -19.701   2.944  1.00  0.00     0.034 A 
ENDROOT
BRANCH   1  14
HETATM   14  C   UNL     1      42.447 -13.886   5.805  1.00  0.00     0.257 C 
HETATM   15  N   UNL     1      41.952 -12.618   5.519  1.00  0.00    -0.357 N 
HETATM   16  H   UNL     1      42.110 -12.343   4.556  1.00  0.00     0.162 HD
HETATM   17  O   UNL     1      42.320 -14.414   6.902  1.00  0.00    -0.267 OA
BRANCH  15  18
HETATM   18  C   UNL     1      40.636 -12.224   5.978  1.00  0.00     0.123 C 
BRANCH  18  19
HETATM   19  C   UNL     1      39.605 -11.833   4.929  1.00  0.00     0.024 C 
BRANCH  19  20
HETATM   20  C   UNL     1      40.212 -11.577   3.547  1.00  0.00     0.040 C 
BRANCH  20  21
HETATM   21  C   UNL     1      39.232 -11.047   2.521  1.00  0.00    -0.058 A 
HETATM   22  C   UNL     1      38.168 -11.812   2.022  1.00  0.00     0.007 A 
HETATM   23  C   UNL     1      37.309 -11.294   1.051  1.00  0.00     0.001 A 
HETATM   24  C   UNL     1      37.482  -9.993   0.586  1.00  0.00     0.000 A 
HETATM   25  C   UNL     1      38.511  -9.206   1.099  1.00  0.00     0.001 A 
HETATM   26  C   UNL     1      39.377  -9.728   2.063  1.00  0.00     0.007 A 
ENDBRANCH  20  21
ENDBRANCH  19  20
ENDBRANCH  18  19
ENDBRANCH  15  18
ENDBRANCH   1  14
BRANCH   2  27
HETATM   27  N   UNL     1      43.457 -12.729   3.000  1.00  0.00    -0.286 NA
HETATM   28  H   UNL     1      44.411 -12.387   3.157  1.00  0.00     0.125 HD
HETATM   29  H   UNL     1      43.208 -12.505   2.029  1.00  0.00     0.125 HD
ENDBRANCH   2  27
BRANCH   3  30
HETATM   30  N   UNL     1      42.410 -14.903   1.205  1.00  0.00    -0.176 NA
HETATM   31  C   UNL     1      41.263 -14.301   1.262  1.00  0.00     0.153 C 
BRANCH  31  32
HETATM   32  C   UNL     1      40.418 -14.130   0.104  1.00  0.00     0.011 A 
HETATM   33  C   UNL     1      40.310 -12.937  -0.680  1.00  0.00     0.004 A 
HETATM   34  C   UNL     1      39.295 -13.142  -1.613  1.00  0.00     0.043 A 
HETATM   35  C   UNL     1      40.974 -11.691  -0.670  1.00  0.00     0.014 A 
HETATM   36  C   UNL     1      38.894 -12.155  -2.521  1.00  0.00     0.030 A 
HETATM   37  N   UNL     1      38.829 -14.424  -1.425  1.00  0.00    -0.364 N 
HETATM   38  C   UNL     1      39.566 -10.928  -2.488  1.00  0.00     0.002 A 
HETATM   39  C   UNL     1      40.597 -10.698  -1.580  1.00  0.00     0.001 A 
HETATM   40  H   UNL     1      38.075 -14.843  -1.953  1.00  0.00     0.165 HD
HETATM   41  C   UNL     1      39.511 -15.035  -0.405  1.00  0.00     0.102 A 
ENDBRANCH  31  32
ENDBRANCH   3  30
TORSDOF 8
ENDMDL
MODEL 7
REMARK VINA RESULT:     -10.0      3.721      6.813
REMARK  8 active torsions:
REMARK  status: ('A' for Active; 'I' for Inactive)
REMARK    1  A    between atoms: C_4  and  C_5 
REMARK    2  A    between atoms: C_5  and  C_6 
REMARK    3  A    between atoms: C_6  and  C_7 
REMARK    4  A    between atoms: C_7  and  N_8 
REMARK       I    between atoms: N_8  and  C_9 
REMARK    5  A    between atoms: C_9  and  C_10 
REMARK    6  A    between atoms: C_11  and  N_12 
REMARK    7  A    between atoms: N_13  and  N_14 
REMARK    8  A    between atoms: C_15  and  C_16 
ROOT
HETATM    1  C   UNL     1      40.548 -11.081   6.375  1.00  0.00     0.104 C 
HETATM    2  C   UNL     1      40.690 -11.875   5.243  1.00  0.00     0.123 C 
HETATM    3  N   UNL     1      41.940 -12.484   5.363  1.00  0.00    -0.202 N 
HETATM    4  C   UNL     1      42.746 -11.598   6.052  1.00  0.00     0.183 A 
HETATM    5  C   UNL     1      41.885 -10.763   6.763  1.00  0.00     0.124 A 
HETATM    6  N   UNL     1      42.369  -9.883   7.676  1.00  0.00    -0.242 NA
HETATM    7  C   UNL     1      43.709  -9.843   7.768  1.00  0.00     0.086 A 
HETATM    8  C   UNL     1      44.561 -10.691   7.010  1.00  0.00     0.088 A 
HETATM    9  N   UNL     1      44.094 -11.616   6.156  1.00  0.00    -0.225 NA
HETATM   10  C   UNL     1      44.284  -8.925   8.639  1.00  0.00     0.034 A 
HETATM   11  C   UNL     1      45.668  -8.806   8.771  1.00  0.00     0.002 A 
HETATM   12  C   UNL     1      46.499  -9.627   8.020  1.00  0.00     0.002 A 
HETATM   13  C   UNL     1      45.936 -10.563   7.152  1.00  0.00     0.034 A 
ENDROOT
BRANCH   1  14
HETATM   14  C   UNL     1      39.297 -10.752   7.052  1.00  0.00     0.257 C 
HETATM   15  N   UNL     1      39.452 -10.531   8.417  1.00  0.00    -0.357 N 
HETATM   16  H   UNL     1      40.393 -10.728   8.741  1.00  0.00     0.162 HD
HETATM   17  O   UNL     1      38.246 -10.532   6.462  1.00  0.00    -0.267 OA
BRANCH  15  18
HETATM   18  C   UNL     1      38.917  -9.333   9.031  1.00  0.00     0.123 C 
BRANCH  18  19
HETATM   19  C   UNL     1      39.409  -8.967  10.424  1.00  0.00     0.024 C 
BRANCH  19  20
HETATM   20  C   UNL     1      40.699  -9.689  10.821  1.00  0.00     0.040 C 
BRANCH  20  21
HETATM   21  C   UNL     1      41.444  -9.053  11.976  1.00  0.00    -0.058 A 
HETATM   22  C   UNL     1      41.294  -9.482  13.303  1.00  0.00     0.007 A 
HETATM   23  C   UNL     1      41.975  -8.845  14.341  1.00  0.00     0.001 A 
HETATM   24  C   UNL     1      42.840  -7.789  14.066  1.00  0.00     0.000 A 
HETATM   25  C   UNL     1      43.030  -7.375  12.749  1.00  0.00     0.001 A 
HETATM   26  C   UNL     1      42.340  -8.006  11.712  1.00  0.00     0.007 A 
ENDBRANCH  20  21
ENDBRANCH  19  20
ENDBRANCH  18  19
ENDBRANCH  15  18
ENDBRANCH   1  14
BRANCH   2  27
HETATM   27  N   UNL     1      39.798 -12.237   4.265  1.00  0.00    -0.286 NA
HETATM   28  H   UNL     1      40.197 -12.725   3.456  1.00  0.00     0.125 HD
HETATM   29  H   UNL     1      38.992 -12.787   4.589  1.00  0.00     0.125 HD
ENDBRANCH   2  27
BRANCH   3  30
HETATM   30  N   UNL     1      42.278 -13.770   5.004  1.00  0.00    -0.176 NA
HETATM   31  C   UNL     1      42.512 -14.511   6.040  1.00  0.00     0.153 C 
BRANCH  31  32
HETATM   32  C   UNL     1      42.986 -15.871   5.931  1.00  0.00     0.011 A 
HETATM   33  C   UNL     1      43.224 -16.575   4.707  1.00  0.00     0.004 A 
HETATM   34  C   UNL     1      43.538 -17.892   5.039  1.00  0.00     0.043 A 
HETATM   35  C   UNL     1      43.182 -16.215   3.342  1.00  0.00     0.014 A 
HETATM   36  C   UNL     1      43.790 -18.873   4.073  1.00  0.00     0.030 A 
HETATM   37  N   UNL     1      43.527 -17.975   6.414  1.00  0.00    -0.364 N 
HETATM   38  C   UNL     1      43.740 -18.491   2.728  1.00  0.00     0.002 A 
HETATM   39  C   UNL     1      43.446 -17.179   2.364  1.00  0.00     0.001 A 
HETATM   40  H   UNL     1      43.704 -18.820   6.938  1.00  0.00     0.165 HD
HETATM   41  C   UNL     1      43.213 -16.758   6.962  1.00  0.00     0.102 A 
ENDBRANCH  31  32
ENDBRANCH   3  30
TORSDOF 8
ENDMDL
MODEL 8
REMARK VINA RESULT:      -9.5      2.934      6.106
REMARK  8 active torsions:
REMARK  status: ('A' for Active; 'I' for Inactive)
REMARK    1  A    between atoms: C_4  and  C_5 
REMARK    2  A    between atoms: C_5  and  C_6 
REMARK    3  A    between atoms: C_6  and  C_7 
REMARK    4  A    between atoms: C_7  and  N_8 
REMARK       I    between atoms: N_8  and  C_9 
REMARK    5  A    between atoms: C_9  and  C_10 
REMARK    6  A    between atoms: C_11  and  N_12 
REMARK    7  A    between atoms: N_13  and  N_14 
REMARK    8  A    between atoms: C_15  and  C_16 
ROOT
HETATM    1  C   UNL     1      40.506 -10.211   6.860  1.00  0.00     0.104 C 
HETATM    2  C   UNL     1      40.215 -10.968   5.731  1.00  0.00     0.123 C 
HETATM    3  N   UNL     1      41.243 -11.906   5.629  1.00  0.00    -0.202 N 
HETATM    4  C   UNL     1      42.375 -11.308   6.148  1.00  0.00     0.183 A 
HETATM    5  C   UNL     1      41.926 -10.295   6.994  1.00  0.00     0.124 A 
HETATM    6  N   UNL     1      42.792  -9.622   7.793  1.00  0.00    -0.242 NA
HETATM    7  C   UNL     1      44.084  -9.962   7.639  1.00  0.00     0.086 A 
HETATM    8  C   UNL     1      44.512 -10.983   6.749  1.00  0.00     0.088 A 
HETATM    9  N   UNL     1      43.660 -11.706   6.005  1.00  0.00    -0.225 NA
HETATM   10  C   UNL     1      45.039  -9.277   8.380  1.00  0.00     0.034 A 
HETATM   11  C   UNL     1      46.401  -9.554   8.256  1.00  0.00     0.002 A 
HETATM   12  C   UNL     1      46.819 -10.543   7.376  1.00  0.00     0.002 A 
HETATM   13  C   UNL     1      45.871 -11.250   6.637  1.00  0.00     0.034 A 
ENDROOT
BRANCH   1  14
HETATM   14  C   UNL     1      39.540  -9.573   7.750  1.00  0.00     0.257 C 
HETATM   15  N   UNL     1      39.918  -9.609   9.088  1.00  0.00    -0.357 N 
HETATM   16  H   UNL     1      40.757 -10.158   9.244  1.00  0.00     0.162 HD
HETATM   17  O   UNL     1      38.577  -8.929   7.352  1.00  0.00    -0.267 OA
BRANCH  15  18
HETATM   18  C   UNL     1      39.918  -8.398   9.882  1.00  0.00     0.123 C 
BRANCH  18  19
HETATM   19  C   UNL     1      40.576  -7.159   9.292  1.00  0.00     0.024 C 
BRANCH  19  20
HETATM   20  C   UNL     1      42.065  -7.045   9.627  1.00  0.00     0.040 C 
BRANCH  20  21
HETATM   21  C   UNL     1      42.377  -7.054  11.110  1.00  0.00    -0.058 A 
HETATM   22  C   UNL     1      41.980  -6.022  11.973  1.00  0.00     0.007 A 
HETATM   23  C   UNL     1      42.318  -6.055  13.327  1.00  0.00     0.001 A 
HETATM   24  C   UNL     1      43.030  -7.134  13.845  1.00  0.00     0.000 A 
HETATM   25  C   UNL     1      43.398  -8.185  13.009  1.00  0.00     0.001 A 
HETATM   26  C   UNL     1      43.069  -8.147  11.652  1.00  0.00     0.007 A 
ENDBRANCH  20  21
ENDBRANCH  19  20
ENDBRANCH  18  19
ENDBRANCH  15  18
ENDBRANCH   1  14
BRANCH   2  27
HETATM   27  N   UNL     1      39.097 -11.027   4.936  1.00  0.00    -0.286 NA
HETATM   28  H   UNL     1      38.808 -11.966   4.643  1.00  0.00     0.125 HD
HETATM   29  H   UNL     1      38.266 -10.554   5.313  1.00  0.00     0.125 HD
ENDBRANCH   2  27
BRANCH   3  30
HETATM   30  N   UNL     1      41.135 -13.220   5.230  1.00  0.00    -0.176 NA
HETATM   31  C   UNL     1      41.492 -13.376   3.994  1.00  0.00     0.153 C 
BRANCH  31  32
HETATM   32  C   UNL     1      41.372 -14.639   3.305  1.00  0.00     0.011 A 
HETATM   33  C   UNL     1      42.227 -15.773   3.490  1.00  0.00     0.004 A 
HETATM   34  C   UNL     1      41.859 -16.730   2.545  1.00  0.00     0.043 A 
HETATM   35  C   UNL     1      43.295 -16.067   4.366  1.00  0.00     0.014 A 
HETATM   36  C   UNL     1      42.521 -17.957   2.417  1.00  0.00     0.030 A 
HETATM   37  N   UNL     1      40.798 -16.210   1.837  1.00  0.00    -0.364 N 
HETATM   38  C   UNL     1      43.578 -18.222   3.295  1.00  0.00     0.002 A 
HETATM   39  C   UNL     1      43.958 -17.294   4.262  1.00  0.00     0.001 A 
HETATM   40  H   UNL     1      40.334 -16.681   1.073  1.00  0.00     0.165 HD
HETATM   41  C   UNL     1      40.485 -14.958   2.299  1.00  0.00     0.102 A 
ENDBRANCH  31  32
ENDBRANCH   3  30
TORSDOF 8
ENDMDL
MODEL 9
REMARK VINA RESULT:      -9.5      2.917      7.385
REMARK  8 active torsions:
REMARK  status: ('A' for Active; 'I' for Inactive)
REMARK    1  A    between atoms: C_4  and  C_5 
REMARK    2  A    between atoms: C_5  and  C_6 
REMARK    3  A    between atoms: C_6  and  C_7 
REMARK    4  A    between atoms: C_7  and  N_8 
REMARK       I    between atoms: N_8  and  C_9 
REMARK    5  A    between atoms: C_9  and  C_10 
REMARK    6  A    between atoms: C_11  and  N_12 
REMARK    7  A    between atoms: N_13  and  N_14 
REMARK    8  A    between atoms: C_15  and  C_16 
ROOT
HETATM    1  C   UNL     1      41.680 -13.089   6.027  1.00  0.00     0.104 C 
HETATM    2  C   UNL     1      40.606 -13.762   5.455  1.00  0.00     0.123 C 
HETATM    3  N   UNL     1      40.105 -12.908   4.472  1.00  0.00    -0.202 N 
HETATM    4  C   UNL     1      40.337 -11.619   4.913  1.00  0.00     0.183 A 
HETATM    5  C   UNL     1      41.385 -11.706   5.828  1.00  0.00     0.124 A 
HETATM    6  N   UNL     1      41.969 -10.585   6.323  1.00  0.00    -0.242 NA
HETATM    7  C   UNL     1      41.409  -9.431   5.920  1.00  0.00     0.086 A 
HETATM    8  C   UNL     1      40.324  -9.378   5.005  1.00  0.00     0.088 A 
HETATM    9  N   UNL     1      39.783 -10.475   4.451  1.00  0.00    -0.225 NA
HETATM   10  C   UNL     1      41.913  -8.240   6.429  1.00  0.00     0.034 A 
HETATM   11  C   UNL     1      41.368  -7.004   6.079  1.00  0.00     0.002 A 
HETATM   12  C   UNL     1      40.299  -6.955   5.194  1.00  0.00     0.002 A 
HETATM   13  C   UNL     1      39.793  -8.141   4.663  1.00  0.00     0.034 A 
ENDROOT
BRANCH   1  14
HETATM   14  C   UNL     1      42.877 -13.696   6.601  1.00  0.00     0.257 C 
HETATM   15  N   UNL     1      42.599 -14.759   7.453  1.00  0.00    -0.357 N 
HETATM   16  H   UNL     1      41.605 -14.881   7.616  1.00  0.00     0.162 HD
HETATM   17  O   UNL     1      44.015 -13.411   6.249  1.00  0.00    -0.267 OA
BRANCH  15  18
HETATM   18  C   UNL     1      43.272 -16.030   7.284  1.00  0.00     0.123 C 
BRANCH  18  19
HETATM   19  C   UNL     1      43.009 -16.809   6.003  1.00  0.00     0.024 C 
BRANCH  19  20
HETATM   20  C   UNL     1      44.230 -17.586   5.504  1.00  0.00     0.040 C 
BRANCH  20  21
HETATM   21  C   UNL     1      43.943 -18.543   4.366  1.00  0.00    -0.058 A 
HETATM   22  C   UNL     1      43.479 -18.115   3.113  1.00  0.00     0.007 A 
HETATM   23  C   UNL     1      43.194 -19.036   2.104  1.00  0.00     0.001 A 
HETATM   24  C   UNL     1      43.398 -20.396   2.320  1.00  0.00     0.000 A 
HETATM   25  C   UNL     1      43.895 -20.835   3.545  1.00  0.00     0.001 A 
HETATM   26  C   UNL     1      44.169 -19.915   4.559  1.00  0.00     0.007 A 
ENDBRANCH  20  21
ENDBRANCH  19  20
ENDBRANCH  18  19
ENDBRANCH  15  18
ENDBRANCH   1  14
BRANCH   2  27
HETATM   27  N   UNL     1      40.169 -15.057   5.583  1.00  0.00    -0.286 NA
HETATM   28  H   UNL     1      40.054 -15.395   6.545  1.00  0.00     0.125 HD
HETATM   29  H   UNL     1      39.304 -15.280   5.075  1.00  0.00     0.125 HD
ENDBRANCH   2  27
BRANCH   3  30
HETATM   30  N   UNL     1      39.609 -13.261   3.236  1.00  0.00    -0.176 NA
HETATM   31  C   UNL     1      40.540 -13.716   2.458  1.00  0.00     0.153 C 
BRANCH  31  32
HETATM   32  C   UNL     1      40.299 -14.057   1.077  1.00  0.00     0.011 A 
HETATM   33  C   UNL     1      40.498 -13.188  -0.044  1.00  0.00     0.004 A 
HETATM   34  C   UNL     1      40.021 -13.849  -1.174  1.00  0.00     0.043 A 
HETATM   35  C   UNL     1      41.026 -11.886  -0.197  1.00  0.00     0.014 A 
HETATM   36  C   UNL     1      40.024 -13.266  -2.447  1.00  0.00     0.030 A 
HETATM   37  N   UNL     1      39.582 -15.088  -0.761  1.00  0.00    -0.364 N 
HETATM   38  C   UNL     1      40.550 -11.975  -2.570  1.00  0.00     0.002 A 
HETATM   39  C   UNL     1      41.050 -11.294  -1.463  1.00  0.00     0.001 A 
HETATM   40  H   UNL     1      39.168 -15.780  -1.369  1.00  0.00     0.165 HD
HETATM   41  C   UNL     1      39.761 -15.230   0.590  1.00  0.00     0.102 A 
ENDBRANCH  31  32
ENDBRANCH   3  30
TORSDOF 8
ENDMDL
MODEL 10
REMARK VINA RESULT:      -9.5      1.712      8.441
REMARK  8 active torsions:
REMARK  status: ('A' for Active; 'I' for Inactive)
REMARK    1  A    between atoms: C_4  and  C_5 
REMARK    2  A    between atoms: C_5  and  C_6 
REMARK    3  A    between atoms: C_6  and  C_7 
REMARK    4  A    between atoms: C_7  and  N_8 
REMARK       I    between atoms: N_8  and  C_9 
REMARK    5  A    between atoms: C_9  and  C_10 
REMARK    6  A    between atoms: C_11  and  N_12 
REMARK    7  A    between atoms: N_13  and  N_14 
REMARK    8  A    between atoms: C_15  and  C_16 
ROOT
HETATM    1  C   UNL     1      41.416 -10.073   4.295  1.00  0.00     0.104 C 
HETATM    2  C   UNL     1      42.134 -10.562   3.210  1.00  0.00     0.123 C 
HETATM    3  N   UNL     1      43.075 -11.443   3.746  1.00  0.00    -0.202 N 
HETATM    4  C   UNL     1      43.393 -10.963   5.002  1.00  0.00     0.183 A 
HETATM    5  C   UNL     1      42.318 -10.169   5.398  1.00  0.00     0.124 A 
HETATM    6  N   UNL     1      42.243  -9.682   6.663  1.00  0.00    -0.242 NA
HETATM    7  C   UNL     1      43.302  -9.965   7.441  1.00  0.00     0.086 A 
HETATM    8  C   UNL     1      44.395 -10.757   6.999  1.00  0.00     0.088 A 
HETATM    9  N   UNL     1      44.449 -11.305   5.775  1.00  0.00    -0.225 NA
HETATM   10  C   UNL     1      43.327  -9.451   8.732  1.00  0.00     0.034 A 
HETATM   11  C   UNL     1      44.403  -9.679   9.591  1.00  0.00     0.002 A 
HETATM   12  C   UNL     1      45.477 -10.443   9.153  1.00  0.00     0.002 A 
HETATM   13  C   UNL     1      45.458 -10.978   7.865  1.00  0.00     0.034 A 
ENDROOT
BRANCH   1  14
HETATM   14  C   UNL     1      40.015  -9.659   4.292  1.00  0.00     0.257 C 
HETATM   15  N   UNL     1      39.554  -9.291   3.033  1.00  0.00    -0.357 N 
HETATM   16  H   UNL     1      40.290  -9.275   2.335  1.00  0.00     0.162 HD
HETATM   17  O   UNL     1      39.274  -9.776   5.260  1.00  0.00    -0.267 OA
BRANCH  15  18
HETATM   18  C   UNL     1      38.331  -9.858   2.505  1.00  0.00     0.123 C 
BRANCH  18  19
HETATM   19  C   UNL     1      38.421 -11.190   1.774  1.00  0.00     0.024 C 
BRANCH  19  20
HETATM   20  C   UNL     1      38.763 -11.044   0.289  1.00  0.00     0.040 C 
BRANCH  20  21
HETATM   21  C   UNL     1      38.875 -12.355  -0.461  1.00  0.00    -0.058 A 
HETATM   22  C   UNL     1      39.739 -13.385  -0.061  1.00  0.00     0.007 A 
HETATM   23  C   UNL     1      39.834 -14.565  -0.801  1.00  0.00     0.001 A 
HETATM   24  C   UNL     1      39.045 -14.746  -1.934  1.00  0.00     0.000 A 
HETATM   25  C   UNL     1      38.153 -13.749  -2.323  1.00  0.00     0.001 A 
HETATM   26  C   UNL     1      38.066 -12.564  -1.589  1.00  0.00     0.007 A 
ENDBRANCH  20  21
ENDBRANCH  19  20
ENDBRANCH  18  19
ENDBRANCH  15  18
ENDBRANCH   1  14
BRANCH   2  27
HETATM   27  N   UNL     1      41.929 -10.455   1.858  1.00  0.00    -0.286 NA
HETATM   28  H   UNL     1      42.746 -10.175   1.304  1.00  0.00     0.125 HD
HETATM   29  H   UNL     1      41.525 -11.285   1.408  1.00  0.00     0.125 HD
ENDBRANCH   2  27
BRANCH   3  30
HETATM   30  N   UNL     1      43.501 -12.636   3.206  1.00  0.00    -0.176 NA
HETATM   31  C   UNL     1      42.587 -13.550   3.283  1.00  0.00     0.153 C 
BRANCH  31  32
HETATM   32  C   UNL     1      42.821 -14.917   2.881  1.00  0.00     0.011 A 
HETATM   33  C   UNL     1      43.222 -15.984   3.748  1.00  0.00     0.004 A 
HETATM   34  C   UNL     1      43.470 -17.099   2.949  1.00  0.00     0.043 A 
HETATM   35  C   UNL     1      43.413 -16.098   5.143  1.00  0.00     0.014 A 
HETATM   36  C   UNL     1      43.924 -18.316   3.472  1.00  0.00     0.030 A 
HETATM   37  N   UNL     1      43.196 -16.733   1.650  1.00  0.00    -0.364 N 
HETATM   38  C   UNL     1      44.108 -18.401   4.857  1.00  0.00     0.002 A 
HETATM   39  C   UNL     1      43.851 -17.310   5.684  1.00  0.00     0.001 A 
HETATM   40  H   UNL     1      43.304 -17.340   0.849  1.00  0.00     0.165 HD
HETATM   41  C   UNL     1      42.787 -15.426   1.600  1.00  0.00     0.102 A 
ENDBRANCH  31  32
ENDBRANCH   3  30
TORSDOF 8
ENDMDL
