MODEL 1
REMARK VINA RESULT:      -8.3      0.000      0.000
REMARK  3 active torsions:
REMARK  status: ('A' for Active; 'I' for Inactive)
REMARK    1  A    between atoms: C_3  and  N_4 
REMARK       I    between atoms: N_4  and  C_5 
REMARK    2  A    between atoms: C_5  and  C_6 
REMARK    3  A    between atoms: C_6  and  C_7 
ROOT
HETATM    1  C   UNL     1      41.873 -15.495   6.809  1.00  0.00     0.286 C 
HETATM    2  N   UNL     1      42.755 -14.359   6.298  1.00  0.00    -0.056 N 
HETATM    3  H   UNL     1      42.766 -13.637   7.030  1.00  0.00     0.278 HD
HETATM    4  H   UNL     1      43.739 -14.705   6.278  1.00  0.00     0.278 HD
HETATM    5  C   UNL     1      42.380 -13.708   4.998  1.00  0.00     0.209 C 
HETATM    6  C   UNL     1      40.871 -13.369   5.005  1.00  0.00     0.115 C 
HETATM    7  N   UNL     1      40.039 -14.482   5.460  1.00  0.00    -0.353 N 
HETATM    8  C   UNL     1      40.379 -15.285   6.519  1.00  0.00     0.249 C 
HETATM    9  O   UNL     1      39.509 -15.895   7.132  1.00  0.00    -0.271 OA
HETATM   10  C   UNL     1      42.821 -14.568   3.814  1.00  0.00     0.035 C 
HETATM   11  C   UNL     1      42.358 -13.964   2.492  1.00  0.00     0.002 C 
HETATM   12  C   UNL     1      40.847 -13.756   2.485  1.00  0.00     0.002 C 
HETATM   13  C   UNL     1      40.403 -12.857   3.638  1.00  0.00     0.027 C 
HETATM   14  H   UNL     1      39.029 -14.383   5.368  1.00  0.00     0.163 HD
ENDROOT
BRANCH   1  15
HETATM   15  C   UNL     1      42.256 -16.885   6.275  1.00  0.00     0.146 C 
BRANCH  15  16
HETATM   16  C   UNL     1      43.726 -17.180   6.344  1.00  0.00     0.224 C 
HETATM   17  N   UNL     1      44.362 -17.928   5.409  1.00  0.00    -0.326 N 
HETATM   18  H   UNL     1      45.363 -18.000   5.597  1.00  0.00     0.169 HD
HETATM   19  O   UNL     1      44.394 -16.667   7.252  1.00  0.00    -0.273 OA
BRANCH  17  20
HETATM   20  C   UNL     1      43.975 -18.596   4.220  1.00  0.00     0.056 A 
HETATM   21  C   UNL     1      43.573 -17.973   3.037  1.00  0.00     0.031 A 
HETATM   22  C   UNL     1      43.223 -18.732   1.910  1.00  0.00     0.002 A 
HETATM   23  C   UNL     1      43.267 -20.122   1.948  1.00  0.00     0.002 A 
HETATM   24  C   UNL     1      43.655 -20.765   3.118  1.00  0.00     0.026 A 
HETATM   25  C   UNL     1      44.003 -20.010   4.241  1.00  0.00     0.060 A 
HETATM   26 CL   UNL     1      44.490 -20.866   5.668  1.00  0.00    -0.082 Cl
ENDBRANCH  17  20
ENDBRANCH  15  16
ENDBRANCH   1  15
TORSDOF 3
ENDMDL
MODEL 2
REMARK VINA RESULT:      -7.7      2.199      2.852
REMARK  3 active torsions:
REMARK  status: ('A' for Active; 'I' for Inactive)
REMARK    1  A    between atoms: C_3  and  N_4 
REMARK       I    between atoms: N_4  and  C_5 
REMARK    2  A    between atoms: C_5  and  C_6 
REMARK    3  A    between atoms: C_6  and  C_7 
ROOT
HETATM    1  C   UNL     1      42.053 -15.405   4.219  1.00  0.00     0.286 C 
HETATM    2  N   UNL     1      42.609 -14.066   3.741  1.00  0.00    -0.056 N 
HETATM    3  H   UNL     1      43.197 -13.699   4.501  1.00  0.00     0.278 HD
HETATM    4  H   UNL     1      43.289 -14.260   2.974  1.00  0.00     0.278 HD
HETATM    5  C   UNL     1      41.630 -12.999   3.345  1.00  0.00     0.209 C 
HETATM    6  C   UNL     1      40.539 -12.867   4.433  1.00  0.00     0.115 C 
HETATM    7  N   UNL     1      39.990 -14.156   4.849  1.00  0.00    -0.353 N 
HETATM    8  C   UNL     1      40.767 -15.270   5.049  1.00  0.00     0.249 C 
HETATM    9  O   UNL     1      40.374 -16.168   5.786  1.00  0.00    -0.271 OA
HETATM   10  C   UNL     1      41.083 -13.260   1.941  1.00  0.00     0.035 C 
HETATM   11  C   UNL     1      40.015 -12.237   1.567  1.00  0.00     0.002 C 
HETATM   12  C   UNL     1      38.891 -12.219   2.598  1.00  0.00     0.002 C 
HETATM   13  C   UNL     1      39.424 -11.911   3.997  1.00  0.00     0.027 C 
HETATM   14  H   UNL     1      39.179 -14.145   5.465  1.00  0.00     0.163 HD
ENDROOT
BRANCH   1  15
HETATM   15  C   UNL     1      41.771 -16.414   3.093  1.00  0.00     0.146 C 
BRANCH  15  16
HETATM   16  C   UNL     1      42.972 -16.737   2.252  1.00  0.00     0.224 C 
HETATM   17  N   UNL     1      43.794 -17.780   2.530  1.00  0.00    -0.326 N 
HETATM   18  H   UNL     1      44.539 -17.870   1.839  1.00  0.00     0.169 HD
HETATM   19  O   UNL     1      43.182 -16.068   1.232  1.00  0.00    -0.273 OA
BRANCH  17  20
HETATM   20  C   UNL     1      43.838 -18.789   3.524  1.00  0.00     0.056 A 
HETATM   21  C   UNL     1      43.933 -18.567   4.899  1.00  0.00     0.031 A 
HETATM   22  C   UNL     1      43.954 -19.642   5.799  1.00  0.00     0.002 A 
HETATM   23  C   UNL     1      43.885 -20.954   5.341  1.00  0.00     0.002 A 
HETATM   24  C   UNL     1      43.799 -21.201   3.975  1.00  0.00     0.026 A 
HETATM   25  C   UNL     1      43.778 -20.130   3.079  1.00  0.00     0.060 A 
HETATM   26 CL   UNL     1      43.658 -20.499   1.388  1.00  0.00    -0.082 Cl
ENDBRANCH  17  20
ENDBRANCH  15  16
ENDBRANCH   1  15
TORSDOF 3
ENDMDL
MODEL 3
REMARK VINA RESULT:      -7.3      2.579      6.272
REMARK  3 active torsions:
REMARK  status: ('A' for Active; 'I' for Inactive)
REMARK    1  A    between atoms: C_3  and  N_4 
REMARK       I    between atoms: N_4  and  C_5 
REMARK    2  A    between atoms: C_5  and  C_6 
REMARK    3  A    between atoms: C_6  and  C_7 
ROOT
HETATM    1  C   UNL     1      42.539 -16.157   4.175  1.00  0.00     0.286 C 
HETATM    2  N   UNL     1      43.943 -16.591   4.589  1.00  0.00    -0.056 N 
HETATM    3  H   UNL     1      44.603 -16.000   4.069  1.00  0.00     0.278 HD
HETATM    4  H   UNL     1      44.084 -16.304   5.582  1.00  0.00     0.278 HD
HETATM    5  C   UNL     1      44.326 -18.026   4.377  1.00  0.00     0.209 C 
HETATM    6  C   UNL     1      43.939 -18.460   2.944  1.00  0.00     0.115 C 
HETATM    7  N   UNL     1      42.577 -18.071   2.580  1.00  0.00    -0.353 N 
HETATM    8  C   UNL     1      42.038 -16.850   2.898  1.00  0.00     0.249 C 
HETATM    9  O   UNL     1      41.110 -16.397   2.237  1.00  0.00    -0.271 OA
HETATM   10  C   UNL     1      43.740 -18.912   5.477  1.00  0.00     0.035 C 
HETATM   11  C   UNL     1      44.042 -20.385   5.218  1.00  0.00     0.002 C 
HETATM   12  C   UNL     1      43.536 -20.812   3.844  1.00  0.00     0.002 C 
HETATM   13  C   UNL     1      44.155 -19.963   2.733  1.00  0.00     0.027 C 
HETATM   14  H   UNL     1      42.203 -18.434   1.704  1.00  0.00     0.163 HD
ENDROOT
BRANCH   1  15
HETATM   15  C   UNL     1      41.467 -16.357   5.259  1.00  0.00     0.146 C 
BRANCH  15  16
HETATM   16  C   UNL     1      41.790 -15.688   6.564  1.00  0.00     0.224 C 
HETATM   17  N   UNL     1      41.602 -14.360   6.765  1.00  0.00    -0.326 N 
HETATM   18  H   UNL     1      41.845 -14.083   7.717  1.00  0.00     0.169 HD
HETATM   19  O   UNL     1      42.179 -16.385   7.510  1.00  0.00    -0.273 OA
BRANCH  17  20
HETATM   20  C   UNL     1      41.115 -13.282   5.984  1.00  0.00     0.056 A 
HETATM   21  C   UNL     1      39.770 -13.022   5.714  1.00  0.00     0.031 A 
HETATM   22  C   UNL     1      39.396 -11.915   4.938  1.00  0.00     0.002 A 
HETATM   23  C   UNL     1      40.357 -11.054   4.418  1.00  0.00     0.002 A 
HETATM   24  C   UNL     1      41.704 -11.298   4.665  1.00  0.00     0.026 A 
HETATM   25  C   UNL     1      42.077 -12.400   5.438  1.00  0.00     0.060 A 
HETATM   26 CL   UNL     1      43.770 -12.648   5.723  1.00  0.00    -0.082 Cl
ENDBRANCH  17  20
ENDBRANCH  15  16
ENDBRANCH   1  15
TORSDOF 3
ENDMDL
MODEL 4
REMARK VINA RESULT:      -7.3      3.580      6.393
REMARK  3 active torsions:
REMARK  status: ('A' for Active; 'I' for Inactive)
REMARK    1  A    between atoms: C_3  and  N_4 
REMARK       I    between atoms: N_4  and  C_5 
REMARK    2  A    between atoms: C_5  and  C_6 
REMARK    3  A    between atoms: C_6  and  C_7 
ROOT
HETATM    1  C   UNL     1      40.480 -14.286   5.540  1.00  0.00     0.286 C 
HETATM    2  N   UNL     1      40.109 -14.097   4.071  1.00  0.00    -0.056 N 
HETATM    3  H   UNL     1      39.122 -14.367   3.975  1.00  0.00     0.278 HD
HETATM    4  H   UNL     1      40.106 -13.073   3.873  1.00  0.00     0.278 HD
HETATM    5  C   UNL     1      40.905 -14.847   3.043  1.00  0.00     0.209 C 
HETATM    6  C   UNL     1      41.032 -16.329   3.467  1.00  0.00     0.115 C 
HETATM    7  N   UNL     1      41.426 -16.490   4.866  1.00  0.00    -0.353 N 
HETATM    8  C   UNL     1      40.915 -15.719   5.879  1.00  0.00     0.249 C 
HETATM    9  O   UNL     1      40.920 -16.139   7.032  1.00  0.00    -0.271 OA
HETATM   10  C   UNL     1      42.244 -14.156   2.782  1.00  0.00     0.035 C 
HETATM   11  C   UNL     1      43.101 -14.963   1.812  1.00  0.00     0.002 C 
HETATM   12  C   UNL     1      43.309 -16.386   2.321  1.00  0.00     0.002 C 
HETATM   13  C   UNL     1      41.976 -17.101   2.539  1.00  0.00     0.027 C 
HETATM   14  H   UNL     1      41.658 -17.430   5.184  1.00  0.00     0.163 HD
ENDROOT
BRANCH   1  15
HETATM   15  C   UNL     1      41.581 -13.337   6.043  1.00  0.00     0.146 C 
BRANCH  15  16
HETATM   16  C   UNL     1      41.256 -11.882   5.869  1.00  0.00     0.224 C 
HETATM   17  N   UNL     1      42.121 -10.898   6.220  1.00  0.00    -0.326 N 
HETATM   18  H   UNL     1      41.749  -9.972   6.003  1.00  0.00     0.169 HD
HETATM   19  O   UNL     1      40.188 -11.571   5.325  1.00  0.00    -0.273 OA
BRANCH  17  20
HETATM   20  C   UNL     1      43.424 -10.854   6.775  1.00  0.00     0.056 A 
HETATM   21  C   UNL     1      43.728 -10.528   8.099  1.00  0.00     0.031 A 
HETATM   22  C   UNL     1      45.056 -10.529   8.550  1.00  0.00     0.002 A 
HETATM   23  C   UNL     1      46.099 -10.852   7.688  1.00  0.00     0.002 A 
HETATM   24  C   UNL     1      45.822 -11.171   6.363  1.00  0.00     0.026 A 
HETATM   25  C   UNL     1      44.499 -11.170   5.913  1.00  0.00     0.060 A 
HETATM   26 CL   UNL     1      44.213 -11.587   4.254  1.00  0.00    -0.082 Cl
ENDBRANCH  17  20
ENDBRANCH  15  16
ENDBRANCH   1  15
TORSDOF 3
ENDMDL
MODEL 5
REMARK VINA RESULT:      -7.2      2.541      3.582
REMARK  3 active torsions:
REMARK  status: ('A' for Active; 'I' for Inactive)
REMARK    1  A    between atoms: C_3  and  N_4 
REMARK       I    between atoms: N_4  and  C_5 
REMARK    2  A    between atoms: C_5  and  C_6 
REMARK    3  A    between atoms: C_6  and  C_7 
ROOT
HETATM    1  C   UNL     1      40.665 -15.872   2.356  1.00  0.00     0.286 C 
HETATM    2  N   UNL     1      39.454 -14.947   2.257  1.00  0.00    -0.056 N 
HETATM    3  H   UNL     1      38.924 -15.237   1.425  1.00  0.00     0.278 HD
HETATM    4  H   UNL     1      38.815 -15.176   3.049  1.00  0.00     0.278 HD
HETATM    5  C   UNL     1      39.703 -13.470   2.166  1.00  0.00     0.209 C 
HETATM    6  C   UNL     1      40.787 -13.192   1.098  1.00  0.00     0.115 C 
HETATM    7  N   UNL     1      41.956 -14.060   1.234  1.00  0.00    -0.353 N 
HETATM    8  C   UNL     1      41.864 -15.399   1.519  1.00  0.00     0.249 C 
HETATM    9  O   UNL     1      42.774 -16.158   1.206  1.00  0.00    -0.271 OA
HETATM   10  C   UNL     1      40.021 -12.888   3.544  1.00  0.00     0.035 C 
HETATM   11  C   UNL     1      40.372 -11.406   3.449  1.00  0.00     0.002 C 
HETATM   12  C   UNL     1      41.527 -11.180   2.479  1.00  0.00     0.002 C 
HETATM   13  C   UNL     1      41.198 -11.716   1.085  1.00  0.00     0.027 C 
HETATM   14  H   UNL     1      42.766 -13.852   0.652  1.00  0.00     0.163 HD
ENDROOT
BRANCH   1  15
HETATM   15  C   UNL     1      41.168 -16.108   3.790  1.00  0.00     0.146 C 
BRANCH  15  16
HETATM   16  C   UNL     1      42.594 -15.695   4.010  1.00  0.00     0.224 C 
HETATM   17  N   UNL     1      43.600 -16.596   4.136  1.00  0.00    -0.326 N 
HETATM   18  H   UNL     1      44.506 -16.139   4.248  1.00  0.00     0.169 HD
HETATM   19  O   UNL     1      42.872 -14.488   4.011  1.00  0.00    -0.273 OA
BRANCH  17  20
HETATM   20  C   UNL     1      43.694 -18.010   4.108  1.00  0.00     0.056 A 
HETATM   21  C   UNL     1      43.747 -18.795   2.954  1.00  0.00     0.031 A 
HETATM   22  C   UNL     1      43.855 -20.190   3.040  1.00  0.00     0.002 A 
HETATM   23  C   UNL     1      43.909 -20.823   4.278  1.00  0.00     0.002 A 
HETATM   24  C   UNL     1      43.849 -20.064   5.441  1.00  0.00     0.026 A 
HETATM   25  C   UNL     1      43.741 -18.674   5.356  1.00  0.00     0.060 A 
HETATM   26 CL   UNL     1      43.681 -17.778   6.839  1.00  0.00    -0.082 Cl
ENDBRANCH  17  20
ENDBRANCH  15  16
ENDBRANCH   1  15
TORSDOF 3
ENDMDL
MODEL 6
REMARK VINA RESULT:      -7.2      2.767      3.674
REMARK  3 active torsions:
REMARK  status: ('A' for Active; 'I' for Inactive)
REMARK    1  A    between atoms: C_3  and  N_4 
REMARK       I    between atoms: N_4  and  C_5 
REMARK    2  A    between atoms: C_5  and  C_6 
REMARK    3  A    between atoms: C_6  and  C_7 
ROOT
HETATM    1  C   UNL     1      41.896 -14.782   3.599  1.00  0.00     0.286 C 
HETATM    2  N   UNL     1      41.556 -14.860   5.086  1.00  0.00    -0.056 N 
HETATM    3  H   UNL     1      40.534 -14.950   5.154  1.00  0.00     0.278 HD
HETATM    4  H   UNL     1      41.909 -15.773   5.445  1.00  0.00     0.278 HD
HETATM    5  C   UNL     1      41.990 -13.724   5.966  1.00  0.00     0.209 C 
HETATM    6  C   UNL     1      41.598 -12.380   5.308  1.00  0.00     0.115 C 
HETATM    7  N   UNL     1      41.967 -12.309   3.895  1.00  0.00    -0.353 N 
HETATM    8  C   UNL     1      41.807 -13.359   3.027  1.00  0.00     0.249 C 
HETATM    9  O   UNL     1      41.709 -13.151   1.823  1.00  0.00    -0.271 OA
HETATM   10  C   UNL     1      43.475 -13.841   6.311  1.00  0.00     0.035 C 
HETATM   11  C   UNL     1      43.948 -12.641   7.124  1.00  0.00     0.002 C 
HETATM   12  C   UNL     1      43.658 -11.335   6.390  1.00  0.00     0.002 C 
HETATM   13  C   UNL     1      42.167 -11.187   6.084  1.00  0.00     0.027 C 
HETATM   14  H   UNL     1      41.862 -11.410   3.427  1.00  0.00     0.163 HD
ENDROOT
BRANCH   1  15
HETATM   15  C   UNL     1      43.282 -15.340   3.235  1.00  0.00     0.146 C 
BRANCH  15  16
HETATM   16  C   UNL     1      43.263 -16.322   2.100  1.00  0.00     0.224 C 
HETATM   17  N   UNL     1      43.410 -17.657   2.291  1.00  0.00    -0.326 N 
HETATM   18  H   UNL     1      43.341 -18.175   1.415  1.00  0.00     0.169 HD
HETATM   19  O   UNL     1      43.039 -15.906   0.955  1.00  0.00    -0.273 OA
BRANCH  17  20
HETATM   20  C   UNL     1      43.597 -18.497   3.417  1.00  0.00     0.056 A 
HETATM   21  C   UNL     1      43.651 -18.070   4.745  1.00  0.00     0.031 A 
HETATM   22  C   UNL     1      43.825 -18.992   5.788  1.00  0.00     0.002 A 
HETATM   23  C   UNL     1      43.952 -20.352   5.521  1.00  0.00     0.002 A 
HETATM   24  C   UNL     1      43.911 -20.800   4.205  1.00  0.00     0.026 A 
HETATM   25  C   UNL     1      43.737 -19.882   3.167  1.00  0.00     0.060 A 
HETATM   26 CL   UNL     1      43.683 -20.500   1.547  1.00  0.00    -0.082 Cl
ENDBRANCH  17  20
ENDBRANCH  15  16
ENDBRANCH   1  15
TORSDOF 3
ENDMDL
MODEL 7
REMARK VINA RESULT:      -7.2      4.535      6.115
REMARK  3 active torsions:
REMARK  status: ('A' for Active; 'I' for Inactive)
REMARK    1  A    between atoms: C_3  and  N_4 
REMARK       I    between atoms: N_4  and  C_5 
REMARK    2  A    between atoms: C_5  and  C_6 
REMARK    3  A    between atoms: C_6  and  C_7 
ROOT
HETATM    1  C   UNL     1      40.008 -11.330   1.015  1.00  0.00     0.286 C 
HETATM    2  N   UNL     1      40.516 -11.047  -0.397  1.00  0.00    -0.056 N 
HETATM    3  H   UNL     1      40.341 -10.051  -0.583  1.00  0.00     0.278 HD
HETATM    4  H   UNL     1      41.556 -11.117  -0.380  1.00  0.00     0.278 HD
HETATM    5  C   UNL     1      39.935 -11.847  -1.526  1.00  0.00     0.209 C 
HETATM    6  C   UNL     1      38.392 -11.861  -1.411  1.00  0.00     0.115 C 
HETATM    7  N   UNL     1      37.925 -12.173  -0.062  1.00  0.00    -0.353 N 
HETATM    8  C   UNL     1      38.508 -11.660   1.069  1.00  0.00     0.249 C 
HETATM    9  O   UNL     1      37.865 -11.579   2.110  1.00  0.00    -0.271 OA
HETATM   10  C   UNL     1      40.568 -13.237  -1.589  1.00  0.00     0.035 C 
HETATM   11  C   UNL     1      39.916 -14.092  -2.671  1.00  0.00     0.002 C 
HETATM   12  C   UNL     1      38.409 -14.186  -2.458  1.00  0.00     0.002 C 
HETATM   13  C   UNL     1      37.760 -12.802  -2.442  1.00  0.00     0.027 C 
HETATM   14  H   UNL     1      36.926 -12.330   0.065  1.00  0.00     0.163 HD
ENDROOT
BRANCH   1  15
HETATM   15  C   UNL     1      40.755 -12.460   1.744  1.00  0.00     0.146 C 
BRANCH  15  16
HETATM   16  C   UNL     1      42.138 -12.085   2.190  1.00  0.00     0.224 C 
HETATM   17  N   UNL     1      43.048 -13.009   2.590  1.00  0.00    -0.326 N 
HETATM   18  H   UNL     1      43.943 -12.580   2.829  1.00  0.00     0.169 HD
HETATM   19  O   UNL     1      42.482 -10.898   2.129  1.00  0.00    -0.273 OA
BRANCH  17  20
HETATM   20  C   UNL     1      43.060 -14.420   2.715  1.00  0.00     0.056 A 
HETATM   21  C   UNL     1      43.244 -15.324   1.666  1.00  0.00     0.031 A 
HETATM   22  C   UNL     1      43.254 -16.706   1.905  1.00  0.00     0.002 A 
HETATM   23  C   UNL     1      43.078 -17.207   3.191  1.00  0.00     0.002 A 
HETATM   24  C   UNL     1      42.884 -16.327   4.250  1.00  0.00     0.026 A 
HETATM   25  C   UNL     1      42.874 -14.950   4.013  1.00  0.00     0.060 A 
HETATM   26 CL   UNL     1      42.639 -13.901   5.374  1.00  0.00    -0.082 Cl
ENDBRANCH  17  20
ENDBRANCH  15  16
ENDBRANCH   1  15
TORSDOF 3
ENDMDL
MODEL 8
REMARK VINA RESULT:      -7.2      3.637      4.860
REMARK  3 active torsions:
REMARK  status: ('A' for Active; 'I' for Inactive)
REMARK    1  A    between atoms: C_3  and  N_4 
REMARK       I    between atoms: N_4  and  C_5 
REMARK    2  A    between atoms: C_5  and  C_6 
REMARK    3  A    between atoms: C_6  and  C_7 
ROOT
HETATM    1  C   UNL     1      40.389 -13.823   1.712  1.00  0.00     0.286 C 
HETATM    2  N   UNL     1      39.962 -12.428   1.262  1.00  0.00    -0.056 N 
HETATM    3  H   UNL     1      39.030 -12.258   1.662  1.00  0.00     0.278 HD
HETATM    4  H   UNL     1      40.571 -11.737   1.751  1.00  0.00     0.278 HD
HETATM    5  C   UNL     1      39.899 -12.153  -0.212  1.00  0.00     0.209 C 
HETATM    6  C   UNL     1      39.135 -13.296  -0.920  1.00  0.00     0.115 C 
HETATM    7  N   UNL     1      39.586 -14.624  -0.506  1.00  0.00    -0.353 N 
HETATM    8  C   UNL     1      39.873 -14.944   0.796  1.00  0.00     0.249 C 
HETATM    9  O   UNL     1      39.821 -16.111   1.169  1.00  0.00    -0.271 OA
HETATM   10  C   UNL     1      41.297 -11.894  -0.776  1.00  0.00     0.035 C 
HETATM   11  C   UNL     1      41.255 -11.710  -2.289  1.00  0.00     0.002 C 
HETATM   12  C   UNL     1      40.606 -12.912  -2.968  1.00  0.00     0.002 C 
HETATM   13  C   UNL     1      39.189 -13.149  -2.445  1.00  0.00     0.027 C 
HETATM   14  H   UNL     1      39.224 -15.425  -1.022  1.00  0.00     0.163 HD
ENDROOT
BRANCH   1  15
HETATM   15  C   UNL     1      41.910 -14.006   1.853  1.00  0.00     0.146 C 
BRANCH  15  16
HETATM   16  C   UNL     1      42.409 -13.877   3.263  1.00  0.00     0.224 C 
HETATM   17  N   UNL     1      42.955 -14.919   3.938  1.00  0.00    -0.326 N 
HETATM   18  H   UNL     1      43.267 -14.644   4.870  1.00  0.00     0.169 HD
HETATM   19  O   UNL     1      42.382 -12.764   3.805  1.00  0.00    -0.273 OA
BRANCH  17  20
HETATM   20  C   UNL     1      43.228 -16.278   3.643  1.00  0.00     0.056 A 
HETATM   21  C   UNL     1      42.868 -16.938   2.466  1.00  0.00     0.031 A 
HETATM   22  C   UNL     1      43.202 -18.286   2.270  1.00  0.00     0.002 A 
HETATM   23  C   UNL     1      43.895 -18.996   3.245  1.00  0.00     0.002 A 
HETATM   24  C   UNL     1      44.256 -18.363   4.430  1.00  0.00     0.026 A 
HETATM   25  C   UNL     1      43.924 -17.020   4.625  1.00  0.00     0.060 A 
HETATM   26 CL   UNL     1      44.409 -16.280   6.117  1.00  0.00    -0.082 Cl
ENDBRANCH  17  20
ENDBRANCH  15  16
ENDBRANCH   1  15
TORSDOF 3
ENDMDL
MODEL 9
REMARK VINA RESULT:      -7.1      3.151      4.767
REMARK  3 active torsions:
REMARK  status: ('A' for Active; 'I' for Inactive)
REMARK    1  A    between atoms: C_3  and  N_4 
REMARK       I    between atoms: N_4  and  C_5 
REMARK    2  A    between atoms: C_5  and  C_6 
REMARK    3  A    between atoms: C_6  and  C_7 
ROOT
HETATM    1  C   UNL     1      41.196 -12.392   3.402  1.00  0.00     0.286 C 
HETATM    2  N   UNL     1      40.799 -12.461   4.875  1.00  0.00    -0.056 N 
HETATM    3  H   UNL     1      40.046 -11.776   5.014  1.00  0.00     0.278 HD
HETATM    4  H   UNL     1      40.331 -13.379   5.035  1.00  0.00     0.278 HD
HETATM    5  C   UNL     1      41.863 -12.206   5.903  1.00  0.00     0.209 C 
HETATM    6  C   UNL     1      42.648 -10.926   5.529  1.00  0.00     0.115 C 
HETATM    7  N   UNL     1      43.054 -10.897   4.125  1.00  0.00    -0.353 N 
HETATM    8  C   UNL     1      42.235 -11.300   3.101  1.00  0.00     0.249 C 
HETATM    9  O   UNL     1      42.415 -10.874   1.966  1.00  0.00    -0.271 OA
HETATM   10  C   UNL     1      42.742 -13.443   6.093  1.00  0.00     0.035 C 
HETATM   11  C   UNL     1      43.885 -13.163   7.063  1.00  0.00     0.002 C 
HETATM   12  C   UNL     1      44.714 -11.969   6.600  1.00  0.00     0.002 C 
HETATM   13  C   UNL     1      43.852 -10.715   6.453  1.00  0.00     0.027 C 
HETATM   14  H   UNL     1      43.685 -10.152   3.834  1.00  0.00     0.163 HD
ENDROOT
BRANCH   1  15
HETATM   15  C   UNL     1      41.736 -13.713   2.828  1.00  0.00     0.146 C 
BRANCH  15  16
HETATM   16  C   UNL     1      40.722 -14.820   2.794  1.00  0.00     0.224 C 
HETATM   17  N   UNL     1      40.914 -15.999   3.436  1.00  0.00    -0.326 N 
HETATM   18  H   UNL     1      40.112 -16.622   3.331  1.00  0.00     0.169 HD
HETATM   19  O   UNL     1      39.646 -14.625   2.214  1.00  0.00    -0.273 OA
BRANCH  17  20
HETATM   20  C   UNL     1      41.939 -16.551   4.244  1.00  0.00     0.056 A 
HETATM   21  C   UNL     1      43.163 -17.037   3.778  1.00  0.00     0.031 A 
HETATM   22  C   UNL     1      44.116 -17.549   4.670  1.00  0.00     0.002 A 
HETATM   23  C   UNL     1      43.863 -17.588   6.037  1.00  0.00     0.002 A 
HETATM   24  C   UNL     1      42.648 -17.119   6.524  1.00  0.00     0.026 A 
HETATM   25  C   UNL     1      41.698 -16.608   5.636  1.00  0.00     0.060 A 
HETATM   26 CL   UNL     1      40.205 -16.026   6.302  1.00  0.00    -0.082 Cl
ENDBRANCH  17  20
ENDBRANCH  15  16
ENDBRANCH   1  15
TORSDOF 3
ENDMDL
MODEL 10
REMARK VINA RESULT:      -7.1     13.723     15.512
REMARK  3 active torsions:
REMARK  status: ('A' for Active; 'I' for Inactive)
REMARK    1  A    between atoms: C_3  and  N_4 
REMARK       I    between atoms: N_4  and  C_5 
REMARK    2  A    between atoms: C_5  and  C_6 
REMARK    3  A    between atoms: C_6  and  C_7 
ROOT
HETATM    1  C   UNL     1      48.109 -28.895   1.066  1.00  0.00     0.286 C 
HETATM    2  N   UNL     1      48.224 -28.363   2.493  1.00  0.00    -0.056 N 
HETATM    3  H   UNL     1      48.679 -27.443   2.432  1.00  0.00     0.278 HD
HETATM    4  H   UNL     1      47.262 -28.142   2.828  1.00  0.00     0.278 HD
HETATM    5  C   UNL     1      48.973 -29.194   3.494  1.00  0.00     0.209 C 
HETATM    6  C   UNL     1      50.322 -29.647   2.887  1.00  0.00     0.115 C 
HETATM    7  N   UNL     1      50.185 -30.190   1.536  1.00  0.00    -0.353 N 
HETATM    8  C   UNL     1      49.368 -29.632   0.586  1.00  0.00     0.249 C 
HETATM    9  O   UNL     1      49.592 -29.822  -0.605  1.00  0.00    -0.271 OA
HETATM   10  C   UNL     1      48.102 -30.343   4.004  1.00  0.00     0.035 C 
HETATM   11  C   UNL     1      48.885 -31.250   4.948  1.00  0.00     0.002 C 
HETATM   12  C   UNL     1      50.148 -31.778   4.276  1.00  0.00     0.002 C 
HETATM   13  C   UNL     1      51.048 -30.636   3.805  1.00  0.00     0.027 C 
HETATM   14  H   UNL     1      51.005 -30.628   1.121  1.00  0.00     0.163 HD
ENDROOT
BRANCH   1  15
HETATM   15  C   UNL     1      46.910 -29.830   0.833  1.00  0.00     0.146 C 
BRANCH  15  16
HETATM   16  C   UNL     1      45.581 -29.203   1.141  1.00  0.00     0.224 C 
HETATM   17  N   UNL     1      44.708 -28.837   0.169  1.00  0.00    -0.326 N 
HETATM   18  H   UNL     1      43.845 -28.457   0.559  1.00  0.00     0.169 HD
HETATM   19  O   UNL     1      45.243 -29.075   2.325  1.00  0.00    -0.273 OA
BRANCH  17  20
HETATM   20  C   UNL     1      44.695 -28.895  -1.247  1.00  0.00     0.056 A 
HETATM   21  C   UNL     1      45.095 -27.866  -2.102  1.00  0.00     0.031 A 
HETATM   22  C   UNL     1      45.056 -28.034  -3.493  1.00  0.00     0.002 A 
HETATM   23  C   UNL     1      44.616 -29.230  -4.052  1.00  0.00     0.002 A 
HETATM   24  C   UNL     1      44.204 -30.266  -3.222  1.00  0.00     0.026 A 
HETATM   25  C   UNL     1      44.243 -30.099  -1.835  1.00  0.00     0.060 A 
HETATM   26 CL   UNL     1      43.728 -31.429  -0.849  1.00  0.00    -0.082 Cl
ENDBRANCH  17  20
ENDBRANCH  15  16
ENDBRANCH   1  15
TORSDOF 3
ENDMDL
