MODEL 1
REMARK VINA RESULT:      -8.4      0.000      0.000
REMARK  4 active torsions:
REMARK  status: ('A' for Active; 'I' for Inactive)
REMARK    1  A    between atoms: C_9  and  C_10 
REMARK       I    between atoms: C_10  and  N_11 
REMARK    2  A    between atoms: N_11  and  C_12 
REMARK    3  A    between atoms: C_13  and  N_14 
REMARK    4  A    between atoms: C_17  and  O_18 
ROOT
HETATM    1  C   UNL     1      41.975 -12.020   6.334  1.00  0.00     0.257 C 
HETATM    2  N   UNL     1      41.624 -13.326   6.549  1.00  0.00    -0.321 N 
HETATM    3  O   UNL     1      41.095 -11.163   6.234  1.00  0.00    -0.267 OA
HETATM    4  H   UNL     1      40.672 -13.430   6.874  1.00  0.00     0.169 HD
ENDROOT
BRANCH   2   5
HETATM    5  C   UNL     1      42.387 -14.503   6.399  1.00  0.00     0.061 C 
HETATM    6  C   UNL     1      42.760 -15.053   5.144  1.00  0.00     0.057 C 
HETATM    7  C   UNL     1      43.645 -16.148   5.177  1.00  0.00     0.031 C 
HETATM    8  C   UNL     1      44.060 -16.733   6.379  1.00  0.00     0.002 C 
HETATM    9  C   UNL     1      43.595 -16.240   7.590  1.00  0.00     0.002 C 
HETATM   10  C   UNL     1      42.753 -15.134   7.599  1.00  0.00     0.032 C 
BRANCH   6  11
HETATM   11  N   UNL     1      42.210 -14.607   3.937  1.00  0.00    -0.379 N 
HETATM   12  C   UNL     1      43.040 -14.010   2.881  1.00  0.00     0.125 C 
HETATM   13  C   UNL     1      43.433 -15.028   1.812  1.00  0.00     0.051 C 
HETATM   14  C   UNL     1      42.219 -15.785   1.277  1.00  0.00     0.121 C 
HETATM   15  C   UNL     1      41.403 -16.384   2.416  1.00  0.00     0.051 C 
HETATM   16  C   UNL     1      41.014 -15.319   3.440  1.00  0.00     0.125 C 
BRANCH  14  17
HETATM   17  O   UNL     1      41.385 -14.918   0.511  1.00  0.00    -0.395 OA
HETATM   18  H   UNL     1      40.544 -14.809   0.989  1.00  0.00     0.210 HD
ENDBRANCH  14  17
ENDBRANCH   6  11
ENDBRANCH   2   5
BRANCH   1  19
HETATM   19  C   UNL     1      43.405 -11.615   6.398  1.00  0.00     0.050 A 
HETATM   20  C   UNL     1      44.067 -11.088   7.607  1.00  0.00     0.006 A 
HETATM   21  C   UNL     1      43.406 -10.890   8.827  1.00  0.00     0.015 A 
HETATM   22  C   UNL     1      45.417 -10.715   7.515  1.00  0.00     0.046 A 
HETATM   23  C   UNL     1      44.085 -10.359   9.928  1.00  0.00     0.001 A 
HETATM   24  C   UNL     1      45.430 -10.012   9.823  1.00  0.00     0.002 A 
HETATM   25  C   UNL     1      46.099 -10.188   8.614  1.00  0.00     0.030 A 
HETATM   26  N   UNL     1      46.088 -10.840   6.293  1.00  0.00    -0.323 N 
HETATM   27  C   UNL     1      45.490 -11.275   5.145  1.00  0.00     0.246 A 
HETATM   28  H   UNL     1      47.060 -10.576   6.212  1.00  0.00     0.169 HD
HETATM   29  O   UNL     1      46.107 -11.377   4.090  1.00  0.00    -0.268 OA
HETATM   30  C   UNL     1      44.062 -11.636   5.227  1.00  0.00     0.092 A 
ENDBRANCH   1  19
TORSDOF 4
ENDMDL
MODEL 2
REMARK VINA RESULT:      -8.3      3.243      5.880
REMARK  4 active torsions:
REMARK  status: ('A' for Active; 'I' for Inactive)
REMARK    1  A    between atoms: C_9  and  C_10 
REMARK       I    between atoms: C_10  and  N_11 
REMARK    2  A    between atoms: N_11  and  C_12 
REMARK    3  A    between atoms: C_13  and  N_14 
REMARK    4  A    between atoms: C_17  and  O_18 
ROOT
HETATM    1  C   UNL     1      40.544 -14.999   6.086  1.00  0.00     0.257 C 
HETATM    2  N   UNL     1      40.412 -13.889   5.295  1.00  0.00    -0.321 N 
HETATM    3  O   UNL     1      39.591 -15.371   6.774  1.00  0.00    -0.267 OA
HETATM    4  H   UNL     1      39.449 -13.624   5.143  1.00  0.00     0.169 HD
ENDROOT
BRANCH   2   5
HETATM    5  C   UNL     1      41.404 -13.101   4.672  1.00  0.00     0.061 C 
HETATM    6  C   UNL     1      41.363 -12.701   3.310  1.00  0.00     0.057 C 
HETATM    7  C   UNL     1      42.357 -11.797   2.892  1.00  0.00     0.031 C 
HETATM    8  C   UNL     1      43.395 -11.387   3.737  1.00  0.00     0.002 C 
HETATM    9  C   UNL     1      43.471 -11.878   5.033  1.00  0.00     0.002 C 
HETATM   10  C   UNL     1      42.483 -12.741   5.496  1.00  0.00     0.032 C 
BRANCH   6  11
HETATM   11  N   UNL     1      40.451 -13.242   2.398  1.00  0.00    -0.379 N 
HETATM   12  C   UNL     1      39.064 -12.762   2.312  1.00  0.00     0.125 C 
HETATM   13  C   UNL     1      38.880 -11.729   1.202  1.00  0.00     0.051 C 
HETATM   14  C   UNL     1      39.437 -12.223  -0.131  1.00  0.00     0.121 C 
HETATM   15  C   UNL     1      40.876 -12.702   0.022  1.00  0.00     0.051 C 
HETATM   16  C   UNL     1      40.998 -13.752   1.123  1.00  0.00     0.125 C 
BRANCH  14  17
HETATM   17  O   UNL     1      38.642 -13.290  -0.642  1.00  0.00    -0.395 OA
HETATM   18  H   UNL     1      38.717 -13.285  -1.613  1.00  0.00     0.210 HD
ENDBRANCH  14  17
ENDBRANCH   6  11
ENDBRANCH   2   5
BRANCH   1  19
HETATM   19  C   UNL     1      41.762 -15.847   5.981  1.00  0.00     0.050 A 
HETATM   20  C   UNL     1      42.193 -16.534   4.749  1.00  0.00     0.006 A 
HETATM   21  C   UNL     1      41.480 -16.480   3.543  1.00  0.00     0.015 A 
HETATM   22  C   UNL     1      43.348 -17.329   4.801  1.00  0.00     0.046 A 
HETATM   23  C   UNL     1      41.927 -17.180   2.417  1.00  0.00     0.001 A 
HETATM   24  C   UNL     1      43.087 -17.949   2.484  1.00  0.00     0.002 A 
HETATM   25  C   UNL     1      43.800 -18.027   3.679  1.00  0.00     0.030 A 
HETATM   26  N   UNL     1      44.046 -17.455   6.008  1.00  0.00    -0.323 N 
HETATM   27  C   UNL     1      43.645 -16.874   7.177  1.00  0.00     0.246 A 
HETATM   28  H   UNL     1      44.880 -18.024   6.061  1.00  0.00     0.169 HD
HETATM   29  O   UNL     1      44.281 -17.002   8.217  1.00  0.00    -0.268 OA
HETATM   30  C   UNL     1      42.412 -16.066   7.135  1.00  0.00     0.092 A 
ENDBRANCH   1  19
TORSDOF 4
ENDMDL
MODEL 3
REMARK VINA RESULT:      -8.3      3.117      6.257
REMARK  4 active torsions:
REMARK  status: ('A' for Active; 'I' for Inactive)
REMARK    1  A    between atoms: C_9  and  C_10 
REMARK       I    between atoms: C_10  and  N_11 
REMARK    2  A    between atoms: N_11  and  C_12 
REMARK    3  A    between atoms: C_13  and  N_14 
REMARK    4  A    between atoms: C_17  and  O_18 
ROOT
HETATM    1  C   UNL     1      40.576 -15.392   6.202  1.00  0.00     0.257 C 
HETATM    2  N   UNL     1      40.825 -14.093   6.556  1.00  0.00    -0.321 N 
HETATM    3  O   UNL     1      39.890 -16.102   6.940  1.00  0.00    -0.267 OA
HETATM    4  H   UNL     1      40.196 -13.751   7.270  1.00  0.00     0.169 HD
ENDROOT
BRANCH   2   5
HETATM    5  C   UNL     1      41.797 -13.194   6.067  1.00  0.00     0.061 C 
HETATM    6  C   UNL     1      41.502 -12.083   5.233  1.00  0.00     0.057 C 
HETATM    7  C   UNL     1      42.569 -11.206   4.957  1.00  0.00     0.031 C 
HETATM    8  C   UNL     1      43.874 -11.461   5.392  1.00  0.00     0.002 C 
HETATM    9  C   UNL     1      44.153 -12.612   6.116  1.00  0.00     0.002 C 
HETATM   10  C   UNL     1      43.119 -13.481   6.444  1.00  0.00     0.032 C 
BRANCH   6  11
HETATM   11  N   UNL     1      40.252 -11.909   4.630  1.00  0.00    -0.379 N 
HETATM   12  C   UNL     1      39.156 -11.202   5.310  1.00  0.00     0.125 C 
HETATM   13  C   UNL     1      39.067  -9.736   4.887  1.00  0.00     0.051 C 
HETATM   14  C   UNL     1      39.041  -9.585   3.369  1.00  0.00     0.121 C 
HETATM   15  C   UNL     1      40.201 -10.334   2.723  1.00  0.00     0.051 C 
HETATM   16  C   UNL     1      40.226 -11.798   3.157  1.00  0.00     0.125 C 
BRANCH  14  17
HETATM   17  O   UNL     1      37.813 -10.079   2.837  1.00  0.00    -0.395 OA
HETATM   18  H   UNL     1      37.086  -9.559   3.224  1.00  0.00     0.210 HD
ENDBRANCH  14  17
ENDBRANCH   6  11
ENDBRANCH   2   5
BRANCH   1  19
HETATM   19  C   UNL     1      40.980 -15.887   4.858  1.00  0.00     0.050 A 
HETATM   20  C   UNL     1      42.147 -16.754   4.607  1.00  0.00     0.006 A 
HETATM   21  C   UNL     1      43.020 -17.187   5.615  1.00  0.00     0.015 A 
HETATM   22  C   UNL     1      42.429 -17.120   3.282  1.00  0.00     0.046 A 
HETATM   23  C   UNL     1      44.126 -17.985   5.306  1.00  0.00     0.001 A 
HETATM   24  C   UNL     1      44.379 -18.354   3.987  1.00  0.00     0.002 A 
HETATM   25  C   UNL     1      43.531 -17.920   2.970  1.00  0.00     0.030 A 
HETATM   26  N   UNL     1      41.613 -16.651   2.246  1.00  0.00    -0.323 N 
HETATM   27  C   UNL     1      40.557 -15.807   2.440  1.00  0.00     0.246 A 
HETATM   28  H   UNL     1      41.804 -16.907   1.288  1.00  0.00     0.169 HD
HETATM   29  O   UNL     1      39.860 -15.416   1.510  1.00  0.00    -0.268 OA
HETATM   30  C   UNL     1      40.278 -15.390   3.827  1.00  0.00     0.092 A 
ENDBRANCH   1  19
TORSDOF 4
ENDMDL
MODEL 4
REMARK VINA RESULT:      -8.1      3.936      6.865
REMARK  4 active torsions:
REMARK  status: ('A' for Active; 'I' for Inactive)
REMARK    1  A    between atoms: C_9  and  C_10 
REMARK       I    between atoms: C_10  and  N_11 
REMARK    2  A    between atoms: N_11  and  C_12 
REMARK    3  A    between atoms: C_13  and  N_14 
REMARK    4  A    between atoms: C_17  and  O_18 
ROOT
HETATM    1  C   UNL     1      42.353 -11.662   2.804  1.00  0.00     0.257 C 
HETATM    2  N   UNL     1      41.562 -10.718   2.207  1.00  0.00    -0.321 N 
HETATM    3  O   UNL     1      43.574 -11.499   2.840  1.00  0.00    -0.267 OA
HETATM    4  H   UNL     1      42.033  -9.833   2.080  1.00  0.00     0.169 HD
ENDROOT
BRANCH   2   5
HETATM    5  C   UNL     1      40.222 -10.806   1.772  1.00  0.00     0.061 C 
HETATM    6  C   UNL     1      39.789 -11.618   0.690  1.00  0.00     0.057 C 
HETATM    7  C   UNL     1      38.399 -11.699   0.485  1.00  0.00     0.031 C 
HETATM    8  C   UNL     1      37.490 -10.947   1.238  1.00  0.00     0.002 C 
HETATM    9  C   UNL     1      37.949 -10.080   2.219  1.00  0.00     0.002 C 
HETATM   10  C   UNL     1      39.313 -10.003   2.479  1.00  0.00     0.032 C 
BRANCH   6  11
HETATM   11  N   UNL     1      40.685 -12.229  -0.193  1.00  0.00    -0.379 N 
HETATM   12  C   UNL     1      40.576 -13.652  -0.547  1.00  0.00     0.125 C 
HETATM   13  C   UNL     1      39.828 -13.862  -1.862  1.00  0.00     0.051 C 
HETATM   14  C   UNL     1      40.399 -12.999  -2.984  1.00  0.00     0.121 C 
HETATM   15  C   UNL     1      40.483 -11.537  -2.560  1.00  0.00     0.051 C 
HETATM   16  C   UNL     1      41.263 -11.381  -1.257  1.00  0.00     0.125 C 
BRANCH  14  17
HETATM   17  O   UNL     1      41.699 -13.453  -3.354  1.00  0.00    -0.395 OA
HETATM   18  H   UNL     1      41.598 -14.108  -4.067  1.00  0.00     0.210 HD
ENDBRANCH  14  17
ENDBRANCH   6  11
ENDBRANCH   2   5
BRANCH   1  19
HETATM   19  C   UNL     1      41.731 -12.785   3.557  1.00  0.00     0.050 A 
HETATM   20  C   UNL     1      41.908 -14.211   3.221  1.00  0.00     0.006 A 
HETATM   21  C   UNL     1      42.668 -14.661   2.132  1.00  0.00     0.015 A 
HETATM   22  C   UNL     1      41.235 -15.165   3.999  1.00  0.00     0.046 A 
HETATM   23  C   UNL     1      42.773 -16.026   1.850  1.00  0.00     0.001 A 
HETATM   24  C   UNL     1      42.113 -16.960   2.646  1.00  0.00     0.002 A 
HETATM   25  C   UNL     1      41.340 -16.531   3.723  1.00  0.00     0.030 A 
HETATM   26  N   UNL     1      40.417 -14.745   5.054  1.00  0.00    -0.323 N 
HETATM   27  C   UNL     1      40.192 -13.432   5.358  1.00  0.00     0.246 A 
HETATM   28  H   UNL     1      39.927 -15.421   5.623  1.00  0.00     0.169 HD
HETATM   29  O   UNL     1      39.470 -13.097   6.291  1.00  0.00    -0.268 OA
HETATM   30  C   UNL     1      40.868 -12.425   4.521  1.00  0.00     0.092 A 
ENDBRANCH   1  19
TORSDOF 4
ENDMDL
MODEL 5
REMARK VINA RESULT:      -7.8      2.789      6.057
REMARK  4 active torsions:
REMARK  status: ('A' for Active; 'I' for Inactive)
REMARK    1  A    between atoms: C_9  and  C_10 
REMARK       I    between atoms: C_10  and  N_11 
REMARK    2  A    between atoms: N_11  and  C_12 
REMARK    3  A    between atoms: C_13  and  N_14 
REMARK    4  A    between atoms: C_17  and  O_18 
ROOT
HETATM    1  C   UNL     1      41.174 -15.146   6.422  1.00  0.00     0.257 C 
HETATM    2  N   UNL     1      41.405 -13.811   6.614  1.00  0.00    -0.321 N 
HETATM    3  O   UNL     1      40.308 -15.716   7.088  1.00  0.00    -0.267 OA
HETATM    4  H   UNL     1      40.652 -13.347   7.104  1.00  0.00     0.169 HD
ENDROOT
BRANCH   2   5
HETATM    5  C   UNL     1      42.505 -13.018   6.221  1.00  0.00     0.061 C 
HETATM    6  C   UNL     1      42.494 -12.142   5.103  1.00  0.00     0.057 C 
HETATM    7  C   UNL     1      43.624 -11.318   4.941  1.00  0.00     0.031 C 
HETATM    8  C   UNL     1      44.746 -11.422   5.772  1.00  0.00     0.002 C 
HETATM    9  C   UNL     1      44.771 -12.362   6.792  1.00  0.00     0.002 C 
HETATM   10  C   UNL     1      43.657 -13.165   7.009  1.00  0.00     0.032 C 
BRANCH   6  11
HETATM   11  N   UNL     1      41.469 -12.154   4.151  1.00  0.00    -0.379 N 
HETATM   12  C   UNL     1      40.212 -11.420   4.357  1.00  0.00     0.125 C 
HETATM   13  C   UNL     1      40.225 -10.054   3.672  1.00  0.00     0.051 C 
HETATM   14  C   UNL     1      40.637 -10.158   2.206  1.00  0.00     0.121 C 
HETATM   15  C   UNL     1      41.947 -10.924   2.059  1.00  0.00     0.051 C 
HETATM   16  C   UNL     1      41.869 -12.291   2.735  1.00  0.00     0.125 C 
BRANCH  14  17
HETATM   17  O   UNL     1      39.625 -10.814   1.446  1.00  0.00    -0.395 OA
HETATM   18  H   UNL     1      39.086 -10.132   1.008  1.00  0.00     0.210 HD
ENDBRANCH  14  17
ENDBRANCH   6  11
ENDBRANCH   2   5
BRANCH   1  19
HETATM   19  C   UNL     1      41.839 -15.862   5.299  1.00  0.00     0.050 A 
HETATM   20  C   UNL     1      41.333 -15.887   3.913  1.00  0.00     0.006 A 
HETATM   21  C   UNL     1      40.149 -15.255   3.510  1.00  0.00     0.015 A 
HETATM   22  C   UNL     1      42.046 -16.630   2.960  1.00  0.00     0.046 A 
HETATM   23  C   UNL     1      39.708 -15.343   2.186  1.00  0.00     0.001 A 
HETATM   24  C   UNL     1      40.440 -16.069   1.249  1.00  0.00     0.002 A 
HETATM   25  C   UNL     1      41.612 -16.717   1.635  1.00  0.00     0.030 A 
HETATM   26  N   UNL     1      43.198 -17.326   3.345  1.00  0.00    -0.323 N 
HETATM   27  C   UNL     1      43.664 -17.363   4.629  1.00  0.00     0.246 A 
HETATM   28  H   UNL     1      43.722 -17.864   2.669  1.00  0.00     0.169 HD
HETATM   29  O   UNL     1      44.678 -17.981   4.933  1.00  0.00    -0.268 OA
HETATM   30  C   UNL     1      42.898 -16.614   5.642  1.00  0.00     0.092 A 
ENDBRANCH   1  19
TORSDOF 4
ENDMDL
MODEL 6
REMARK VINA RESULT:      -7.7      4.379      7.187
REMARK  4 active torsions:
REMARK  status: ('A' for Active; 'I' for Inactive)
REMARK    1  A    between atoms: C_9  and  C_10 
REMARK       I    between atoms: C_10  and  N_11 
REMARK    2  A    between atoms: N_11  and  C_12 
REMARK    3  A    between atoms: C_13  and  N_14 
REMARK    4  A    between atoms: C_17  and  O_18 
ROOT
HETATM    1  C   UNL     1      39.671 -11.330   2.652  1.00  0.00     0.257 C 
HETATM    2  N   UNL     1      39.226 -10.842   1.453  1.00  0.00    -0.321 N 
HETATM    3  O   UNL     1      38.952 -11.242   3.649  1.00  0.00    -0.267 OA
HETATM    4  H   UNL     1      38.227 -10.689   1.436  1.00  0.00     0.169 HD
ENDROOT
BRANCH   2   5
HETATM    5  C   UNL     1      39.945 -10.548   0.275  1.00  0.00     0.061 C 
HETATM    6  C   UNL     1      39.892 -11.337  -0.905  1.00  0.00     0.057 C 
HETATM    7  C   UNL     1      40.556 -10.820  -2.034  1.00  0.00     0.031 C 
HETATM    8  C   UNL     1      41.314  -9.644  -1.980  1.00  0.00     0.002 C 
HETATM    9  C   UNL     1      41.435  -8.950  -0.784  1.00  0.00     0.002 C 
HETATM   10  C   UNL     1      40.760  -9.407   0.342  1.00  0.00     0.032 C 
BRANCH   6  11
HETATM   11  N   UNL     1      39.302 -12.605  -0.934  1.00  0.00    -0.379 N 
HETATM   12  C   UNL     1      37.916 -12.804  -1.380  1.00  0.00     0.125 C 
HETATM   13  C   UNL     1      37.838 -13.225  -2.847  1.00  0.00     0.051 C 
HETATM   14  C   UNL     1      38.751 -14.412  -3.145  1.00  0.00     0.121 C 
HETATM   15  C   UNL     1      40.172 -14.143  -2.665  1.00  0.00     0.051 C 
HETATM   16  C   UNL     1      40.195 -13.755  -1.188  1.00  0.00     0.125 C 
BRANCH  14  17
HETATM   17  O   UNL     1      38.260 -15.593  -2.514  1.00  0.00    -0.395 OA
HETATM   18  H   UNL     1      38.261 -15.444  -1.552  1.00  0.00     0.210 HD
ENDBRANCH  14  17
ENDBRANCH   6  11
ENDBRANCH   2   5
BRANCH   1  19
HETATM   19  C   UNL     1      40.933 -12.115   2.713  1.00  0.00     0.050 A 
HETATM   20  C   UNL     1      41.017 -13.573   2.498  1.00  0.00     0.006 A 
HETATM   21  C   UNL     1      39.903 -14.382   2.236  1.00  0.00     0.015 A 
HETATM   22  C   UNL     1      42.272 -14.190   2.616  1.00  0.00     0.046 A 
HETATM   23  C   UNL     1      40.046 -15.763   2.071  1.00  0.00     0.001 A 
HETATM   24  C   UNL     1      41.303 -16.355   2.174  1.00  0.00     0.002 A 
HETATM   25  C   UNL     1      42.420 -15.569   2.448  1.00  0.00     0.030 A 
HETATM   26  N   UNL     1      43.394 -13.419   2.940  1.00  0.00    -0.323 N 
HETATM   27  C   UNL     1      43.341 -12.079   3.195  1.00  0.00     0.246 A 
HETATM   28  H   UNL     1      44.304 -13.850   3.028  1.00  0.00     0.169 HD
HETATM   29  O   UNL     1      44.345 -11.431   3.474  1.00  0.00    -0.268 OA
HETATM   30  C   UNL     1      42.019 -11.431   3.107  1.00  0.00     0.092 A 
ENDBRANCH   1  19
TORSDOF 4
ENDMDL
MODEL 7
REMARK VINA RESULT:      -7.7      2.583      6.955
REMARK  4 active torsions:
REMARK  status: ('A' for Active; 'I' for Inactive)
REMARK    1  A    between atoms: C_9  and  C_10 
REMARK       I    between atoms: C_10  and  N_11 
REMARK    2  A    between atoms: N_11  and  C_12 
REMARK    3  A    between atoms: C_13  and  N_14 
REMARK    4  A    between atoms: C_17  and  O_18 
ROOT
HETATM    1  C   UNL     1      41.749 -11.919   3.291  1.00  0.00     0.257 C 
HETATM    2  N   UNL     1      42.652 -11.038   3.821  1.00  0.00    -0.321 N 
HETATM    3  O   UNL     1      41.155 -11.629   2.251  1.00  0.00    -0.267 OA
HETATM    4  H   UNL     1      42.950 -10.333   3.160  1.00  0.00     0.169 HD
ENDROOT
BRANCH   2   5
HETATM    5  C   UNL     1      43.216 -10.990   5.114  1.00  0.00     0.061 C 
HETATM    6  C   UNL     1      42.569 -10.422   6.243  1.00  0.00     0.057 C 
HETATM    7  C   UNL     1      43.211 -10.590   7.484  1.00  0.00     0.031 C 
HETATM    8  C   UNL     1      44.469 -11.194   7.596  1.00  0.00     0.002 C 
HETATM    9  C   UNL     1      45.127 -11.646   6.461  1.00  0.00     0.002 C 
HETATM   10  C   UNL     1      44.506 -11.535   5.222  1.00  0.00     0.032 C 
BRANCH   6  11
HETATM   11  N   UNL     1      41.408  -9.650   6.130  1.00  0.00    -0.379 N 
HETATM   12  C   UNL     1      40.069 -10.238   6.280  1.00  0.00     0.125 C 
HETATM   13  C   UNL     1      39.516 -10.060   7.694  1.00  0.00     0.051 C 
HETATM   14  C   UNL     1      39.598  -8.607   8.155  1.00  0.00     0.121 C 
HETATM   15  C   UNL     1      41.008  -8.056   7.980  1.00  0.00     0.051 C 
HETATM   16  C   UNL     1      41.499  -8.234   6.545  1.00  0.00     0.125 C 
BRANCH  14  17
HETATM   17  O   UNL     1      38.685  -7.795   7.419  1.00  0.00    -0.395 OA
HETATM   18  H   UNL     1      39.200  -7.242   6.805  1.00  0.00     0.210 HD
ENDBRANCH  14  17
ENDBRANCH   6  11
ENDBRANCH   2   5
BRANCH   1  19
HETATM   19  C   UNL     1      41.616 -13.284   3.868  1.00  0.00     0.050 A 
HETATM   20  C   UNL     1      42.226 -14.496   3.286  1.00  0.00     0.006 A 
HETATM   21  C   UNL     1      42.981 -14.491   2.105  1.00  0.00     0.015 A 
HETATM   22  C   UNL     1      41.992 -15.726   3.919  1.00  0.00     0.046 A 
HETATM   23  C   UNL     1      43.508 -15.680   1.590  1.00  0.00     0.001 A 
HETATM   24  C   UNL     1      43.281 -16.889   2.244  1.00  0.00     0.002 A 
HETATM   25  C   UNL     1      42.519 -16.915   3.410  1.00  0.00     0.030 A 
HETATM   26  N   UNL     1      41.189 -15.773   5.065  1.00  0.00    -0.323 N 
HETATM   27  C   UNL     1      40.568 -14.679   5.597  1.00  0.00     0.246 A 
HETATM   28  H   UNL     1      41.012 -16.652   5.531  1.00  0.00     0.169 HD
HETATM   29  O   UNL     1      39.873 -14.753   6.604  1.00  0.00    -0.268 OA
HETATM   30  C   UNL     1      40.782 -13.389   4.915  1.00  0.00     0.092 A 
ENDBRANCH   1  19
TORSDOF 4
ENDMDL
MODEL 8
REMARK VINA RESULT:      -7.5      4.698      7.583
REMARK  4 active torsions:
REMARK  status: ('A' for Active; 'I' for Inactive)
REMARK    1  A    between atoms: C_9  and  C_10 
REMARK       I    between atoms: C_10  and  N_11 
REMARK    2  A    between atoms: N_11  and  C_12 
REMARK    3  A    between atoms: C_13  and  N_14 
REMARK    4  A    between atoms: C_17  and  O_18 
ROOT
HETATM    1  C   UNL     1      39.428 -12.457   1.969  1.00  0.00     0.257 C 
HETATM    2  N   UNL     1      38.920 -12.610   0.708  1.00  0.00    -0.321 N 
HETATM    3  O   UNL     1      38.675 -12.141   2.893  1.00  0.00    -0.267 OA
HETATM    4  H   UNL     1      37.914 -12.711   0.696  1.00  0.00     0.169 HD
ENDROOT
BRANCH   2   5
HETATM    5  C   UNL     1      39.588 -12.661  -0.535  1.00  0.00     0.061 C 
HETATM    6  C   UNL     1      40.367 -11.597  -1.062  1.00  0.00     0.057 C 
HETATM    7  C   UNL     1      41.083 -11.870  -2.243  1.00  0.00     0.031 C 
HETATM    8  C   UNL     1      40.960 -13.087  -2.924  1.00  0.00     0.002 C 
HETATM    9  C   UNL     1      40.108 -14.070  -2.443  1.00  0.00     0.002 C 
HETATM   10  C   UNL     1      39.416 -13.853  -1.256  1.00  0.00     0.032 C 
BRANCH   6  11
HETATM   11  N   UNL     1      40.357 -10.314  -0.505  1.00  0.00    -0.379 N 
HETATM   12  C   UNL     1      41.596  -9.639  -0.093  1.00  0.00     0.125 C 
HETATM   13  C   UNL     1      42.117  -8.685  -1.167  1.00  0.00     0.051 C 
HETATM   14  C   UNL     1      41.032  -7.725  -1.648  1.00  0.00     0.121 C 
HETATM   15  C   UNL     1      39.777  -8.483  -2.065  1.00  0.00     0.051 C 
HETATM   16  C   UNL     1      39.284  -9.398  -0.946  1.00  0.00     0.125 C 
BRANCH  14  17
HETATM   17  O   UNL     1      40.695  -6.794  -0.621  1.00  0.00    -0.395 OA
HETATM   18  H   UNL     1      41.183  -7.043   0.184  1.00  0.00     0.210 HD
ENDBRANCH  14  17
ENDBRANCH   6  11
ENDBRANCH   2   5
BRANCH   1  19
HETATM   19  C   UNL     1      40.837 -12.838   2.255  1.00  0.00     0.050 A 
HETATM   20  C   UNL     1      41.344 -14.224   2.234  1.00  0.00     0.006 A 
HETATM   21  C   UNL     1      40.539 -15.338   1.964  1.00  0.00     0.015 A 
HETATM   22  C   UNL     1      42.693 -14.442   2.555  1.00  0.00     0.046 A 
HETATM   23  C   UNL     1      41.075 -16.630   1.988  1.00  0.00     0.001 A 
HETATM   24  C   UNL     1      42.421 -16.825   2.291  1.00  0.00     0.002 A 
HETATM   25  C   UNL     1      43.234 -15.730   2.577  1.00  0.00     0.030 A 
HETATM   26  N   UNL     1      43.508 -13.356   2.893  1.00  0.00    -0.323 N 
HETATM   27  C   UNL     1      43.057 -12.069   2.972  1.00  0.00     0.246 A 
HETATM   28  H   UNL     1      44.481 -13.498   3.126  1.00  0.00     0.169 HD
HETATM   29  O   UNL     1      43.799 -11.138   3.268  1.00  0.00    -0.268 OA
HETATM   30  C   UNL     1      41.632 -11.838   2.669  1.00  0.00     0.092 A 
ENDBRANCH   1  19
TORSDOF 4
ENDMDL
MODEL 9
REMARK VINA RESULT:      -7.5      2.567      3.723
REMARK  4 active torsions:
REMARK  status: ('A' for Active; 'I' for Inactive)
REMARK    1  A    between atoms: C_9  and  C_10 
REMARK       I    between atoms: C_10  and  N_11 
REMARK    2  A    between atoms: N_11  and  C_12 
REMARK    3  A    between atoms: C_13  and  N_14 
REMARK    4  A    between atoms: C_17  and  O_18 
ROOT
HETATM    1  C   UNL     1      43.659 -11.918   4.264  1.00  0.00     0.257 C 
HETATM    2  N   UNL     1      42.812 -12.934   3.912  1.00  0.00    -0.321 N 
HETATM    3  O   UNL     1      44.490 -11.509   3.450  1.00  0.00    -0.267 OA
HETATM    4  H   UNL     1      42.767 -13.082   2.913  1.00  0.00     0.169 HD
ENDROOT
BRANCH   2   5
HETATM    5  C   UNL     1      42.011 -13.764   4.724  1.00  0.00     0.061 C 
HETATM    6  C   UNL     1      42.335 -15.108   5.052  1.00  0.00     0.057 C 
HETATM    7  C   UNL     1      41.500 -15.743   5.992  1.00  0.00     0.031 C 
HETATM    8  C   UNL     1      40.352 -15.127   6.504  1.00  0.00     0.002 C 
HETATM    9  C   UNL     1      40.001 -13.852   6.084  1.00  0.00     0.002 C 
HETATM   10  C   UNL     1      40.823 -13.177   5.189  1.00  0.00     0.032 C 
BRANCH   6  11
HETATM   11  N   UNL     1      43.363 -15.807   4.413  1.00  0.00    -0.379 N 
HETATM   12  C   UNL     1      44.208 -16.772   5.132  1.00  0.00     0.125 C 
HETATM   13  C   UNL     1      43.722 -18.210   4.952  1.00  0.00     0.051 C 
HETATM   14  C   UNL     1      43.517 -18.559   3.481  1.00  0.00     0.121 C 
HETATM   15  C   UNL     1      42.631 -17.527   2.792  1.00  0.00     0.051 C 
HETATM   16  C   UNL     1      43.177 -16.113   2.979  1.00  0.00     0.125 C 
BRANCH  14  17
HETATM   17  O   UNL     1      44.769 -18.626   2.802  1.00  0.00    -0.395 OA
HETATM   18  H   UNL     1      44.594 -18.619   1.844  1.00  0.00     0.210 HD
ENDBRANCH  14  17
ENDBRANCH   6  11
ENDBRANCH   2   5
BRANCH   1  19
HETATM   19  C   UNL     1      43.460 -11.197   5.550  1.00  0.00     0.050 A 
HETATM   20  C   UNL     1      42.500 -10.093   5.745  1.00  0.00     0.006 A 
HETATM   21  C   UNL     1      41.684  -9.588   4.723  1.00  0.00     0.015 A 
HETATM   22  C   UNL     1      42.440  -9.481   7.007  1.00  0.00     0.046 A 
HETATM   23  C   UNL     1      40.816  -8.519   4.966  1.00  0.00     0.001 A 
HETATM   24  C   UNL     1      40.756  -7.937   6.231  1.00  0.00     0.002 A 
HETATM   25  C   UNL     1      41.570  -8.416   7.254  1.00  0.00     0.030 A 
HETATM   26  N   UNL     1      43.288  -9.920   8.030  1.00  0.00    -0.323 N 
HETATM   27  C   UNL     1      44.222 -10.903   7.867  1.00  0.00     0.246 A 
HETATM   28  H   UNL     1      43.255  -9.489   8.943  1.00  0.00     0.169 HD
HETATM   29  O   UNL     1      44.948 -11.267   8.785  1.00  0.00    -0.268 OA
HETATM   30  C   UNL     1      44.314 -11.526   6.533  1.00  0.00     0.092 A 
ENDBRANCH   1  19
TORSDOF 4
ENDMDL
MODEL 10
REMARK VINA RESULT:      -7.4      3.502      5.654
REMARK  4 active torsions:
REMARK  status: ('A' for Active; 'I' for Inactive)
REMARK    1  A    between atoms: C_9  and  C_10 
REMARK       I    between atoms: C_10  and  N_11 
REMARK    2  A    between atoms: N_11  and  C_12 
REMARK    3  A    between atoms: C_13  and  N_14 
REMARK    4  A    between atoms: C_17  and  O_18 
ROOT
HETATM    1  C   UNL     1      42.782 -12.414   3.286  1.00  0.00     0.257 C 
HETATM    2  N   UNL     1      43.072 -13.326   4.265  1.00  0.00    -0.321 N 
HETATM    3  O   UNL     1      43.596 -11.527   3.021  1.00  0.00    -0.267 OA
HETATM    4  H   UNL     1      44.054 -13.350   4.503  1.00  0.00     0.169 HD
ENDROOT
BRANCH   2   5
HETATM    5  C   UNL     1      42.218 -14.216   4.951  1.00  0.00     0.061 C 
HETATM    6  C   UNL     1      42.461 -15.609   5.081  1.00  0.00     0.057 C 
HETATM    7  C   UNL     1      41.586 -16.323   5.921  1.00  0.00     0.031 C 
HETATM    8  C   UNL     1      40.473 -15.721   6.520  1.00  0.00     0.002 C 
HETATM    9  C   UNL     1      40.199 -14.381   6.290  1.00  0.00     0.002 C 
HETATM   10  C   UNL     1      41.064 -13.633   5.499  1.00  0.00     0.032 C 
BRANCH   6  11
HETATM   11  N   UNL     1      43.451 -16.269   4.344  1.00  0.00    -0.379 N 
HETATM   12  C   UNL     1      44.358 -17.245   4.965  1.00  0.00     0.125 C 
HETATM   13  C   UNL     1      43.879 -18.683   4.766  1.00  0.00     0.051 C 
HETATM   14  C   UNL     1      43.574 -18.981   3.301  1.00  0.00     0.121 C 
HETATM   15  C   UNL     1      42.627 -17.939   2.715  1.00  0.00     0.051 C 
HETATM   16  C   UNL     1      43.167 -16.525   2.916  1.00  0.00     0.125 C 
BRANCH  14  17
HETATM   17  O   UNL     1      44.776 -19.003   2.533  1.00  0.00    -0.395 OA
HETATM   18  H   UNL     1      45.121 -19.914   2.539  1.00  0.00     0.210 HD
ENDBRANCH  14  17
ENDBRANCH   6  11
ENDBRANCH   2   5
BRANCH   1  19
HETATM   19  C   UNL     1      41.577 -12.596   2.433  1.00  0.00     0.050 A 
HETATM   20  C   UNL     1      40.380 -11.735   2.488  1.00  0.00     0.006 A 
HETATM   21  C   UNL     1      40.241 -10.660   3.377  1.00  0.00     0.015 A 
HETATM   22  C   UNL     1      39.301 -12.043   1.645  1.00  0.00     0.046 A 
HETATM   23  C   UNL     1      39.067  -9.900   3.400  1.00  0.00     0.001 A 
HETATM   24  C   UNL     1      38.014 -10.210   2.542  1.00  0.00     0.002 A 
HETATM   25  C   UNL     1      38.128 -11.284   1.662  1.00  0.00     0.030 A 
HETATM   26  N   UNL     1      39.384 -13.150   0.792  1.00  0.00    -0.323 N 
HETATM   27  C   UNL     1      40.456 -13.995   0.754  1.00  0.00     0.246 A 
HETATM   28  H   UNL     1      38.615 -13.383   0.179  1.00  0.00     0.169 HD
HETATM   29  O   UNL     1      40.498 -14.955  -0.008  1.00  0.00    -0.268 OA
HETATM   30  C   UNL     1      41.578 -13.697   1.663  1.00  0.00     0.092 A 
ENDBRANCH   1  19
TORSDOF 4
ENDMDL
