MODEL 1
REMARK VINA RESULT:      -8.6      0.000      0.000
REMARK  9 active torsions:
REMARK  status: ('A' for Active; 'I' for Inactive)
REMARK    1  A    between atoms: C_2  and  O_3 
REMARK    2  A    between atoms: O_3  and  C_4 
REMARK    3  A    between atoms: C_7  and  N_8 
REMARK    4  A    between atoms: C_12  and  N_13 
REMARK       I    between atoms: N_13  and  C_14 
REMARK       I    between atoms: C_14  and  N_15 
REMARK    5  A    between atoms: N_15  and  C_16 
REMARK    6  A    between atoms: C_16  and  C_17 
REMARK    7  A    between atoms: C_17  and  C_18 
REMARK    8  A    between atoms: C_21  and  S_22 
REMARK    9  A    between atoms: S_22  and  N_23 
ROOT
HETATM    1  N   UNL     1      43.470 -12.728   7.099  1.00  0.00    -0.336 N 
HETATM    2  C   UNL     1      44.505 -11.835   7.218  1.00  0.00     0.316 C 
HETATM    3  N   UNL     1      44.253 -10.925   8.207  1.00  0.00    -0.343 N 
HETATM    4  O   UNL     1      45.501 -11.838   6.511  1.00  0.00    -0.248 OA
HETATM    5  H   UNL     1      43.062 -12.977   7.992  1.00  0.00     0.164 HD
HETATM    6  H   UNL     1      43.276 -10.763   8.410  1.00  0.00     0.164 HD
ENDROOT
BRANCH   1   7
HETATM    7  C   UNL     1      43.521 -13.771   6.082  1.00  0.00     0.113 C 
HETATM    8  C   UNL     1      42.847 -15.050   6.551  1.00  0.00     0.130 C 
HETATM    9  C   UNL     1      42.252 -15.641   5.300  1.00  0.00     0.226 C 
HETATM   10  N   UNL     1      42.187 -14.643   4.324  1.00  0.00    -0.316 N 
HETATM   11  O   UNL     1      41.855 -16.797   5.254  1.00  0.00    -0.273 OA
HETATM   12  C   UNL     1      42.768 -13.409   4.803  1.00  0.00     0.157 C 
BRANCH  10  13
HETATM   13  C   UNL     1      41.469 -14.701   3.095  1.00  0.00     0.037 A 
HETATM   14  C   UNL     1      41.736 -13.828   2.034  1.00  0.00     0.032 A 
HETATM   15  C   UNL     1      41.089 -13.963   0.795  1.00  0.00     0.039 A 
HETATM   16  C   UNL     1      40.158 -14.977   0.599  1.00  0.00     0.068 A 
HETATM   17  C   UNL     1      39.831 -15.811   1.661  1.00  0.00     0.039 A 
HETATM   18  C   UNL     1      40.483 -15.680   2.892  1.00  0.00     0.032 A 
BRANCH  16  19
HETATM   19  O   UNL     1      39.503 -15.231  -0.573  1.00  0.00    -0.352 OA
BRANCH  19  20
HETATM   20  C   UNL     1      39.701 -14.262  -1.605  1.00  0.00     0.171 C 
HETATM   21  C   UNL     1      38.824 -14.651  -2.781  1.00  0.00     0.034 C 
ENDBRANCH  19  20
ENDBRANCH  16  19
ENDBRANCH  10  13
ENDBRANCH   1   7
BRANCH   3  22
HETATM   22  C   UNL     1      45.192  -9.857   8.486  1.00  0.00     0.129 C 
BRANCH  22  23
HETATM   23  C   UNL     1      45.470  -9.675   9.983  1.00  0.00     0.058 C 
BRANCH  23  24
HETATM   24  C   UNL     1      44.231  -9.588  10.847  1.00  0.00    -0.057 A 
HETATM   25  C   UNL     1      43.789 -10.694  11.589  1.00  0.00     0.009 A 
HETATM   26  C   UNL     1      42.632 -10.609  12.365  1.00  0.00     0.025 A 
HETATM   27  C   UNL     1      41.923  -9.407  12.419  1.00  0.00     0.074 A 
HETATM   28  C   UNL     1      42.352  -8.295  11.693  1.00  0.00     0.025 A 
HETATM   29  C   UNL     1      43.508  -8.386  10.916  1.00  0.00     0.009 A 
BRANCH  27  30
HETATM   30  S   UNL     1      40.429  -9.317  13.361  1.00  0.00     0.239 S 
HETATM   31  O   UNL     1      40.752  -9.001  14.734  1.00  0.00    -0.206 OA
HETATM   32  O   UNL     1      39.441  -8.580  12.610  1.00  0.00    -0.206 OA
BRANCH  30  33
HETATM   33  N   UNL     1      39.920 -10.915  13.362  1.00  0.00    -0.225 NA
HETATM   34  H   UNL     1      40.479 -11.458  12.702  1.00  0.00     0.136 HD
HETATM   35  H   UNL     1      39.934 -11.282  14.313  1.00  0.00     0.136 HD
ENDBRANCH  30  33
ENDBRANCH  27  30
ENDBRANCH  23  24
ENDBRANCH  22  23
ENDBRANCH   3  22
TORSDOF 9
ENDMDL
MODEL 2
REMARK VINA RESULT:      -8.5      1.644      2.058
REMARK  9 active torsions:
REMARK  status: ('A' for Active; 'I' for Inactive)
REMARK    1  A    between atoms: C_2  and  O_3 
REMARK    2  A    between atoms: O_3  and  C_4 
REMARK    3  A    between atoms: C_7  and  N_8 
REMARK    4  A    between atoms: C_12  and  N_13 
REMARK       I    between atoms: N_13  and  C_14 
REMARK       I    between atoms: C_14  and  N_15 
REMARK    5  A    between atoms: N_15  and  C_16 
REMARK    6  A    between atoms: C_16  and  C_17 
REMARK    7  A    between atoms: C_17  and  C_18 
REMARK    8  A    between atoms: C_21  and  S_22 
REMARK    9  A    between atoms: S_22  and  N_23 
ROOT
HETATM    1  N   UNL     1      44.256 -11.932   5.378  1.00  0.00    -0.336 N 
HETATM    2  C   UNL     1      44.772 -11.694   6.627  1.00  0.00     0.316 C 
HETATM    3  N   UNL     1      45.832 -10.833   6.561  1.00  0.00    -0.343 N 
HETATM    4  O   UNL     1      44.356 -12.210   7.653  1.00  0.00    -0.248 OA
HETATM    5  H   UNL     1      44.269 -11.111   4.786  1.00  0.00     0.164 HD
HETATM    6  H   UNL     1      46.327 -10.820   5.680  1.00  0.00     0.164 HD
ENDROOT
BRANCH   1   7
HETATM    7  C   UNL     1      43.133 -12.847   5.217  1.00  0.00     0.113 C 
HETATM    8  C   UNL     1      41.805 -12.164   5.498  1.00  0.00     0.130 C 
HETATM    9  C   UNL     1      40.832 -12.837   4.564  1.00  0.00     0.226 C 
HETATM   10  N   UNL     1      41.556 -13.492   3.565  1.00  0.00    -0.316 N 
HETATM   11  O   UNL     1      39.622 -12.719   4.694  1.00  0.00    -0.273 OA
HETATM   12  C   UNL     1      42.978 -13.373   3.790  1.00  0.00     0.157 C 
BRANCH  10  13
HETATM   13  C   UNL     1      41.036 -14.032   2.354  1.00  0.00     0.037 A 
HETATM   14  C   UNL     1      40.422 -15.290   2.301  1.00  0.00     0.032 A 
HETATM   15  C   UNL     1      39.827 -15.765   1.122  1.00  0.00     0.039 A 
HETATM   16  C   UNL     1      39.838 -14.986  -0.030  1.00  0.00     0.068 A 
HETATM   17  C   UNL     1      40.502 -13.765  -0.016  1.00  0.00     0.039 A 
HETATM   18  C   UNL     1      41.087 -13.289   1.163  1.00  0.00     0.032 A 
BRANCH  16  19
HETATM   19  O   UNL     1      39.254 -15.325  -1.218  1.00  0.00    -0.352 OA
BRANCH  19  20
HETATM   20  C   UNL     1      39.191 -14.278  -2.188  1.00  0.00     0.171 C 
HETATM   21  C   UNL     1      38.355 -14.774  -3.354  1.00  0.00     0.034 C 
ENDBRANCH  19  20
ENDBRANCH  16  19
ENDBRANCH  10  13
ENDBRANCH   1   7
BRANCH   3  22
HETATM   22  C   UNL     1      46.564 -10.467   7.758  1.00  0.00     0.129 C 
BRANCH  22  23
HETATM   23  C   UNL     1      46.246  -9.049   8.248  1.00  0.00     0.058 C 
BRANCH  23  24
HETATM   24  C   UNL     1      45.101  -8.965   9.233  1.00  0.00    -0.057 A 
HETATM   25  C   UNL     1      45.018  -9.847  10.321  1.00  0.00     0.009 A 
HETATM   26  C   UNL     1      43.946  -9.774  11.211  1.00  0.00     0.025 A 
HETATM   27  C   UNL     1      42.959  -8.802  11.027  1.00  0.00     0.074 A 
HETATM   28  C   UNL     1      43.030  -7.913   9.954  1.00  0.00     0.025 A 
HETATM   29  C   UNL     1      44.103  -7.991   9.065  1.00  0.00     0.009 A 
BRANCH  27  30
HETATM   30  S   UNL     1      41.574  -8.746  12.125  1.00  0.00     0.239 S 
HETATM   31  O   UNL     1      41.976  -8.120  13.364  1.00  0.00    -0.206 OA
HETATM   32  O   UNL     1      40.405  -8.326  11.389  1.00  0.00    -0.206 OA
BRANCH  30  33
HETATM   33  N   UNL     1      41.344 -10.369  12.480  1.00  0.00    -0.225 NA
HETATM   34  H   UNL     1      40.415 -10.508  12.880  1.00  0.00     0.136 HD
HETATM   35  H   UNL     1      41.525 -10.934  11.651  1.00  0.00     0.136 HD
ENDBRANCH  30  33
ENDBRANCH  27  30
ENDBRANCH  23  24
ENDBRANCH  22  23
ENDBRANCH   3  22
TORSDOF 9
ENDMDL
MODEL 3
REMARK VINA RESULT:      -8.5      3.039      3.958
REMARK  9 active torsions:
REMARK  status: ('A' for Active; 'I' for Inactive)
REMARK    1  A    between atoms: C_2  and  O_3 
REMARK    2  A    between atoms: O_3  and  C_4 
REMARK    3  A    between atoms: C_7  and  N_8 
REMARK    4  A    between atoms: C_12  and  N_13 
REMARK       I    between atoms: N_13  and  C_14 
REMARK       I    between atoms: C_14  and  N_15 
REMARK    5  A    between atoms: N_15  and  C_16 
REMARK    6  A    between atoms: C_16  and  C_17 
REMARK    7  A    between atoms: C_17  and  C_18 
REMARK    8  A    between atoms: C_21  and  S_22 
REMARK    9  A    between atoms: S_22  and  N_23 
ROOT
HETATM    1  N   UNL     1      43.149 -11.197   7.402  1.00  0.00    -0.336 N 
HETATM    2  C   UNL     1      42.601 -10.215   8.188  1.00  0.00     0.316 C 
HETATM    3  N   UNL     1      43.335 -10.036   9.328  1.00  0.00    -0.343 N 
HETATM    4  O   UNL     1      41.578  -9.606   7.915  1.00  0.00    -0.248 OA
HETATM    5  H   UNL     1      44.161 -11.191   7.416  1.00  0.00     0.164 HD
HETATM    6  H   UNL     1      43.867 -10.839   9.632  1.00  0.00     0.164 HD
ENDROOT
BRANCH   1   7
HETATM    7  C   UNL     1      42.507 -11.569   6.147  1.00  0.00     0.113 C 
HETATM    8  C   UNL     1      43.138 -10.861   4.960  1.00  0.00     0.130 C 
HETATM    9  C   UNL     1      43.025 -11.851   3.829  1.00  0.00     0.226 C 
HETATM   10  N   UNL     1      42.782 -13.117   4.370  1.00  0.00    -0.316 N 
HETATM   11  O   UNL     1      43.199 -11.527   2.664  1.00  0.00    -0.273 OA
HETATM   12  C   UNL     1      42.650 -13.052   5.808  1.00  0.00     0.157 C 
BRANCH  10  13
HETATM   13  C   UNL     1      42.859 -14.363   3.684  1.00  0.00     0.037 A 
HETATM   14  C   UNL     1      43.139 -14.444   2.314  1.00  0.00     0.032 A 
HETATM   15  C   UNL     1      43.309 -15.681   1.674  1.00  0.00     0.039 A 
HETATM   16  C   UNL     1      43.200 -16.864   2.398  1.00  0.00     0.068 A 
HETATM   17  C   UNL     1      42.857 -16.806   3.743  1.00  0.00     0.039 A 
HETATM   18  C   UNL     1      42.696 -15.571   4.381  1.00  0.00     0.032 A 
BRANCH  16  19
HETATM   19  O   UNL     1      43.389 -18.119   1.892  1.00  0.00    -0.352 OA
BRANCH  19  20
HETATM   20  C   UNL     1      43.898 -19.080   2.818  1.00  0.00     0.171 C 
HETATM   21  C   UNL     1      43.587 -20.462   2.273  1.00  0.00     0.034 C 
ENDBRANCH  19  20
ENDBRANCH  16  19
ENDBRANCH  10  13
ENDBRANCH   1   7
BRANCH   3  22
HETATM   22  C   UNL     1      42.921  -9.074  10.331  1.00  0.00     0.129 C 
BRANCH  22  23
HETATM   23  C   UNL     1      43.782  -9.117  11.598  1.00  0.00     0.058 C 
BRANCH  23  24
HETATM   24  C   UNL     1      43.101  -8.588  12.841  1.00  0.00    -0.057 A 
HETATM   25  C   UNL     1      41.986  -9.241  13.386  1.00  0.00     0.009 A 
HETATM   26  C   UNL     1      41.351  -8.733  14.520  1.00  0.00     0.025 A 
HETATM   27  C   UNL     1      41.845  -7.575  15.128  1.00  0.00     0.074 A 
HETATM   28  C   UNL     1      42.958  -6.917  14.602  1.00  0.00     0.025 A 
HETATM   29  C   UNL     1      43.587  -7.429  13.467  1.00  0.00     0.009 A 
BRANCH  27  30
HETATM   30  S   UNL     1      41.009  -6.903  16.532  1.00  0.00     0.239 S 
HETATM   31  O   UNL     1      41.841  -5.890  17.141  1.00  0.00    -0.206 OA
HETATM   32  O   UNL     1      39.627  -6.664  16.191  1.00  0.00    -0.206 OA
BRANCH  30  33
HETATM   33  N   UNL     1      41.010  -8.201  17.595  1.00  0.00    -0.225 NA
HETATM   34  H   UNL     1      41.894  -8.706  17.524  1.00  0.00     0.136 HD
HETATM   35  H   UNL     1      40.793  -7.877  18.537  1.00  0.00     0.136 HD
ENDBRANCH  30  33
ENDBRANCH  27  30
ENDBRANCH  23  24
ENDBRANCH  22  23
ENDBRANCH   3  22
TORSDOF 9
ENDMDL
MODEL 4
REMARK VINA RESULT:      -8.5      1.592      2.105
REMARK  9 active torsions:
REMARK  status: ('A' for Active; 'I' for Inactive)
REMARK    1  A    between atoms: C_2  and  O_3 
REMARK    2  A    between atoms: O_3  and  C_4 
REMARK    3  A    between atoms: C_7  and  N_8 
REMARK    4  A    between atoms: C_12  and  N_13 
REMARK       I    between atoms: N_13  and  C_14 
REMARK       I    between atoms: C_14  and  N_15 
REMARK    5  A    between atoms: N_15  and  C_16 
REMARK    6  A    between atoms: C_16  and  C_17 
REMARK    7  A    between atoms: C_17  and  C_18 
REMARK    8  A    between atoms: C_21  and  S_22 
REMARK    9  A    between atoms: S_22  and  N_23 
ROOT
HETATM    1  N   UNL     1      42.889 -11.789   7.012  1.00  0.00    -0.336 N 
HETATM    2  C   UNL     1      43.801 -11.267   7.895  1.00  0.00     0.316 C 
HETATM    3  N   UNL     1      43.195 -10.414   8.775  1.00  0.00    -0.343 N 
HETATM    4  O   UNL     1      44.998 -11.511   7.872  1.00  0.00    -0.248 OA
HETATM    5  H   UNL     1      41.993 -11.979   7.441  1.00  0.00     0.164 HD
HETATM    6  H   UNL     1      42.344  -9.981   8.444  1.00  0.00     0.164 HD
ENDROOT
BRANCH   1   7
HETATM    7  C   UNL     1      43.330 -12.704   5.967  1.00  0.00     0.113 C 
HETATM    8  C   UNL     1      43.330 -14.147   6.444  1.00  0.00     0.130 C 
HETATM    9  C   UNL     1      42.975 -14.948   5.218  1.00  0.00     0.226 C 
HETATM   10  N   UNL     1      42.405 -14.089   4.275  1.00  0.00    -0.316 N 
HETATM   11  O   UNL     1      43.132 -16.160   5.168  1.00  0.00    -0.273 OA
HETATM   12  C   UNL     1      42.408 -12.723   4.748  1.00  0.00     0.157 C 
BRANCH  10  13
HETATM   13  C   UNL     1      41.706 -14.467   3.094  1.00  0.00     0.037 A 
HETATM   14  C   UNL     1      40.732 -15.474   3.094  1.00  0.00     0.032 A 
HETATM   15  C   UNL     1      39.983 -15.767   1.943  1.00  0.00     0.039 A 
HETATM   16  C   UNL     1      40.198 -15.055   0.768  1.00  0.00     0.068 A 
HETATM   17  C   UNL     1      41.207 -14.099   0.730  1.00  0.00     0.039 A 
HETATM   18  C   UNL     1      41.947 -13.803   1.880  1.00  0.00     0.032 A 
BRANCH  16  19
HETATM   19  O   UNL     1      39.501 -15.222  -0.395  1.00  0.00    -0.352 OA
BRANCH  19  20
HETATM   20  C   UNL     1      39.723 -14.221  -1.389  1.00  0.00     0.171 C 
HETATM   21  C   UNL     1      39.033 -14.670  -2.664  1.00  0.00     0.034 C 
ENDBRANCH  19  20
ENDBRANCH  16  19
ENDBRANCH  10  13
ENDBRANCH   1   7
BRANCH   3  22
HETATM   22  C   UNL     1      43.971  -9.711   9.777  1.00  0.00     0.129 C 
BRANCH  22  23
HETATM   23  C   UNL     1      43.899 -10.364  11.162  1.00  0.00     0.058 C 
BRANCH  23  24
HETATM   24  C   UNL     1      43.214  -9.525  12.219  1.00  0.00    -0.057 A 
HETATM   25  C   UNL     1      43.595  -8.193  12.442  1.00  0.00     0.009 A 
HETATM   26  C   UNL     1      42.973  -7.435  13.435  1.00  0.00     0.025 A 
HETATM   27  C   UNL     1      41.949  -8.003  14.198  1.00  0.00     0.074 A 
HETATM   28  C   UNL     1      41.553  -9.325  13.985  1.00  0.00     0.025 A 
HETATM   29  C   UNL     1      42.181 -10.079  12.992  1.00  0.00     0.009 A 
BRANCH  27  30
HETATM   30  S   UNL     1      41.198  -7.059  15.491  1.00  0.00     0.239 S 
HETATM   31  O   UNL     1      42.163  -6.117  16.012  1.00  0.00    -0.206 OA
HETATM   32  O   UNL     1      39.874  -6.660  15.076  1.00  0.00    -0.206 OA
BRANCH  30  33
HETATM   33  N   UNL     1      40.986  -8.213  16.689  1.00  0.00    -0.225 NA
HETATM   34  H   UNL     1      41.206  -7.811  17.601  1.00  0.00     0.136 HD
HETATM   35  H   UNL     1      40.047  -8.607  16.627  1.00  0.00     0.136 HD
ENDBRANCH  30  33
ENDBRANCH  27  30
ENDBRANCH  23  24
ENDBRANCH  22  23
ENDBRANCH   3  22
TORSDOF 9
ENDMDL
MODEL 5
REMARK VINA RESULT:      -8.3      3.784     11.612
REMARK  9 active torsions:
REMARK  status: ('A' for Active; 'I' for Inactive)
REMARK    1  A    between atoms: C_2  and  O_3 
REMARK    2  A    between atoms: O_3  and  C_4 
REMARK    3  A    between atoms: C_7  and  N_8 
REMARK    4  A    between atoms: C_12  and  N_13 
REMARK       I    between atoms: N_13  and  C_14 
REMARK       I    between atoms: C_14  and  N_15 
REMARK    5  A    between atoms: N_15  and  C_16 
REMARK    6  A    between atoms: C_16  and  C_17 
REMARK    7  A    between atoms: C_17  and  C_18 
REMARK    8  A    between atoms: C_21  and  S_22 
REMARK    9  A    between atoms: S_22  and  N_23 
ROOT
HETATM    1  N   UNL     1      43.749 -12.309   5.336  1.00  0.00    -0.336 N 
HETATM    2  C   UNL     1      42.914 -13.394   5.244  1.00  0.00     0.316 C 
HETATM    3  N   UNL     1      42.361 -13.480   3.997  1.00  0.00    -0.343 N 
HETATM    4  O   UNL     1      42.675 -14.159   6.166  1.00  0.00    -0.248 OA
HETATM    5  H   UNL     1      44.271 -12.144   4.485  1.00  0.00     0.164 HD
HETATM    6  H   UNL     1      42.292 -12.608   3.491  1.00  0.00     0.164 HD
ENDROOT
BRANCH   1   7
HETATM    7  C   UNL     1      44.424 -12.015   6.594  1.00  0.00     0.113 C 
HETATM    8  C   UNL     1      45.675 -11.179   6.381  1.00  0.00     0.130 C 
HETATM    9  C   UNL     1      45.760 -10.310   7.609  1.00  0.00     0.226 C 
HETATM   10  N   UNL     1      44.511 -10.303   8.236  1.00  0.00    -0.316 N 
HETATM   11  O   UNL     1      46.776  -9.695   7.899  1.00  0.00    -0.273 OA
HETATM   12  C   UNL     1      43.581 -11.173   7.552  1.00  0.00     0.157 C 
BRANCH  10  13
HETATM   13  C   UNL     1      44.085  -9.421   9.270  1.00  0.00     0.037 A 
HETATM   14  C   UNL     1      43.394  -8.234   9.001  1.00  0.00     0.032 A 
HETATM   15  C   UNL     1      42.895  -7.427  10.035  1.00  0.00     0.039 A 
HETATM   16  C   UNL     1      43.081  -7.796  11.363  1.00  0.00     0.068 A 
HETATM   17  C   UNL     1      43.823  -8.936  11.651  1.00  0.00     0.039 A 
HETATM   18  C   UNL     1      44.312  -9.743  10.618  1.00  0.00     0.032 A 
BRANCH  16  19
HETATM   19  O   UNL     1      42.603  -7.115  12.446  1.00  0.00    -0.352 OA
BRANCH  19  20
HETATM   20  C   UNL     1      43.009  -7.626  13.717  1.00  0.00     0.171 C 
HETATM   21  C   UNL     1      41.777  -8.172  14.415  1.00  0.00     0.034 C 
ENDBRANCH  19  20
ENDBRANCH  16  19
ENDBRANCH  10  13
ENDBRANCH   1   7
BRANCH   3  22
HETATM   22  C   UNL     1      41.411 -14.528   3.679  1.00  0.00     0.129 C 
BRANCH  22  23
HETATM   23  C   UNL     1      40.074 -13.991   3.158  1.00  0.00     0.058 C 
BRANCH  23  24
HETATM   24  C   UNL     1      40.030 -13.746   1.666  1.00  0.00    -0.057 A 
HETATM   25  C   UNL     1      39.807 -12.460   1.151  1.00  0.00     0.009 A 
HETATM   26  C   UNL     1      39.747 -12.249  -0.227  1.00  0.00     0.025 A 
HETATM   27  C   UNL     1      39.931 -13.324  -1.099  1.00  0.00     0.074 A 
HETATM   28  C   UNL     1      40.160 -14.610  -0.605  1.00  0.00     0.025 A 
HETATM   29  C   UNL     1      40.217 -14.815   0.775  1.00  0.00     0.009 A 
BRANCH  27  30
HETATM   30  S   UNL     1      39.801 -13.065  -2.843  1.00  0.00     0.239 S 
HETATM   31  O   UNL     1      39.090 -14.174  -3.436  1.00  0.00    -0.206 OA
HETATM   32  O   UNL     1      39.435 -11.691  -3.091  1.00  0.00    -0.206 OA
BRANCH  30  33
HETATM   33  N   UNL     1      41.396 -13.221  -3.339  1.00  0.00    -0.225 NA
HETATM   34  H   UNL     1      41.513 -14.088  -3.865  1.00  0.00     0.136 HD
HETATM   35  H   UNL     1      41.682 -12.386  -3.851  1.00  0.00     0.136 HD
ENDBRANCH  30  33
ENDBRANCH  27  30
ENDBRANCH  23  24
ENDBRANCH  22  23
ENDBRANCH   3  22
TORSDOF 9
ENDMDL
MODEL 6
REMARK VINA RESULT:      -8.2      2.331      3.435
REMARK  9 active torsions:
REMARK  status: ('A' for Active; 'I' for Inactive)
REMARK    1  A    between atoms: C_2  and  O_3 
REMARK    2  A    between atoms: O_3  and  C_4 
REMARK    3  A    between atoms: C_7  and  N_8 
REMARK    4  A    between atoms: C_12  and  N_13 
REMARK       I    between atoms: N_13  and  C_14 
REMARK       I    between atoms: C_14  and  N_15 
REMARK    5  A    between atoms: N_15  and  C_16 
REMARK    6  A    between atoms: C_16  and  C_17 
REMARK    7  A    between atoms: C_17  and  C_18 
REMARK    8  A    between atoms: C_21  and  S_22 
REMARK    9  A    between atoms: S_22  and  N_23 
ROOT
HETATM    1  N   UNL     1      42.430 -11.119   6.850  1.00  0.00    -0.336 N 
HETATM    2  C   UNL     1      43.750 -11.247   7.205  1.00  0.00     0.316 C 
HETATM    3  N   UNL     1      44.046 -10.449   8.276  1.00  0.00    -0.343 N 
HETATM    4  O   UNL     1      44.554 -11.955   6.619  1.00  0.00    -0.248 OA
HETATM    5  H   UNL     1      41.819 -11.012   7.649  1.00  0.00     0.164 HD
HETATM    6  H   UNL     1      43.456  -9.637   8.389  1.00  0.00     0.164 HD
ENDROOT
BRANCH   1   7
HETATM    7  C   UNL     1      41.907 -11.863   5.711  1.00  0.00     0.113 C 
HETATM    8  C   UNL     1      42.487 -11.365   4.398  1.00  0.00     0.130 C 
HETATM    9  C   UNL     1      42.569 -12.596   3.533  1.00  0.00     0.226 C 
HETATM   10  N   UNL     1      42.485 -13.723   4.355  1.00  0.00    -0.316 N 
HETATM   11  O   UNL     1      42.749 -12.529   2.325  1.00  0.00    -0.273 OA
HETATM   12  C   UNL     1      42.277 -13.346   5.734  1.00  0.00     0.157 C 
BRANCH  10  13
HETATM   13  C   UNL     1      42.771 -15.068   3.984  1.00  0.00     0.037 A 
HETATM   14  C   UNL     1      42.649 -15.520   2.664  1.00  0.00     0.032 A 
HETATM   15  C   UNL     1      43.029 -16.821   2.298  1.00  0.00     0.039 A 
HETATM   16  C   UNL     1      43.539 -17.695   3.252  1.00  0.00     0.068 A 
HETATM   17  C   UNL     1      43.604 -17.287   4.579  1.00  0.00     0.039 A 
HETATM   18  C   UNL     1      43.232 -15.987   4.940  1.00  0.00     0.032 A 
BRANCH  16  19
HETATM   19  O   UNL     1      43.981 -18.963   3.003  1.00  0.00    -0.352 OA
BRANCH  19  20
HETATM   20  C   UNL     1      43.090 -19.783   2.245  1.00  0.00     0.171 C 
HETATM   21  C   UNL     1      43.925 -20.795   1.481  1.00  0.00     0.034 C 
ENDBRANCH  19  20
ENDBRANCH  16  19
ENDBRANCH  10  13
ENDBRANCH   1   7
BRANCH   3  22
HETATM   22  C   UNL     1      45.396 -10.389   8.802  1.00  0.00     0.129 C 
BRANCH  22  23
HETATM   23  C   UNL     1      45.497  -9.599  10.111  1.00  0.00     0.058 C 
BRANCH  23  24
HETATM   24  C   UNL     1      44.211  -9.529  10.906  1.00  0.00    -0.057 A 
HETATM   25  C   UNL     1      43.426  -8.367  10.907  1.00  0.00     0.009 A 
HETATM   26  C   UNL     1      42.253  -8.305  11.661  1.00  0.00     0.025 A 
HETATM   27  C   UNL     1      41.850  -9.417  12.404  1.00  0.00     0.074 A 
HETATM   28  C   UNL     1      42.617 -10.584  12.409  1.00  0.00     0.025 A 
HETATM   29  C   UNL     1      43.789 -10.639  11.655  1.00  0.00     0.009 A 
BRANCH  27  30
HETATM   30  S   UNL     1      40.393  -9.319  13.401  1.00  0.00     0.239 S 
HETATM   31  O   UNL     1      40.770  -9.018  14.763  1.00  0.00    -0.206 OA
HETATM   32  O   UNL     1      39.386  -8.565  12.693  1.00  0.00    -0.206 OA
BRANCH  30  33
HETATM   33  N   UNL     1      39.867 -10.912  13.408  1.00  0.00    -0.225 NA
HETATM   34  H   UNL     1      40.455 -11.469  14.029  1.00  0.00     0.136 HD
HETATM   35  H   UNL     1      38.874 -10.947  13.639  1.00  0.00     0.136 HD
ENDBRANCH  30  33
ENDBRANCH  27  30
ENDBRANCH  23  24
ENDBRANCH  22  23
ENDBRANCH   3  22
TORSDOF 9
ENDMDL
MODEL 7
REMARK VINA RESULT:      -8.0      2.971      3.894
REMARK  9 active torsions:
REMARK  status: ('A' for Active; 'I' for Inactive)
REMARK    1  A    between atoms: C_2  and  O_3 
REMARK    2  A    between atoms: O_3  and  C_4 
REMARK    3  A    between atoms: C_7  and  N_8 
REMARK    4  A    between atoms: C_12  and  N_13 
REMARK       I    between atoms: N_13  and  C_14 
REMARK       I    between atoms: C_14  and  N_15 
REMARK    5  A    between atoms: N_15  and  C_16 
REMARK    6  A    between atoms: C_16  and  C_17 
REMARK    7  A    between atoms: C_17  and  C_18 
REMARK    8  A    between atoms: C_21  and  S_22 
REMARK    9  A    between atoms: S_22  and  N_23 
ROOT
HETATM    1  N   UNL     1      44.681 -12.273   6.947  1.00  0.00    -0.336 N 
HETATM    2  C   UNL     1      44.320 -11.116   7.589  1.00  0.00     0.316 C 
HETATM    3  N   UNL     1      45.417 -10.348   7.863  1.00  0.00    -0.343 N 
HETATM    4  O   UNL     1      43.174 -10.831   7.900  1.00  0.00    -0.248 OA
HETATM    5  H   UNL     1      45.441 -12.137   6.293  1.00  0.00     0.164 HD
HETATM    6  H   UNL     1      46.290 -10.851   7.950  1.00  0.00     0.164 HD
ENDROOT
BRANCH   1   7
HETATM    7  C   UNL     1      43.664 -13.253   6.585  1.00  0.00     0.113 C 
HETATM    8  C   UNL     1      43.105 -12.997   5.195  1.00  0.00     0.130 C 
HETATM    9  C   UNL     1      42.789 -14.369   4.659  1.00  0.00     0.226 C 
HETATM   10  N   UNL     1      43.479 -15.314   5.424  1.00  0.00    -0.316 N 
HETATM   11  O   UNL     1      42.090 -14.534   3.670  1.00  0.00    -0.273 OA
HETATM   12  C   UNL     1      44.199 -14.682   6.506  1.00  0.00     0.157 C 
BRANCH  10  13
HETATM   13  C   UNL     1      43.664 -16.691   5.109  1.00  0.00     0.037 A 
HETATM   14  C   UNL     1      43.478 -17.705   6.057  1.00  0.00     0.032 A 
HETATM   15  C   UNL     1      43.568 -19.061   5.705  1.00  0.00     0.039 A 
HETATM   16  C   UNL     1      43.849 -19.426   4.393  1.00  0.00     0.068 A 
HETATM   17  C   UNL     1      44.103 -18.434   3.453  1.00  0.00     0.039 A 
HETATM   18  C   UNL     1      44.004 -17.083   3.804  1.00  0.00     0.032 A 
BRANCH  16  19
HETATM   19  O   UNL     1      43.916 -20.709   3.928  1.00  0.00    -0.352 OA
BRANCH  19  20
HETATM   20  C   UNL     1      44.020 -20.840   2.509  1.00  0.00     0.171 C 
HETATM   21  C   UNL     1      42.710 -20.372   1.902  1.00  0.00     0.034 C 
ENDBRANCH  19  20
ENDBRANCH  16  19
ENDBRANCH  10  13
ENDBRANCH   1   7
BRANCH   3  22
HETATM   22  C   UNL     1      45.282  -9.093   8.577  1.00  0.00     0.129 C 
BRANCH  22  23
HETATM   23  C   UNL     1      45.306  -9.261  10.101  1.00  0.00     0.058 C 
BRANCH  23  24
HETATM   24  C   UNL     1      43.943  -9.420  10.739  1.00  0.00    -0.057 A 
HETATM   25  C   UNL     1      43.714 -10.400  11.716  1.00  0.00     0.009 A 
HETATM   26  C   UNL     1      42.447 -10.552  12.283  1.00  0.00     0.025 A 
HETATM   27  C   UNL     1      41.407  -9.708  11.886  1.00  0.00     0.074 A 
HETATM   28  C   UNL     1      41.620  -8.723  10.920  1.00  0.00     0.025 A 
HETATM   29  C   UNL     1      42.888  -8.577  10.355  1.00  0.00     0.009 A 
BRANCH  27  30
HETATM   30  S   UNL     1      39.791  -9.936  12.566  1.00  0.00     0.239 S 
HETATM   31  O   UNL     1      39.814 -11.058  13.476  1.00  0.00    -0.206 OA
HETATM   32  O   UNL     1      39.247  -8.651  12.936  1.00  0.00    -0.206 OA
BRANCH  30  33
HETATM   33  N   UNL     1      38.918 -10.446  11.227  1.00  0.00    -0.225 NA
HETATM   34  H   UNL     1      38.233  -9.734  10.968  1.00  0.00     0.136 HD
HETATM   35  H   UNL     1      39.556 -10.697  10.473  1.00  0.00     0.136 HD
ENDBRANCH  30  33
ENDBRANCH  27  30
ENDBRANCH  23  24
ENDBRANCH  22  23
ENDBRANCH   3  22
TORSDOF 9
ENDMDL
MODEL 8
REMARK VINA RESULT:      -8.0      3.522     11.811
REMARK  9 active torsions:
REMARK  status: ('A' for Active; 'I' for Inactive)
REMARK    1  A    between atoms: C_2  and  O_3 
REMARK    2  A    between atoms: O_3  and  C_4 
REMARK    3  A    between atoms: C_7  and  N_8 
REMARK    4  A    between atoms: C_12  and  N_13 
REMARK       I    between atoms: N_13  and  C_14 
REMARK       I    between atoms: C_14  and  N_15 
REMARK    5  A    between atoms: N_15  and  C_16 
REMARK    6  A    between atoms: C_16  and  C_17 
REMARK    7  A    between atoms: C_17  and  C_18 
REMARK    8  A    between atoms: C_21  and  S_22 
REMARK    9  A    between atoms: S_22  and  N_23 
ROOT
HETATM    1  N   UNL     1      43.166 -10.407   8.674  1.00  0.00    -0.336 N 
HETATM    2  C   UNL     1      44.100 -11.263   8.147  1.00  0.00     0.316 C 
HETATM    3  N   UNL     1      43.505 -12.210   7.360  1.00  0.00    -0.343 N 
HETATM    4  O   UNL     1      45.298 -11.201   8.379  1.00  0.00    -0.248 OA
HETATM    5  H   UNL     1      42.416 -10.200   8.027  1.00  0.00     0.164 HD
HETATM    6  H   UNL     1      42.541 -12.415   7.580  1.00  0.00     0.164 HD
ENDROOT
BRANCH   1   7
HETATM    7  C   UNL     1      43.583  -9.334   9.568  1.00  0.00     0.113 C 
HETATM    8  C   UNL     1      42.894  -8.022   9.234  1.00  0.00     0.130 C 
HETATM    9  C   UNL     1      42.730  -7.335  10.565  1.00  0.00     0.226 C 
HETATM   10  N   UNL     1      42.880  -8.286  11.578  1.00  0.00    -0.316 N 
HETATM   11  O   UNL     1      42.445  -6.149  10.652  1.00  0.00    -0.273 OA
HETATM   12  C   UNL     1      43.209  -9.582  11.029  1.00  0.00     0.157 C 
BRANCH  10  13
HETATM   13  C   UNL     1      42.555  -8.120  12.955  1.00  0.00     0.037 A 
HETATM   14  C   UNL     1      43.239  -7.218  13.778  1.00  0.00     0.032 A 
HETATM   15  C   UNL     1      42.843  -6.995  15.106  1.00  0.00     0.039 A 
HETATM   16  C   UNL     1      41.751  -7.675  15.634  1.00  0.00     0.068 A 
HETATM   17  C   UNL     1      41.102  -8.624  14.854  1.00  0.00     0.039 A 
HETATM   18  C   UNL     1      41.493  -8.839  13.527  1.00  0.00     0.032 A 
BRANCH  16  19
HETATM   19  O   UNL     1      41.249  -7.506  16.894  1.00  0.00    -0.352 OA
BRANCH  19  20
HETATM   20  C   UNL     1      40.927  -6.159  17.247  1.00  0.00     0.171 C 
HETATM   21  C   UNL     1      39.455  -5.940  16.953  1.00  0.00     0.034 C 
ENDBRANCH  19  20
ENDBRANCH  16  19
ENDBRANCH  10  13
ENDBRANCH   1   7
BRANCH   3  22
HETATM   22  C   UNL     1      44.296 -13.249   6.728  1.00  0.00     0.129 C 
BRANCH  22  23
HETATM   23  C   UNL     1      43.516 -14.552   6.516  1.00  0.00     0.058 C 
BRANCH  23  24
HETATM   24  C   UNL     1      42.681 -14.587   5.254  1.00  0.00    -0.057 A 
HETATM   25  C   UNL     1      41.689 -15.563   5.073  1.00  0.00     0.009 A 
HETATM   26  C   UNL     1      40.940 -15.601   3.897  1.00  0.00     0.025 A 
HETATM   27  C   UNL     1      41.166 -14.646   2.902  1.00  0.00     0.074 A 
HETATM   28  C   UNL     1      42.144 -13.664   3.069  1.00  0.00     0.025 A 
HETATM   29  C   UNL     1      42.893 -13.633   4.246  1.00  0.00     0.009 A 
BRANCH  27  30
HETATM   30  S   UNL     1      40.253 -14.727   1.391  1.00  0.00     0.239 S 
HETATM   31  O   UNL     1      39.688 -16.050   1.248  1.00  0.00    -0.206 OA
HETATM   32  O   UNL     1      39.459 -13.529   1.253  1.00  0.00    -0.206 OA
BRANCH  30  33
HETATM   33  N   UNL     1      41.469 -14.617   0.240  1.00  0.00    -0.225 NA
HETATM   34  H   UNL     1      41.186 -13.977  -0.503  1.00  0.00     0.136 HD
HETATM   35  H   UNL     1      42.348 -14.364   0.690  1.00  0.00     0.136 HD
ENDBRANCH  30  33
ENDBRANCH  27  30
ENDBRANCH  23  24
ENDBRANCH  22  23
ENDBRANCH   3  22
TORSDOF 9
ENDMDL
MODEL 9
REMARK VINA RESULT:      -7.9      6.182      9.894
REMARK  9 active torsions:
REMARK  status: ('A' for Active; 'I' for Inactive)
REMARK    1  A    between atoms: C_2  and  O_3 
REMARK    2  A    between atoms: O_3  and  C_4 
REMARK    3  A    between atoms: C_7  and  N_8 
REMARK    4  A    between atoms: C_12  and  N_13 
REMARK       I    between atoms: N_13  and  C_14 
REMARK       I    between atoms: C_14  and  N_15 
REMARK    5  A    between atoms: N_15  and  C_16 
REMARK    6  A    between atoms: C_16  and  C_17 
REMARK    7  A    between atoms: C_17  and  C_18 
REMARK    8  A    between atoms: C_21  and  S_22 
REMARK    9  A    between atoms: S_22  and  N_23 
ROOT
HETATM    1  N   UNL     1      39.369 -11.131   3.824  1.00  0.00    -0.336 N 
HETATM    2  C   UNL     1      39.870 -10.112   3.054  1.00  0.00     0.316 C 
HETATM    3  N   UNL     1      38.865  -9.457   2.398  1.00  0.00    -0.343 N 
HETATM    4  O   UNL     1      41.058  -9.850   2.947  1.00  0.00    -0.248 OA
HETATM    5  H   UNL     1      38.485 -10.897   4.256  1.00  0.00     0.164 HD
HETATM    6  H   UNL     1      38.030 -10.000   2.229  1.00  0.00     0.164 HD
ENDROOT
BRANCH   1   7
HETATM    7  C   UNL     1      40.276 -11.979   4.588  1.00  0.00     0.113 C 
HETATM    8  C   UNL     1      39.539 -12.782   5.646  1.00  0.00     0.130 C 
HETATM    9  C   UNL     1      40.304 -14.078   5.735  1.00  0.00     0.226 C 
HETATM   10  N   UNL     1      41.092 -14.207   4.588  1.00  0.00    -0.316 N 
HETATM   11  O   UNL     1      40.149 -14.860   6.661  1.00  0.00    -0.273 OA
HETATM   12  C   UNL     1      40.972 -13.043   3.741  1.00  0.00     0.157 C 
BRANCH  10  13
HETATM   13  C   UNL     1      41.768 -15.382   4.150  1.00  0.00     0.037 A 
HETATM   14  C   UNL     1      41.378 -16.083   3.003  1.00  0.00     0.032 A 
HETATM   15  C   UNL     1      42.114 -17.181   2.530  1.00  0.00     0.039 A 
HETATM   16  C   UNL     1      43.259 -17.596   3.202  1.00  0.00     0.068 A 
HETATM   17  C   UNL     1      43.624 -16.955   4.380  1.00  0.00     0.039 A 
HETATM   18  C   UNL     1      42.893 -15.856   4.845  1.00  0.00     0.032 A 
BRANCH  16  19
HETATM   19  O   UNL     1      44.076 -18.619   2.810  1.00  0.00    -0.352 OA
BRANCH  19  20
HETATM   20  C   UNL     1      43.410 -19.832   2.456  1.00  0.00     0.171 C 
HETATM   21  C   UNL     1      43.860 -20.910   3.424  1.00  0.00     0.034 C 
ENDBRANCH  19  20
ENDBRANCH  16  19
ENDBRANCH  10  13
ENDBRANCH   1   7
BRANCH   3  22
HETATM   22  C   UNL     1      39.162  -8.365   1.491  1.00  0.00     0.129 C 
BRANCH  22  23
HETATM   23  C   UNL     1      38.545  -8.553   0.101  1.00  0.00     0.058 C 
BRANCH  23  24
HETATM   24  C   UNL     1      38.803  -9.907  -0.525  1.00  0.00    -0.057 A 
HETATM   25  C   UNL     1      40.108 -10.327  -0.823  1.00  0.00     0.009 A 
HETATM   26  C   UNL     1      40.333 -11.568  -1.421  1.00  0.00     0.025 A 
HETATM   27  C   UNL     1      39.251 -12.404  -1.705  1.00  0.00     0.074 A 
HETATM   28  C   UNL     1      37.946 -12.004  -1.409  1.00  0.00     0.025 A 
HETATM   29  C   UNL     1      37.727 -10.761  -0.814  1.00  0.00     0.009 A 
BRANCH  27  30
HETATM   30  S   UNL     1      39.533 -13.953  -2.510  1.00  0.00     0.239 S 
HETATM   31  O   UNL     1      40.815 -13.915  -3.176  1.00  0.00    -0.206 OA
HETATM   32  O   UNL     1      39.155 -15.024  -1.620  1.00  0.00    -0.206 OA
BRANCH  30  33
HETATM   33  N   UNL     1      38.379 -13.929  -3.728  1.00  0.00    -0.225 NA
HETATM   34  H   UNL     1      38.715 -14.459  -4.534  1.00  0.00     0.136 HD
HETATM   35  H   UNL     1      37.484 -14.255  -3.364  1.00  0.00     0.136 HD
ENDBRANCH  30  33
ENDBRANCH  27  30
ENDBRANCH  23  24
ENDBRANCH  22  23
ENDBRANCH   3  22
TORSDOF 9
ENDMDL
MODEL 10
REMARK VINA RESULT:      -7.6      4.816     10.755
REMARK  9 active torsions:
REMARK  status: ('A' for Active; 'I' for Inactive)
REMARK    1  A    between atoms: C_2  and  O_3 
REMARK    2  A    between atoms: O_3  and  C_4 
REMARK    3  A    between atoms: C_7  and  N_8 
REMARK    4  A    between atoms: C_12  and  N_13 
REMARK       I    between atoms: N_13  and  C_14 
REMARK       I    between atoms: C_14  and  N_15 
REMARK    5  A    between atoms: N_15  and  C_16 
REMARK    6  A    between atoms: C_16  and  C_17 
REMARK    7  A    between atoms: C_17  and  C_18 
REMARK    8  A    between atoms: C_21  and  S_22 
REMARK    9  A    between atoms: S_22  and  N_23 
ROOT
HETATM    1  N   UNL     1      39.507 -15.468   1.580  1.00  0.00    -0.336 N 
HETATM    2  C   UNL     1      40.092 -14.931   0.461  1.00  0.00     0.316 C 
HETATM    3  N   UNL     1      39.219 -14.927  -0.591  1.00  0.00    -0.343 N 
HETATM    4  O   UNL     1      41.248 -14.539   0.410  1.00  0.00    -0.248 OA
HETATM    5  H   UNL     1      38.530 -15.219   1.669  1.00  0.00     0.164 HD
HETATM    6  H   UNL     1      38.492 -15.628  -0.556  1.00  0.00     0.164 HD
ENDROOT
BRANCH   1   7
HETATM    7  C   UNL     1      40.274 -15.594   2.813  1.00  0.00     0.113 C 
HETATM    8  C   UNL     1      41.519 -16.442   2.619  1.00  0.00     0.130 C 
HETATM    9  C   UNL     1      42.534 -15.841   3.557  1.00  0.00     0.226 C 
HETATM   10  N   UNL     1      42.105 -14.558   3.911  1.00  0.00    -0.316 N 
HETATM   11  O   UNL     1      43.568 -16.421   3.853  1.00  0.00    -0.273 OA
HETATM   12  C   UNL     1      40.816 -14.261   3.329  1.00  0.00     0.157 C 
BRANCH  10  13
HETATM   13  C   UNL     1      42.876 -13.556   4.566  1.00  0.00     0.037 A 
HETATM   14  C   UNL     1      43.242 -13.658   5.914  1.00  0.00     0.032 A 
HETATM   15  C   UNL     1      44.084 -12.712   6.518  1.00  0.00     0.039 A 
HETATM   16  C   UNL     1      44.575 -11.641   5.779  1.00  0.00     0.068 A 
HETATM   17  C   UNL     1      44.170 -11.485   4.459  1.00  0.00     0.039 A 
HETATM   18  C   UNL     1      43.337 -12.435   3.857  1.00  0.00     0.032 A 
BRANCH  16  19
HETATM   19  O   UNL     1      45.435 -10.687   6.248  1.00  0.00    -0.352 OA
BRANCH  19  20
HETATM   20  C   UNL     1      45.812 -10.826   7.619  1.00  0.00     0.171 C 
HETATM   21  C   UNL     1      45.416  -9.553   8.342  1.00  0.00     0.034 C 
ENDBRANCH  19  20
ENDBRANCH  16  19
ENDBRANCH  10  13
ENDBRANCH   1   7
BRANCH   3  22
HETATM   22  C   UNL     1      39.633 -14.440  -1.893  1.00  0.00     0.129 C 
BRANCH  22  23
HETATM   23  C   UNL     1      38.838 -13.214  -2.358  1.00  0.00     0.058 C 
BRANCH  23  24
HETATM   24  C   UNL     1      39.605 -11.910  -2.307  1.00  0.00    -0.057 A 
HETATM   25  C   UNL     1      40.833 -11.821  -1.634  1.00  0.00     0.009 A 
HETATM   26  C   UNL     1      41.520 -10.608  -1.575  1.00  0.00     0.025 A 
HETATM   27  C   UNL     1      40.990  -9.481  -2.207  1.00  0.00     0.074 A 
HETATM   28  C   UNL     1      39.772  -9.554  -2.886  1.00  0.00     0.025 A 
HETATM   29  C   UNL     1      39.088 -10.769  -2.941  1.00  0.00     0.009 A 
BRANCH  27  30
HETATM   30  S   UNL     1      41.836  -7.933  -2.086  1.00  0.00     0.239 S 
HETATM   31  O   UNL     1      42.579  -7.702  -3.303  1.00  0.00    -0.206 OA
HETATM   32  O   UNL     1      40.940  -6.947  -1.528  1.00  0.00    -0.206 OA
BRANCH  30  33
HETATM   33  N   UNL     1      42.978  -8.251  -0.900  1.00  0.00    -0.225 NA
HETATM   34  H   UNL     1      42.519  -8.618  -0.065  1.00  0.00     0.136 HD
HETATM   35  H   UNL     1      43.704  -8.863  -1.273  1.00  0.00     0.136 HD
ENDBRANCH  30  33
ENDBRANCH  27  30
ENDBRANCH  23  24
ENDBRANCH  22  23
ENDBRANCH   3  22
TORSDOF 9
ENDMDL
