MODEL 1
REMARK VINA RESULT:      -8.8      0.000      0.000
REMARK  6 active torsions:
REMARK  status: ('A' for Active; 'I' for Inactive)
REMARK    1  A    between atoms: C_7  and  C_8 
REMARK    2  A    between atoms: N_9  and  N_10 
REMARK       I    between atoms: N_10  and  C_11 
REMARK    3  A    between atoms: C_11  and  C_12 
REMARK    4  A    between atoms: C_15  and  O_16 
REMARK    5  A    between atoms: O_16  and  C_17 
REMARK    6  A    between atoms: C_17  and  C_20 
ROOT
HETATM    1  N   UNL     1      42.846 -13.906   5.495  1.00  0.00    -0.243 N 
HETATM    2  C   UNL     1      43.274 -12.631   5.140  1.00  0.00     0.271 C 
HETATM    3  O   UNL     1      43.524 -12.255   3.997  1.00  0.00    -0.266 OA
HETATM    4  H   UNL     1      42.772 -14.166   6.470  1.00  0.00     0.192 HD
ENDROOT
BRANCH   1   5
HETATM    5  N   UNL     1      42.715 -14.980   4.648  1.00  0.00    -0.183 NA
HETATM    6  C   UNL     1      43.683 -15.837   4.571  1.00  0.00     0.153 C 
BRANCH   6   7
HETATM    7  C   UNL     1      43.553 -17.005   3.713  1.00  0.00     0.018 A 
HETATM    8  C   UNL     1      43.226 -16.937   2.364  1.00  0.00     0.018 A 
HETATM    9  C   UNL     1      42.941 -15.769   1.489  1.00  0.00     0.069 C 
HETATM   10  N   UNL     1      43.191 -18.218   1.876  1.00  0.00    -0.358 N 
HETATM   11  H   UNL     1      42.980 -18.471   0.921  1.00  0.00     0.166 HD
HETATM   12  C   UNL     1      43.488 -19.123   2.865  1.00  0.00     0.043 A 
HETATM   13  C   UNL     1      43.722 -18.394   4.033  1.00  0.00     0.004 A 
HETATM   14  C   UNL     1      43.568 -20.520   2.809  1.00  0.00     0.030 A 
HETATM   15  C   UNL     1      44.057 -19.111   5.202  1.00  0.00     0.014 A 
HETATM   16  C   UNL     1      44.143 -20.507   5.165  1.00  0.00     0.001 A 
HETATM   17  C   UNL     1      43.900 -21.201   3.983  1.00  0.00     0.002 A 
ENDBRANCH   6   7
ENDBRANCH   1   5
BRANCH   2  18
HETATM   18  C   UNL     1      43.412 -11.648   6.256  1.00  0.00     0.033 A 
HETATM   19  C   UNL     1      42.401 -10.751   6.621  1.00  0.00     0.020 A 
HETATM   20  C   UNL     1      42.613  -9.848   7.671  1.00  0.00     0.038 A 
HETATM   21  C   UNL     1      43.819  -9.834   8.379  1.00  0.00     0.075 A 
HETATM   22  C   UNL     1      44.816 -10.742   8.032  1.00  0.00     0.038 A 
HETATM   23  C   UNL     1      44.612 -11.643   6.980  1.00  0.00     0.020 A 
BRANCH  21  24
HETATM   24  O   UNL     1      43.884  -8.894   9.367  1.00  0.00    -0.279 OA
BRANCH  24  25
HETATM   25  C   UNL     1      43.964  -9.336  10.726  1.00  0.00     0.418 C 
HETATM   26  F   UNL     1      43.424 -10.577  10.830  1.00  0.00    -0.169 F 
HETATM   27  F   UNL     1      45.276  -9.420  11.079  1.00  0.00    -0.169 F 
BRANCH  25  28
HETATM   28  C   UNL     1      43.250  -8.346  11.646  1.00  0.00     0.455 C 
HETATM   29  F   UNL     1      43.954  -8.136  12.791  1.00  0.00    -0.205 F 
HETATM   30  F   UNL     1      43.115  -7.130  11.053  1.00  0.00    -0.205 F 
ENDBRANCH  25  28
ENDBRANCH  24  25
ENDBRANCH  21  24
ENDBRANCH   2  18
TORSDOF 6
ENDMDL
MODEL 2
REMARK VINA RESULT:      -8.7      2.403      3.816
REMARK  6 active torsions:
REMARK  status: ('A' for Active; 'I' for Inactive)
REMARK    1  A    between atoms: C_7  and  C_8 
REMARK    2  A    between atoms: N_9  and  N_10 
REMARK       I    between atoms: N_10  and  C_11 
REMARK    3  A    between atoms: C_11  and  C_12 
REMARK    4  A    between atoms: C_15  and  O_16 
REMARK    5  A    between atoms: O_16  and  C_17 
REMARK    6  A    between atoms: C_17  and  C_20 
ROOT
HETATM    1  N   UNL     1      43.659 -12.233   7.501  1.00  0.00    -0.243 N 
HETATM    2  C   UNL     1      44.600 -11.278   7.872  1.00  0.00     0.271 C 
HETATM    3  O   UNL     1      45.746 -11.198   7.435  1.00  0.00    -0.266 OA
HETATM    4  H   UNL     1      42.777 -12.297   7.991  1.00  0.00     0.192 HD
ENDROOT
BRANCH   1   5
HETATM    5  N   UNL     1      43.874 -13.295   6.655  1.00  0.00    -0.183 NA
HETATM    6  C   UNL     1      42.944 -14.187   6.523  1.00  0.00     0.153 C 
BRANCH   6   7
HETATM    7  C   UNL     1      43.130 -15.300   5.606  1.00  0.00     0.018 A 
HETATM    8  C   UNL     1      43.371 -16.606   6.017  1.00  0.00     0.018 A 
HETATM    9  C   UNL     1      43.496 -17.190   7.378  1.00  0.00     0.069 C 
HETATM   10  N   UNL     1      43.494 -17.383   4.894  1.00  0.00    -0.358 N 
HETATM   11  H   UNL     1      43.671 -18.377   4.890  1.00  0.00     0.166 HD
HETATM   12  C   UNL     1      43.340 -16.625   3.759  1.00  0.00     0.043 A 
HETATM   13  C   UNL     1      43.108 -15.311   4.170  1.00  0.00     0.004 A 
HETATM   14  C   UNL     1      43.385 -17.006   2.412  1.00  0.00     0.030 A 
HETATM   15  C   UNL     1      42.909 -14.332   3.172  1.00  0.00     0.014 A 
HETATM   16  C   UNL     1      42.949 -14.695   1.821  1.00  0.00     0.001 A 
HETATM   17  C   UNL     1      43.186 -16.015   1.448  1.00  0.00     0.002 A 
ENDBRANCH   6   7
ENDBRANCH   1   5
BRANCH   2  18
HETATM   18  C   UNL     1      44.148 -10.261   8.869  1.00  0.00     0.033 A 
HETATM   19  C   UNL     1      44.783 -10.056  10.100  1.00  0.00     0.020 A 
HETATM   20  C   UNL     1      44.289  -9.092  10.988  1.00  0.00     0.038 A 
HETATM   21  C   UNL     1      43.173  -8.314  10.663  1.00  0.00     0.075 A 
HETATM   22  C   UNL     1      42.556  -8.502   9.428  1.00  0.00     0.038 A 
HETATM   23  C   UNL     1      43.042  -9.467   8.538  1.00  0.00     0.020 A 
BRANCH  21  24
HETATM   24  O   UNL     1      42.802  -7.425  11.630  1.00  0.00    -0.279 OA
BRANCH  24  25
HETATM   25  C   UNL     1      41.848  -7.842  12.612  1.00  0.00     0.418 C 
HETATM   26  F   UNL     1      40.749  -7.048  12.541  1.00  0.00    -0.169 F 
HETATM   27  F   UNL     1      41.462  -9.116  12.329  1.00  0.00    -0.169 F 
BRANCH  25  28
HETATM   28  C   UNL     1      42.471  -7.795  14.007  1.00  0.00     0.455 C 
HETATM   29  F   UNL     1      42.395  -9.004  14.625  1.00  0.00    -0.205 F 
HETATM   30  F   UNL     1      43.793  -7.481  13.946  1.00  0.00    -0.205 F 
ENDBRANCH  25  28
ENDBRANCH  24  25
ENDBRANCH  21  24
ENDBRANCH   2  18
TORSDOF 6
ENDMDL
MODEL 3
REMARK VINA RESULT:      -8.6      1.789      2.736
REMARK  6 active torsions:
REMARK  status: ('A' for Active; 'I' for Inactive)
REMARK    1  A    between atoms: C_7  and  C_8 
REMARK    2  A    between atoms: N_9  and  N_10 
REMARK       I    between atoms: N_10  and  C_11 
REMARK    3  A    between atoms: C_11  and  C_12 
REMARK    4  A    between atoms: C_15  and  O_16 
REMARK    5  A    between atoms: O_16  and  C_17 
REMARK    6  A    between atoms: C_17  and  C_20 
ROOT
HETATM    1  N   UNL     1      43.754 -12.515   6.929  1.00  0.00    -0.243 N 
HETATM    2  C   UNL     1      44.724 -11.570   7.246  1.00  0.00     0.271 C 
HETATM    3  O   UNL     1      45.784 -11.407   6.646  1.00  0.00    -0.266 OA
HETATM    4  H   UNL     1      42.962 -12.658   7.543  1.00  0.00     0.192 HD
ENDROOT
BRANCH   1   5
HETATM    5  N   UNL     1      43.850 -13.479   5.955  1.00  0.00    -0.183 NA
HETATM    6  C   UNL     1      42.819 -13.721   5.210  1.00  0.00     0.153 C 
BRANCH   6   7
HETATM    7  C   UNL     1      42.906 -14.709   4.147  1.00  0.00     0.018 A 
HETATM    8  C   UNL     1      42.614 -14.436   2.815  1.00  0.00     0.018 A 
HETATM    9  C   UNL     1      42.170 -13.181   2.153  1.00  0.00     0.069 C 
HETATM   10  N   UNL     1      42.803 -15.591   2.100  1.00  0.00    -0.358 N 
HETATM   11  H   UNL     1      42.665 -15.687   1.103  1.00  0.00     0.166 HD
HETATM   12  C   UNL     1      43.212 -16.611   2.922  1.00  0.00     0.043 A 
HETATM   13  C   UNL     1      43.289 -16.091   4.215  1.00  0.00     0.004 A 
HETATM   14  C   UNL     1      43.519 -17.942   2.616  1.00  0.00     0.030 A 
HETATM   15  C   UNL     1      43.700 -16.957   5.252  1.00  0.00     0.014 A 
HETATM   16  C   UNL     1      44.013 -18.291   4.965  1.00  0.00     0.001 A 
HETATM   17  C   UNL     1      43.922 -18.775   3.663  1.00  0.00     0.002 A 
ENDBRANCH   6   7
ENDBRANCH   1   5
BRANCH   2  18
HETATM   18  C   UNL     1      44.419 -10.674   8.402  1.00  0.00     0.033 A 
HETATM   19  C   UNL     1      45.319 -10.431   9.446  1.00  0.00     0.020 A 
HETATM   20  C   UNL     1      44.952  -9.590  10.503  1.00  0.00     0.038 A 
HETATM   21  C   UNL     1      43.698  -8.969  10.532  1.00  0.00     0.075 A 
HETATM   22  C   UNL     1      42.811  -9.193   9.481  1.00  0.00     0.038 A 
HETATM   23  C   UNL     1      43.171 -10.037   8.424  1.00  0.00     0.020 A 
BRANCH  21  24
HETATM   24  O   UNL     1      43.478  -8.187  11.629  1.00  0.00    -0.279 OA
BRANCH  24  25
HETATM   25  C   UNL     1      42.555  -8.645  12.621  1.00  0.00     0.418 C 
HETATM   26  F   UNL     1      41.303  -8.669  12.097  1.00  0.00    -0.169 F 
HETATM   27  F   UNL     1      42.887  -9.918  12.969  1.00  0.00    -0.169 F 
BRANCH  25  28
HETATM   28  C   UNL     1      42.617  -7.746  13.855  1.00  0.00     0.455 C 
HETATM   29  F   UNL     1      42.269  -8.425  14.982  1.00  0.00    -0.205 F 
HETATM   30  F   UNL     1      43.878  -7.282  14.065  1.00  0.00    -0.205 F 
ENDBRANCH  25  28
ENDBRANCH  24  25
ENDBRANCH  21  24
ENDBRANCH   2  18
TORSDOF 6
ENDMDL
MODEL 4
REMARK VINA RESULT:      -8.2      2.428      3.990
REMARK  6 active torsions:
REMARK  status: ('A' for Active; 'I' for Inactive)
REMARK    1  A    between atoms: C_7  and  C_8 
REMARK    2  A    between atoms: N_9  and  N_10 
REMARK       I    between atoms: N_10  and  C_11 
REMARK    3  A    between atoms: C_11  and  C_12 
REMARK    4  A    between atoms: C_15  and  O_16 
REMARK    5  A    between atoms: O_16  and  C_17 
REMARK    6  A    between atoms: C_17  and  C_20 
ROOT
HETATM    1  N   UNL     1      43.190 -11.441   7.437  1.00  0.00    -0.243 N 
HETATM    2  C   UNL     1      44.134 -11.017   8.366  1.00  0.00     0.271 C 
HETATM    3  O   UNL     1      45.351 -11.142   8.254  1.00  0.00    -0.266 OA
HETATM    4  H   UNL     1      42.203 -11.402   7.658  1.00  0.00     0.192 HD
ENDROOT
BRANCH   1   5
HETATM    5  N   UNL     1      43.447 -12.146   6.285  1.00  0.00    -0.183 NA
HETATM    6  C   UNL     1      42.464 -12.727   5.675  1.00  0.00     0.153 C 
BRANCH   6   7
HETATM    7  C   UNL     1      42.702 -13.446   4.433  1.00  0.00     0.018 A 
HETATM    8  C   UNL     1      42.796 -12.828   3.191  1.00  0.00     0.018 A 
HETATM    9  C   UNL     1      42.690 -11.396   2.805  1.00  0.00     0.069 C 
HETATM   10  N   UNL     1      43.023 -13.804   2.255  1.00  0.00    -0.358 N 
HETATM   11  H   UNL     1      43.135 -13.645   1.263  1.00  0.00     0.166 HD
HETATM   12  C   UNL     1      43.082 -15.041   2.846  1.00  0.00     0.043 A 
HETATM   13  C   UNL     1      42.886 -14.853   4.216  1.00  0.00     0.004 A 
HETATM   14  C   UNL     1      43.296 -16.301   2.273  1.00  0.00     0.030 A 
HETATM   15  C   UNL     1      42.911 -15.992   5.050  1.00  0.00     0.014 A 
HETATM   16  C   UNL     1      43.125 -17.259   4.495  1.00  0.00     0.001 A 
HETATM   17  C   UNL     1      43.314 -17.410   3.124  1.00  0.00     0.002 A 
ENDBRANCH   6   7
ENDBRANCH   1   5
BRANCH   2  18
HETATM   18  C   UNL     1      43.599 -10.335   9.583  1.00  0.00     0.033 A 
HETATM   19  C   UNL     1      43.820 -10.798  10.885  1.00  0.00     0.020 A 
HETATM   20  C   UNL     1      43.272 -10.110  11.975  1.00  0.00     0.038 A 
HETATM   21  C   UNL     1      42.513  -8.950  11.788  1.00  0.00     0.075 A 
HETATM   22  C   UNL     1      42.313  -8.475  10.494  1.00  0.00     0.038 A 
HETATM   23  C   UNL     1      42.854  -9.161   9.401  1.00  0.00     0.020 A 
BRANCH  21  24
HETATM   24  O   UNL     1      42.037  -8.394  12.941  1.00  0.00    -0.279 OA
BRANCH  24  25
HETATM   25  C   UNL     1      42.708  -7.249  13.476  1.00  0.00     0.418 C 
HETATM   26  F   UNL     1      44.027  -7.529  13.629  1.00  0.00    -0.169 F 
HETATM   27  F   UNL     1      42.599  -6.226  12.585  1.00  0.00    -0.169 F 
BRANCH  25  28
HETATM   28  C   UNL     1      42.075  -6.839  14.805  1.00  0.00     0.455 C 
HETATM   29  F   UNL     1      41.012  -7.630  15.114  1.00  0.00    -0.205 F 
HETATM   30  F   UNL     1      42.957  -6.968  15.833  1.00  0.00    -0.205 F 
ENDBRANCH  25  28
ENDBRANCH  24  25
ENDBRANCH  21  24
ENDBRANCH   2  18
TORSDOF 6
ENDMDL
MODEL 5
REMARK VINA RESULT:      -8.1      6.281      9.393
REMARK  6 active torsions:
REMARK  status: ('A' for Active; 'I' for Inactive)
REMARK    1  A    between atoms: C_7  and  C_8 
REMARK    2  A    between atoms: N_9  and  N_10 
REMARK       I    between atoms: N_10  and  C_11 
REMARK    3  A    between atoms: C_11  and  C_12 
REMARK    4  A    between atoms: C_15  and  O_16 
REMARK    5  A    between atoms: O_16  and  C_17 
REMARK    6  A    between atoms: C_17  and  C_20 
ROOT
HETATM    1  N   UNL     1      41.164 -13.811   0.060  1.00  0.00    -0.243 N 
HETATM    2  C   UNL     1      40.586 -14.955   0.599  1.00  0.00     0.271 C 
HETATM    3  O   UNL     1      39.624 -15.558   0.130  1.00  0.00    -0.266 OA
HETATM    4  H   UNL     1      41.882 -13.313   0.570  1.00  0.00     0.192 HD
ENDROOT
BRANCH   1   5
HETATM    5  N   UNL     1      40.709 -13.112  -1.032  1.00  0.00    -0.183 NA
HETATM    6  C   UNL     1      39.931 -12.094  -0.842  1.00  0.00     0.153 C 
BRANCH   6   7
HETATM    7  C   UNL     1      39.466 -11.313  -1.978  1.00  0.00     0.018 A 
HETATM    8  C   UNL     1      38.291 -11.582  -2.669  1.00  0.00     0.018 A 
HETATM    9  C   UNL     1      37.266 -12.642  -2.472  1.00  0.00     0.069 C 
HETATM   10  N   UNL     1      38.172 -10.653  -3.671  1.00  0.00    -0.358 N 
HETATM   11  H   UNL     1      37.410 -10.605  -4.333  1.00  0.00     0.166 HD
HETATM   12  C   UNL     1      39.232  -9.781  -3.654  1.00  0.00     0.043 A 
HETATM   13  C   UNL     1      40.065 -10.166  -2.602  1.00  0.00     0.004 A 
HETATM   14  C   UNL     1      39.510  -8.689  -4.486  1.00  0.00     0.030 A 
HETATM   15  C   UNL     1      41.235  -9.409  -2.374  1.00  0.00     0.014 A 
HETATM   16  C   UNL     1      41.528  -8.313  -3.193  1.00  0.00     0.001 A 
HETATM   17  C   UNL     1      40.676  -7.960  -4.236  1.00  0.00     0.002 A 
ENDBRANCH   6   7
ENDBRANCH   1   5
BRANCH   2  18
HETATM   18  C   UNL     1      41.222 -15.491   1.841  1.00  0.00     0.033 A 
HETATM   19  C   UNL     1      40.528 -15.675   3.042  1.00  0.00     0.020 A 
HETATM   20  C   UNL     1      41.199 -16.169   4.168  1.00  0.00     0.038 A 
HETATM   21  C   UNL     1      42.558 -16.499   4.113  1.00  0.00     0.075 A 
HETATM   22  C   UNL     1      43.243 -16.338   2.910  1.00  0.00     0.038 A 
HETATM   23  C   UNL     1      42.578 -15.840   1.783  1.00  0.00     0.020 A 
BRANCH  21  24
HETATM   24  O   UNL     1      43.077 -16.958   5.289  1.00  0.00    -0.279 OA
BRANCH  24  25
HETATM   25  C   UNL     1      43.733 -16.027   6.156  1.00  0.00     0.418 C 
HETATM   26  F   UNL     1      45.040 -16.374   6.286  1.00  0.00    -0.169 F 
HETATM   27  F   UNL     1      43.685 -14.793   5.584  1.00  0.00    -0.169 F 
BRANCH  25  28
HETATM   28  C   UNL     1      43.036 -15.989   7.515  1.00  0.00     0.455 C 
HETATM   29  F   UNL     1      43.080 -14.744   8.061  1.00  0.00    -0.205 F 
HETATM   30  F   UNL     1      41.719 -16.309   7.403  1.00  0.00    -0.205 F 
ENDBRANCH  25  28
ENDBRANCH  24  25
ENDBRANCH  21  24
ENDBRANCH   2  18
TORSDOF 6
ENDMDL
MODEL 6
REMARK VINA RESULT:      -7.9      7.007      9.104
REMARK  6 active torsions:
REMARK  status: ('A' for Active; 'I' for Inactive)
REMARK    1  A    between atoms: C_7  and  C_8 
REMARK    2  A    between atoms: N_9  and  N_10 
REMARK       I    between atoms: N_10  and  C_11 
REMARK    3  A    between atoms: C_11  and  C_12 
REMARK    4  A    between atoms: C_15  and  O_16 
REMARK    5  A    between atoms: O_16  and  C_17 
REMARK    6  A    between atoms: C_17  and  C_20 
ROOT
HETATM    1  N   UNL     1      42.162 -14.826   0.901  1.00  0.00    -0.243 N 
HETATM    2  C   UNL     1      40.827 -14.451   0.792  1.00  0.00     0.271 C 
HETATM    3  O   UNL     1      39.892 -14.951   1.414  1.00  0.00    -0.266 OA
HETATM    4  H   UNL     1      42.853 -14.441   0.270  1.00  0.00     0.192 HD
ENDROOT
BRANCH   1   5
HETATM    5  N   UNL     1      42.651 -15.869   1.650  1.00  0.00    -0.183 NA
HETATM    6  C   UNL     1      42.817 -15.701   2.923  1.00  0.00     0.153 C 
BRANCH   6   7
HETATM    7  C   UNL     1      43.296 -16.801   3.744  1.00  0.00     0.018 A 
HETATM    8  C   UNL     1      43.708 -16.656   5.064  1.00  0.00     0.018 A 
HETATM    9  C   UNL     1      43.774 -15.453   5.936  1.00  0.00     0.069 C 
HETATM   10  N   UNL     1      44.093 -17.890   5.522  1.00  0.00    -0.358 N 
HETATM   11  H   UNL     1      44.438 -18.085   6.451  1.00  0.00     0.166 HD
HETATM   12  C   UNL     1      43.943 -18.840   4.542  1.00  0.00     0.043 A 
HETATM   13  C   UNL     1      43.443 -18.191   3.412  1.00  0.00     0.004 A 
HETATM   14  C   UNL     1      44.209 -20.215   4.577  1.00  0.00     0.030 A 
HETATM   15  C   UNL     1      43.195 -18.967   2.259  1.00  0.00     0.014 A 
HETATM   16  C   UNL     1      43.453 -20.343   2.276  1.00  0.00     0.001 A 
HETATM   17  C   UNL     1      43.954 -20.956   3.420  1.00  0.00     0.002 A 
ENDBRANCH   6   7
ENDBRANCH   1   5
BRANCH   2  18
HETATM   18  C   UNL     1      40.532 -13.328  -0.149  1.00  0.00     0.033 A 
HETATM   19  C   UNL     1      39.741 -13.472  -1.294  1.00  0.00     0.020 A 
HETATM   20  C   UNL     1      39.524 -12.374  -2.136  1.00  0.00     0.038 A 
HETATM   21  C   UNL     1      40.075 -11.121  -1.846  1.00  0.00     0.075 A 
HETATM   22  C   UNL     1      40.843 -10.972  -0.693  1.00  0.00     0.038 A 
HETATM   23  C   UNL     1      41.067 -12.068   0.149  1.00  0.00     0.020 A 
BRANCH  21  24
HETATM   24  O   UNL     1      39.786 -10.150  -2.761  1.00  0.00    -0.279 OA
BRANCH  24  25
HETATM   25  C   UNL     1      38.653  -9.306  -2.528  1.00  0.00     0.418 C 
HETATM   26  F   UNL     1      38.083  -9.633  -1.340  1.00  0.00    -0.169 F 
HETATM   27  F   UNL     1      39.081  -8.017  -2.445  1.00  0.00    -0.169 F 
BRANCH  25  28
HETATM   28  C   UNL     1      37.651  -9.439  -3.674  1.00  0.00     0.455 C 
HETATM   29  F   UNL     1      38.276  -9.437  -4.883  1.00  0.00    -0.205 F 
HETATM   30  F   UNL     1      36.969 -10.614  -3.600  1.00  0.00    -0.205 F 
ENDBRANCH  25  28
ENDBRANCH  24  25
ENDBRANCH  21  24
ENDBRANCH   2  18
TORSDOF 6
ENDMDL
MODEL 7
REMARK VINA RESULT:      -7.9      1.900      2.809
REMARK  6 active torsions:
REMARK  status: ('A' for Active; 'I' for Inactive)
REMARK    1  A    between atoms: C_7  and  C_8 
REMARK    2  A    between atoms: N_9  and  N_10 
REMARK       I    between atoms: N_10  and  C_11 
REMARK    3  A    between atoms: C_11  and  C_12 
REMARK    4  A    between atoms: C_15  and  O_16 
REMARK    5  A    between atoms: O_16  and  C_17 
REMARK    6  A    between atoms: C_17  and  C_20 
ROOT
HETATM    1  N   UNL     1      43.609 -12.339   7.455  1.00  0.00    -0.243 N 
HETATM    2  C   UNL     1      43.398 -10.997   7.159  1.00  0.00     0.271 C 
HETATM    3  O   UNL     1      43.316 -10.520   6.030  1.00  0.00    -0.266 OA
HETATM    4  H   UNL     1      43.776 -12.631   8.410  1.00  0.00     0.192 HD
ENDROOT
BRANCH   1   5
HETATM    5  N   UNL     1      43.849 -13.341   6.546  1.00  0.00    -0.183 NA
HETATM    6  C   UNL     1      42.857 -14.065   6.137  1.00  0.00     0.153 C 
BRANCH   6   7
HETATM    7  C   UNL     1      43.078 -15.106   5.145  1.00  0.00     0.018 A 
HETATM    8  C   UNL     1      43.094 -14.874   3.775  1.00  0.00     0.018 A 
HETATM    9  C   UNL     1      42.907 -13.621   2.997  1.00  0.00     0.069 C 
HETATM   10  N   UNL     1      43.326 -16.073   3.150  1.00  0.00    -0.358 N 
HETATM   11  H   UNL     1      43.391 -16.205   2.150  1.00  0.00     0.166 HD
HETATM   12  C   UNL     1      43.465 -17.082   4.070  1.00  0.00     0.043 A 
HETATM   13  C   UNL     1      43.316 -16.509   5.334  1.00  0.00     0.004 A 
HETATM   14  C   UNL     1      43.712 -18.446   3.875  1.00  0.00     0.030 A 
HETATM   15  C   UNL     1      43.426 -17.355   6.459  1.00  0.00     0.014 A 
HETATM   16  C   UNL     1      43.675 -18.722   6.284  1.00  0.00     0.001 A 
HETATM   17  C   UNL     1      43.815 -19.258   5.008  1.00  0.00     0.002 A 
ENDBRANCH   6   7
ENDBRANCH   1   5
BRANCH   2  18
HETATM   18  C   UNL     1      43.236 -10.082   8.329  1.00  0.00     0.033 A 
HETATM   19  C   UNL     1      42.517  -8.882   8.274  1.00  0.00     0.020 A 
HETATM   20  C   UNL     1      42.424  -8.070   9.412  1.00  0.00     0.038 A 
HETATM   21  C   UNL     1      43.027  -8.444  10.617  1.00  0.00     0.075 A 
HETATM   22  C   UNL     1      43.723  -9.649  10.679  1.00  0.00     0.038 A 
HETATM   23  C   UNL     1      43.823 -10.462   9.543  1.00  0.00     0.020 A 
BRANCH  21  24
HETATM   24  O   UNL     1      42.860  -7.549  11.635  1.00  0.00    -0.279 OA
BRANCH  24  25
HETATM   25  C   UNL     1      41.766  -7.739  12.538  1.00  0.00     0.418 C 
HETATM   26  F   UNL     1      41.029  -6.601  12.600  1.00  0.00    -0.169 F 
HETATM   27  F   UNL     1      40.968  -8.728  12.053  1.00  0.00    -0.169 F 
BRANCH  25  28
HETATM   28  C   UNL     1      42.285  -8.134  13.920  1.00  0.00     0.455 C 
HETATM   29  F   UNL     1      42.438  -9.482  14.027  1.00  0.00    -0.205 F 
HETATM   30  F   UNL     1      43.509  -7.591  14.161  1.00  0.00    -0.205 F 
ENDBRANCH  25  28
ENDBRANCH  24  25
ENDBRANCH  21  24
ENDBRANCH   2  18
TORSDOF 6
ENDMDL
MODEL 8
REMARK VINA RESULT:      -7.8      5.043     10.857
REMARK  6 active torsions:
REMARK  status: ('A' for Active; 'I' for Inactive)
REMARK    1  A    between atoms: C_7  and  C_8 
REMARK    2  A    between atoms: N_9  and  N_10 
REMARK       I    between atoms: N_10  and  C_11 
REMARK    3  A    between atoms: C_11  and  C_12 
REMARK    4  A    between atoms: C_15  and  O_16 
REMARK    5  A    between atoms: O_16  and  C_17 
REMARK    6  A    between atoms: C_17  and  C_20 
ROOT
HETATM    1  N   UNL     1      43.003 -10.877   8.132  1.00  0.00    -0.243 N 
HETATM    2  C   UNL     1      44.022 -11.634   7.564  1.00  0.00     0.271 C 
HETATM    3  O   UNL     1      45.224 -11.483   7.770  1.00  0.00    -0.266 OA
HETATM    4  H   UNL     1      42.047 -10.993   7.823  1.00  0.00     0.192 HD
ENDROOT
BRANCH   1   5
HETATM    5  N   UNL     1      43.167  -9.781   8.946  1.00  0.00    -0.183 NA
HETATM    6  C   UNL     1      42.147  -9.338   9.611  1.00  0.00     0.153 C 
BRANCH   6   7
HETATM    7  C   UNL     1      42.302  -8.205  10.508  1.00  0.00     0.018 A 
HETATM    8  C   UNL     1      42.458  -6.893  10.074  1.00  0.00     0.018 A 
HETATM    9  C   UNL     1      42.507  -6.321   8.702  1.00  0.00     0.069 C 
HETATM   10  N   UNL     1      42.575  -6.096  11.183  1.00  0.00    -0.358 N 
HETATM   11  H   UNL     1      42.699  -5.093  11.169  1.00  0.00     0.166 HD
HETATM   12  C   UNL     1      42.499  -6.845  12.331  1.00  0.00     0.043 A 
HETATM   13  C   UNL     1      42.326  -8.175  11.944  1.00  0.00     0.004 A 
HETATM   14  C   UNL     1      42.568  -6.444  13.671  1.00  0.00     0.030 A 
HETATM   15  C   UNL     1      42.213  -9.149  12.959  1.00  0.00     0.014 A 
HETATM   16  C   UNL     1      42.277  -8.767  14.304  1.00  0.00     0.001 A 
HETATM   17  C   UNL     1      42.454  -7.431  14.653  1.00  0.00     0.002 A 
ENDBRANCH   6   7
ENDBRANCH   1   5
BRANCH   2  18
HETATM   18  C   UNL     1      43.592 -12.734   6.648  1.00  0.00     0.033 A 
HETATM   19  C   UNL     1      43.462 -12.575   5.264  1.00  0.00     0.020 A 
HETATM   20  C   UNL     1      43.038 -13.652   4.474  1.00  0.00     0.038 A 
HETATM   21  C   UNL     1      42.755 -14.898   5.043  1.00  0.00     0.075 A 
HETATM   22  C   UNL     1      42.907 -15.063   6.418  1.00  0.00     0.038 A 
HETATM   23  C   UNL     1      43.325 -13.989   7.213  1.00  0.00     0.020 A 
BRANCH  21  24
HETATM   24  O   UNL     1      42.344 -15.847   4.151  1.00  0.00    -0.279 OA
BRANCH  24  25
HETATM   25  C   UNL     1      43.117 -17.044   4.024  1.00  0.00     0.418 C 
HETATM   26  F   UNL     1      44.416 -16.777   4.310  1.00  0.00    -0.169 F 
HETATM   27  F   UNL     1      42.667 -17.951   4.934  1.00  0.00    -0.169 F 
BRANCH  25  28
HETATM   28  C   UNL     1      42.971 -17.620   2.616  1.00  0.00     0.455 C 
HETATM   29  F   UNL     1      43.151 -18.968   2.609  1.00  0.00    -0.205 F 
HETATM   30  F   UNL     1      41.723 -17.400   2.119  1.00  0.00    -0.205 F 
ENDBRANCH  25  28
ENDBRANCH  24  25
ENDBRANCH  21  24
ENDBRANCH   2  18
TORSDOF 6
ENDMDL
MODEL 9
REMARK VINA RESULT:      -7.5      2.406      3.723
REMARK  6 active torsions:
REMARK  status: ('A' for Active; 'I' for Inactive)
REMARK    1  A    between atoms: C_7  and  C_8 
REMARK    2  A    between atoms: N_9  and  N_10 
REMARK       I    between atoms: N_10  and  C_11 
REMARK    3  A    between atoms: C_11  and  C_12 
REMARK    4  A    between atoms: C_15  and  O_16 
REMARK    5  A    between atoms: O_16  and  C_17 
REMARK    6  A    between atoms: C_17  and  C_20 
ROOT
HETATM    1  N   UNL     1      43.059 -11.154   7.134  1.00  0.00    -0.243 N 
HETATM    2  C   UNL     1      42.541  -9.865   7.192  1.00  0.00     0.271 C 
HETATM    3  O   UNL     1      42.162  -9.204   6.229  1.00  0.00    -0.266 OA
HETATM    4  H   UNL     1      43.452 -11.584   7.961  1.00  0.00     0.192 HD
ENDROOT
BRANCH   1   5
HETATM    5  N   UNL     1      43.316 -11.872   5.991  1.00  0.00    -0.183 NA
HETATM    6  C   UNL     1      42.399 -12.660   5.528  1.00  0.00     0.153 C 
BRANCH   6   7
HETATM    7  C   UNL     1      42.632 -13.401   4.298  1.00  0.00     0.018 A 
HETATM    8  C   UNL     1      42.669 -12.814   3.039  1.00  0.00     0.018 A 
HETATM    9  C   UNL     1      42.497 -11.397   2.620  1.00  0.00     0.069 C 
HETATM   10  N   UNL     1      42.907 -13.804   2.121  1.00  0.00    -0.358 N 
HETATM   11  H   UNL     1      42.986 -13.666   1.123  1.00  0.00     0.166 HD
HETATM   12  C   UNL     1      43.030 -15.023   2.742  1.00  0.00     0.043 A 
HETATM   13  C   UNL     1      42.864 -14.806   4.110  1.00  0.00     0.004 A 
HETATM   14  C   UNL     1      43.276 -16.288   2.194  1.00  0.00     0.030 A 
HETATM   15  C   UNL     1      42.955 -15.921   4.972  1.00  0.00     0.014 A 
HETATM   16  C   UNL     1      43.202 -17.193   4.443  1.00  0.00     0.001 A 
HETATM   17  C   UNL     1      43.360 -17.372   3.072  1.00  0.00     0.002 A 
ENDBRANCH   6   7
ENDBRANCH   1   5
BRANCH   2  18
HETATM   18  C   UNL     1      42.424  -9.263   8.555  1.00  0.00     0.033 A 
HETATM   19  C   UNL     1      41.286  -9.394   9.359  1.00  0.00     0.020 A 
HETATM   20  C   UNL     1      41.248  -8.787  10.621  1.00  0.00     0.038 A 
HETATM   21  C   UNL     1      42.338  -8.057  11.104  1.00  0.00     0.075 A 
HETATM   22  C   UNL     1      43.480  -7.945  10.314  1.00  0.00     0.038 A 
HETATM   23  C   UNL     1      43.522  -8.546   9.050  1.00  0.00     0.020 A 
BRANCH  21  24
HETATM   24  O   UNL     1      42.152  -7.515  12.344  1.00  0.00    -0.279 OA
BRANCH  24  25
HETATM   25  C   UNL     1      42.722  -8.182  13.474  1.00  0.00     0.418 C 
HETATM   26  F   UNL     1      43.286  -9.349  13.073  1.00  0.00    -0.169 F 
HETATM   27  F   UNL     1      43.708  -7.397  13.989  1.00  0.00    -0.169 F 
BRANCH  25  28
HETATM   28  C   UNL     1      41.654  -8.424  14.539  1.00  0.00     0.455 C 
HETATM   29  F   UNL     1      41.737  -7.509  15.543  1.00  0.00    -0.205 F 
HETATM   30  F   UNL     1      40.403  -8.305  14.019  1.00  0.00    -0.205 F 
ENDBRANCH  25  28
ENDBRANCH  24  25
ENDBRANCH  21  24
ENDBRANCH   2  18
TORSDOF 6
ENDMDL
MODEL 10
REMARK VINA RESULT:      -7.5      5.245     10.857
REMARK  6 active torsions:
REMARK  status: ('A' for Active; 'I' for Inactive)
REMARK    1  A    between atoms: C_7  and  C_8 
REMARK    2  A    between atoms: N_9  and  N_10 
REMARK       I    between atoms: N_10  and  C_11 
REMARK    3  A    between atoms: C_11  and  C_12 
REMARK    4  A    between atoms: C_15  and  O_16 
REMARK    5  A    between atoms: O_16  and  C_17 
REMARK    6  A    between atoms: C_17  and  C_20 
ROOT
HETATM    1  N   UNL     1      43.031 -10.606   8.250  1.00  0.00    -0.243 N 
HETATM    2  C   UNL     1      44.060 -11.386   7.733  1.00  0.00     0.271 C 
HETATM    3  O   UNL     1      45.232 -11.357   8.102  1.00  0.00    -0.266 OA
HETATM    4  H   UNL     1      42.118 -10.610   7.812  1.00  0.00     0.192 HD
ENDROOT
BRANCH   1   5
HETATM    5  N   UNL     1      43.161  -9.615   9.193  1.00  0.00    -0.183 NA
HETATM    6  C   UNL     1      42.103  -8.973   9.575  1.00  0.00     0.153 C 
BRANCH   6   7
HETATM    7  C   UNL     1      42.208  -7.946  10.600  1.00  0.00     0.018 A 
HETATM    8  C   UNL     1      42.307  -6.587  10.323  1.00  0.00     0.018 A 
HETATM    9  C   UNL     1      42.334  -5.858   9.028  1.00  0.00     0.069 C 
HETATM   10  N   UNL     1      42.388  -5.921  11.519  1.00  0.00    -0.358 N 
HETATM   11  H   UNL     1      42.468  -4.919  11.622  1.00  0.00     0.166 HD
HETATM   12  C   UNL     1      42.343  -6.802  12.570  1.00  0.00     0.043 A 
HETATM   13  C   UNL     1      42.228  -8.084  12.029  1.00  0.00     0.004 A 
HETATM   14  C   UNL     1      42.392  -6.558  13.948  1.00  0.00     0.030 A 
HETATM   15  C   UNL     1      42.155  -9.174  12.923  1.00  0.00     0.014 A 
HETATM   16  C   UNL     1      42.201  -8.949  14.304  1.00  0.00     0.001 A 
HETATM   17  C   UNL     1      42.319  -7.657  14.808  1.00  0.00     0.002 A 
ENDBRANCH   6   7
ENDBRANCH   1   5
BRANCH   2  18
HETATM   18  C   UNL     1      43.680 -12.348   6.655  1.00  0.00     0.033 A 
HETATM   19  C   UNL     1      43.478 -13.714   6.880  1.00  0.00     0.020 A 
HETATM   20  C   UNL     1      43.137 -14.555   5.812  1.00  0.00     0.038 A 
HETATM   21  C   UNL     1      42.980 -14.051   4.517  1.00  0.00     0.075 A 
HETATM   22  C   UNL     1      43.158 -12.687   4.298  1.00  0.00     0.038 A 
HETATM   23  C   UNL     1      43.503 -11.843   5.360  1.00  0.00     0.020 A 
BRANCH  21  24
HETATM   24  O   UNL     1      42.657 -14.990   3.580  1.00  0.00    -0.279 OA
BRANCH  24  25
HETATM   25  C   UNL     1      41.353 -14.949   2.992  1.00  0.00     0.418 C 
HETATM   26  F   UNL     1      40.467 -14.451   3.892  1.00  0.00    -0.169 F 
HETATM   27  F   UNL     1      41.383 -14.106   1.925  1.00  0.00    -0.169 F 
BRANCH  25  28
HETATM   28  C   UNL     1      40.939 -16.345   2.528  1.00  0.00     0.455 C 
HETATM   29  F   UNL     1      40.094 -16.284   1.464  1.00  0.00    -0.205 F 
HETATM   30  F   UNL     1      42.016 -17.069   2.119  1.00  0.00    -0.205 F 
ENDBRANCH  25  28
ENDBRANCH  24  25
ENDBRANCH  21  24
ENDBRANCH   2  18
TORSDOF 6
ENDMDL
