MODEL 1
REMARK VINA RESULT:      -8.0      0.000      0.000
REMARK  11 active torsions:
REMARK  status: ('A' for Active; 'I' for Inactive)
REMARK    1  A    between atoms: C_6  and  C_7 
REMARK    2  A    between atoms: C_7  and  C_8 
REMARK       I    between atoms: C_8  and  N_9 
REMARK    3  A    between atoms: N_9  and  C_10 
REMARK    4  A    between atoms: C_10  and  C_11 
REMARK    5  A    between atoms: C_11  and  N_12 
REMARK    6  A    between atoms: C_17  and  C_18 
REMARK    7  A    between atoms: C_21  and  C_22 
REMARK    8  A    between atoms: C_29  and  C_30 
REMARK    9  A    between atoms: C_30  and  O_31 
REMARK   10  A    between atoms: O_31  and  C_32 
REMARK   11  A    between atoms: C_32  and  C_33 
ROOT
HETATM    1  C   UNL     1      40.850  -9.662   5.802  1.00  0.00     0.071 C 
HETATM    2  C   UNL     1      40.454 -10.747   4.822  1.00  0.00     0.048 C 
HETATM    3  N   UNL     1      39.345 -10.427   4.068  1.00  0.00    -0.229 NA
HETATM    4  C   UNL     1      39.163 -11.077   2.971  1.00  0.00     0.170 C 
HETATM    5  N   UNL     1      39.916 -12.400   2.563  1.00  0.00    -0.319 N 
HETATM    6  C   UNL     1      39.574 -12.750   1.359  1.00  0.00     0.011 C 
HETATM    7  C   UNL     1      40.605 -12.974   3.749  1.00  0.00     0.166 C 
HETATM    8  S   UNL     1      38.032 -10.578   1.761  1.00  0.00    -0.086 SA
HETATM    9  C   UNL     1      38.806 -11.704   0.574  1.00  0.00     0.135 C 
HETATM   10  C   UNL     1      41.166 -11.873   4.591  1.00  0.00     0.069 C 
ENDROOT
BRANCH   6  11
HETATM   11  C   UNL     1      39.866 -14.087   0.744  1.00  0.00     0.156 C 
BRANCH  11  12
HETATM   12  C   UNL     1      39.868 -14.126  -0.772  1.00  0.00     0.223 C 
HETATM   13  N   UNL     1      40.791 -13.280  -1.341  1.00  0.00    -0.359 N 
HETATM   14  H   UNL     1      41.262 -12.625  -0.720  1.00  0.00     0.162 HD
HETATM   15  O   UNL     1      39.124 -14.849  -1.424  1.00  0.00    -0.273 OA
BRANCH  13  16
HETATM   16  C   UNL     1      40.870 -12.927  -2.760  1.00  0.00     0.150 C 
BRANCH  16  17
HETATM   17  C   UNL     1      40.100 -11.670  -3.215  1.00  0.00     0.253 C 
BRANCH  17  18
HETATM   18  N   UNL     1      40.955 -10.417  -3.206  1.00  0.00    -0.077 N 
HETATM   19  H   UNL     1      41.934 -10.730  -3.363  1.00  0.00     0.279 HD
HETATM   20  C   UNL     1      40.609  -9.435  -4.291  1.00  0.00     0.269 C 
HETATM   21  C   UNL     1      40.930  -9.744  -1.859  1.00  0.00     0.269 C 
ENDBRANCH  17  18
ENDBRANCH  16  17
ENDBRANCH  13  16
ENDBRANCH  11  12
ENDBRANCH   6  11
BRANCH   7  22
HETATM   22  C   UNL     1      41.466 -14.192   3.481  1.00  0.00    -0.030 A 
HETATM   23  C   UNL     1      42.672 -14.152   2.767  1.00  0.00     0.010 A 
HETATM   24  C   UNL     1      43.362 -15.336   2.468  1.00  0.00     0.008 A 
HETATM   25  C   UNL     1      42.869 -16.586   2.871  1.00  0.00    -0.055 A 
HETATM   26  C   UNL     1      41.706 -16.620   3.644  1.00  0.00     0.008 A 
HETATM   27  C   UNL     1      41.018 -15.444   3.947  1.00  0.00     0.010 A 
BRANCH  25  28
HETATM   28  C   UNL     1      43.613 -17.862   2.506  1.00  0.00     0.010 C 
HETATM   29  C   UNL     1      44.447 -18.369   3.682  1.00  0.00     0.015 C 
HETATM   30  C   UNL     1      42.673 -18.963   1.997  1.00  0.00     0.015 C 
ENDBRANCH  25  28
ENDBRANCH   7  22
BRANCH  10  31
HETATM   31  C   UNL     1      42.598 -11.816   4.925  1.00  0.00     0.294 C 
HETATM   32  O   UNL     1      43.487 -11.412   4.214  1.00  0.00    -0.259 OA
BRANCH  31  33
HETATM   33  O   UNL     1      42.679 -12.415   6.138  1.00  0.00    -0.313 OA
BRANCH  33  34
HETATM   34  C   UNL     1      43.937 -13.025   6.468  1.00  0.00     0.217 C 
BRANCH  34  35
HETATM   35  C   UNL     1      43.667 -14.502   6.663  1.00  0.00    -0.034 A 
HETATM   36  C   UNL     1      42.428 -14.949   7.155  1.00  0.00     0.009 A 
HETATM   37  C   UNL     1      42.160 -16.311   7.311  1.00  0.00     0.001 A 
HETATM   38  C   UNL     1      43.128 -17.249   6.968  1.00  0.00     0.000 A 
HETATM   39  C   UNL     1      44.355 -16.825   6.464  1.00  0.00     0.001 A 
HETATM   40  C   UNL     1      44.624 -15.461   6.309  1.00  0.00     0.009 A 
ENDBRANCH  34  35
ENDBRANCH  33  34
ENDBRANCH  31  33
ENDBRANCH  10  31
TORSDOF 11
ENDMDL
MODEL 2
REMARK VINA RESULT:      -7.9      2.031      3.027
REMARK  11 active torsions:
REMARK  status: ('A' for Active; 'I' for Inactive)
REMARK    1  A    between atoms: C_6  and  C_7 
REMARK    2  A    between atoms: C_7  and  C_8 
REMARK       I    between atoms: C_8  and  N_9 
REMARK    3  A    between atoms: N_9  and  C_10 
REMARK    4  A    between atoms: C_10  and  C_11 
REMARK    5  A    between atoms: C_11  and  N_12 
REMARK    6  A    between atoms: C_17  and  C_18 
REMARK    7  A    between atoms: C_21  and  C_22 
REMARK    8  A    between atoms: C_29  and  C_30 
REMARK    9  A    between atoms: C_30  and  O_31 
REMARK   10  A    between atoms: O_31  and  C_32 
REMARK   11  A    between atoms: C_32  and  C_33 
ROOT
HETATM    1  C   UNL     1      42.039  -9.430   5.956  1.00  0.00     0.071 C 
HETATM    2  C   UNL     1      41.397 -10.573   5.197  1.00  0.00     0.048 C 
HETATM    3  N   UNL     1      40.149 -10.266   4.699  1.00  0.00    -0.229 NA
HETATM    4  C   UNL     1      39.696 -10.995   3.738  1.00  0.00     0.170 C 
HETATM    5  N   UNL     1      40.300 -12.378   3.283  1.00  0.00    -0.319 N 
HETATM    6  C   UNL     1      39.674 -12.810   2.230  1.00  0.00     0.011 C 
HETATM    7  C   UNL     1      41.237 -12.884   4.321  1.00  0.00     0.166 C 
HETATM    8  S   UNL     1      38.322 -10.547   2.786  1.00  0.00    -0.086 SA
HETATM    9  C   UNL     1      38.766 -11.798   1.556  1.00  0.00     0.135 C 
HETATM   10  C   UNL     1      42.008 -11.743   4.906  1.00  0.00     0.069 C 
ENDROOT
BRANCH   6  11
HETATM   11  C   UNL     1      39.781 -14.203   1.684  1.00  0.00     0.156 C 
BRANCH  11  12
HETATM   12  C   UNL     1      40.156 -14.308   0.219  1.00  0.00     0.223 C 
HETATM   13  N   UNL     1      39.075 -14.481  -0.613  1.00  0.00    -0.359 N 
HETATM   14  H   UNL     1      38.177 -14.664  -0.171  1.00  0.00     0.162 HD
HETATM   15  O   UNL     1      41.313 -14.236  -0.183  1.00  0.00    -0.273 OA
BRANCH  13  16
HETATM   16  C   UNL     1      39.133 -14.842  -2.031  1.00  0.00     0.150 C 
BRANCH  16  17
HETATM   17  C   UNL     1      38.082 -14.204  -2.963  1.00  0.00     0.253 C 
BRANCH  17  18
HETATM   18  N   UNL     1      38.346 -12.735  -3.233  1.00  0.00    -0.077 N 
HETATM   19  H   UNL     1      38.104 -12.573  -4.231  1.00  0.00     0.279 HD
HETATM   20  C   UNL     1      37.508 -11.802  -2.402  1.00  0.00     0.269 C 
HETATM   21  C   UNL     1      39.807 -12.402  -3.085  1.00  0.00     0.269 C 
ENDBRANCH  17  18
ENDBRANCH  16  17
ENDBRANCH  13  16
ENDBRANCH  11  12
ENDBRANCH   6  11
BRANCH   7  22
HETATM   22  C   UNL     1      41.982 -14.156   3.968  1.00  0.00    -0.030 A 
HETATM   23  C   UNL     1      42.830 -14.280   2.859  1.00  0.00     0.010 A 
HETATM   24  C   UNL     1      43.403 -15.519   2.536  1.00  0.00     0.008 A 
HETATM   25  C   UNL     1      43.146 -16.661   3.307  1.00  0.00    -0.055 A 
HETATM   26  C   UNL     1      42.360 -16.521   4.454  1.00  0.00     0.008 A 
HETATM   27  C   UNL     1      41.791 -15.291   4.781  1.00  0.00     0.010 A 
BRANCH  25  28
HETATM   28  C   UNL     1      43.748 -18.004   2.921  1.00  0.00     0.010 C 
HETATM   29  C   UNL     1      44.370 -18.699   4.132  1.00  0.00     0.015 C 
HETATM   30  C   UNL     1      42.733 -18.926   2.233  1.00  0.00     0.015 C 
ENDBRANCH  25  28
ENDBRANCH   7  22
BRANCH  10  31
HETATM   31  C   UNL     1      43.479 -11.722   4.890  1.00  0.00     0.294 C 
HETATM   32  O   UNL     1      44.181 -11.303   4.000  1.00  0.00    -0.259 OA
BRANCH  31  33
HETATM   33  O   UNL     1      43.833 -12.368   6.026  1.00  0.00    -0.313 OA
BRANCH  33  34
HETATM   34  C   UNL     1      45.167 -12.137   6.505  1.00  0.00     0.217 C 
BRANCH  34  35
HETATM   35  C   UNL     1      45.069 -11.062   7.567  1.00  0.00    -0.034 A 
HETATM   36  C   UNL     1      44.060 -11.106   8.545  1.00  0.00     0.009 A 
HETATM   37  C   UNL     1      43.979 -10.134   9.545  1.00  0.00     0.001 A 
HETATM   38  C   UNL     1      44.914  -9.106   9.588  1.00  0.00     0.000 A 
HETATM   39  C   UNL     1      45.931  -9.056   8.636  1.00  0.00     0.001 A 
HETATM   40  C   UNL     1      46.011 -10.028   7.634  1.00  0.00     0.009 A 
ENDBRANCH  34  35
ENDBRANCH  33  34
ENDBRANCH  31  33
ENDBRANCH  10  31
TORSDOF 11
ENDMDL
MODEL 3
REMARK VINA RESULT:      -7.8      2.993      7.120
REMARK  11 active torsions:
REMARK  status: ('A' for Active; 'I' for Inactive)
REMARK    1  A    between atoms: C_6  and  C_7 
REMARK    2  A    between atoms: C_7  and  C_8 
REMARK       I    between atoms: C_8  and  N_9 
REMARK    3  A    between atoms: N_9  and  C_10 
REMARK    4  A    between atoms: C_10  and  C_11 
REMARK    5  A    between atoms: C_11  and  N_12 
REMARK    6  A    between atoms: C_17  and  C_18 
REMARK    7  A    between atoms: C_21  and  C_22 
REMARK    8  A    between atoms: C_29  and  C_30 
REMARK    9  A    between atoms: C_30  and  O_31 
REMARK   10  A    between atoms: O_31  and  C_32 
REMARK   11  A    between atoms: C_32  and  C_33 
ROOT
HETATM    1  C   UNL     1      40.482 -16.093   1.766  1.00  0.00     0.071 C 
HETATM    2  C   UNL     1      40.702 -14.676   2.251  1.00  0.00     0.048 C 
HETATM    3  N   UNL     1      39.849 -13.760   1.673  1.00  0.00    -0.229 NA
HETATM    4  C   UNL     1      39.683 -12.635   2.278  1.00  0.00     0.170 C 
HETATM    5  N   UNL     1      40.586 -12.092   3.450  1.00  0.00    -0.319 N 
HETATM    6  C   UNL     1      40.099 -10.976   3.904  1.00  0.00     0.011 C 
HETATM    7  C   UNL     1      41.842 -12.886   3.528  1.00  0.00     0.166 C 
HETATM    8  S   UNL     1      38.414 -11.530   1.876  1.00  0.00    -0.086 SA
HETATM    9  C   UNL     1      38.699 -10.640   3.425  1.00  0.00     0.135 C 
HETATM   10  C   UNL     1      41.549 -14.325   3.244  1.00  0.00     0.069 C 
ENDROOT
BRANCH   6  11
HETATM   11  C   UNL     1      40.827 -10.036   4.818  1.00  0.00     0.156 C 
BRANCH  11  12
HETATM   12  C   UNL     1      40.255  -9.904   6.216  1.00  0.00     0.223 C 
HETATM   13  N   UNL     1      40.204  -8.606   6.667  1.00  0.00    -0.359 N 
HETATM   14  H   UNL     1      40.673  -7.901   6.102  1.00  0.00     0.162 HD
HETATM   15  O   UNL     1      39.869 -10.863   6.875  1.00  0.00    -0.273 OA
BRANCH  13  16
HETATM   16  C   UNL     1      39.924  -8.187   8.042  1.00  0.00     0.150 C 
BRANCH  16  17
HETATM   17  C   UNL     1      40.994  -8.510   9.106  1.00  0.00     0.253 C 
BRANCH  17  18
HETATM   18  N   UNL     1      40.632  -9.707   9.965  1.00  0.00    -0.077 N 
HETATM   19  H   UNL     1      40.991 -10.545   9.465  1.00  0.00     0.279 HD
HETATM   20  C   UNL     1      41.256  -9.687  11.333  1.00  0.00     0.269 C 
HETATM   21  C   UNL     1      39.139  -9.876  10.070  1.00  0.00     0.269 C 
ENDBRANCH  17  18
ENDBRANCH  16  17
ENDBRANCH  13  16
ENDBRANCH  11  12
ENDBRANCH   6  11
BRANCH   7  22
HETATM   22  C   UNL     1      42.760 -12.548   4.685  1.00  0.00    -0.030 A 
HETATM   23  C   UNL     1      42.513 -12.925   6.012  1.00  0.00     0.010 A 
HETATM   24  C   UNL     1      43.354 -12.487   7.045  1.00  0.00     0.008 A 
HETATM   25  C   UNL     1      44.458 -11.663   6.784  1.00  0.00    -0.055 A 
HETATM   26  C   UNL     1      44.746 -11.346   5.453  1.00  0.00     0.008 A 
HETATM   27  C   UNL     1      43.915 -11.783   4.422  1.00  0.00     0.010 A 
BRANCH  25  28
HETATM   28  C   UNL     1      45.338 -11.168   7.922  1.00  0.00     0.010 C 
HETATM   29  C   UNL     1      46.470 -10.283   7.399  1.00  0.00     0.015 C 
HETATM   30  C   UNL     1      44.537 -10.434   9.006  1.00  0.00     0.015 C 
ENDBRANCH  25  28
ENDBRANCH   7  22
BRANCH  10  31
HETATM   31  C   UNL     1      41.896 -15.383   4.206  1.00  0.00     0.294 C 
HETATM   32  O   UNL     1      41.227 -15.750   5.143  1.00  0.00    -0.259 OA
BRANCH  31  33
HETATM   33  O   UNL     1      43.154 -15.746   3.860  1.00  0.00    -0.313 OA
BRANCH  33  34
HETATM   34  C   UNL     1      43.835 -16.634   4.760  1.00  0.00     0.217 C 
BRANCH  34  35
HETATM   35  C   UNL     1      43.757 -18.018   4.149  1.00  0.00    -0.034 A 
HETATM   36  C   UNL     1      43.434 -18.188   2.791  1.00  0.00     0.009 A 
HETATM   37  C   UNL     1      43.387 -19.458   2.213  1.00  0.00     0.001 A 
HETATM   38  C   UNL     1      43.673 -20.580   2.984  1.00  0.00     0.000 A 
HETATM   39  C   UNL     1      44.010 -20.429   4.327  1.00  0.00     0.001 A 
HETATM   40  C   UNL     1      44.056 -19.157   4.907  1.00  0.00     0.009 A 
ENDBRANCH  34  35
ENDBRANCH  33  34
ENDBRANCH  31  33
ENDBRANCH  10  31
TORSDOF 11
ENDMDL
MODEL 4
REMARK VINA RESULT:      -7.7      1.971      2.842
REMARK  11 active torsions:
REMARK  status: ('A' for Active; 'I' for Inactive)
REMARK    1  A    between atoms: C_6  and  C_7 
REMARK    2  A    between atoms: C_7  and  C_8 
REMARK       I    between atoms: C_8  and  N_9 
REMARK    3  A    between atoms: N_9  and  C_10 
REMARK    4  A    between atoms: C_10  and  C_11 
REMARK    5  A    between atoms: C_11  and  N_12 
REMARK    6  A    between atoms: C_17  and  C_18 
REMARK    7  A    between atoms: C_21  and  C_22 
REMARK    8  A    between atoms: C_29  and  C_30 
REMARK    9  A    between atoms: C_30  and  O_31 
REMARK   10  A    between atoms: O_31  and  C_32 
REMARK   11  A    between atoms: C_32  and  C_33 
ROOT
HETATM    1  C   UNL     1      41.868  -9.210   8.041  1.00  0.00     0.071 C 
HETATM    2  C   UNL     1      41.047  -9.922   6.986  1.00  0.00     0.048 C 
HETATM    3  N   UNL     1      39.851  -9.295   6.708  1.00  0.00    -0.229 NA
HETATM    4  C   UNL     1      39.277  -9.578   5.590  1.00  0.00     0.170 C 
HETATM    5  N   UNL     1      39.656 -10.788   4.653  1.00  0.00    -0.319 N 
HETATM    6  C   UNL     1      38.954 -10.739   3.561  1.00  0.00     0.011 C 
HETATM    7  C   UNL     1      40.524 -11.744   5.392  1.00  0.00     0.166 C 
HETATM    8  S   UNL     1      37.970  -8.646   4.943  1.00  0.00    -0.086 SA
HETATM    9  C   UNL     1      38.198  -9.443   3.334  1.00  0.00     0.135 C 
HETATM   10  C   UNL     1      41.468 -10.992   6.275  1.00  0.00     0.069 C 
ENDROOT
BRANCH   6  11
HETATM   11  C   UNL     1      38.839 -11.860   2.570  1.00  0.00     0.156 C 
BRANCH  11  12
HETATM   12  C   UNL     1      38.912 -11.455   1.111  1.00  0.00     0.223 C 
HETATM   13  N   UNL     1      37.841 -11.891   0.367  1.00  0.00    -0.359 N 
HETATM   14  H   UNL     1      37.202 -12.544   0.815  1.00  0.00     0.162 HD
HETATM   15  O   UNL     1      39.834 -10.795   0.643  1.00  0.00    -0.273 OA
BRANCH  13  16
HETATM   16  C   UNL     1      37.742 -11.860  -1.094  1.00  0.00     0.150 C 
BRANCH  16  17
HETATM   17  C   UNL     1      38.754 -12.715  -1.885  1.00  0.00     0.253 C 
BRANCH  17  18
HETATM   18  N   UNL     1      38.656 -14.194  -1.564  1.00  0.00    -0.077 N 
HETATM   19  H   UNL     1      37.764 -14.323  -1.046  1.00  0.00     0.279 HD
HETATM   20  C   UNL     1      38.612 -15.079  -2.779  1.00  0.00     0.269 C 
HETATM   21  C   UNL     1      39.759 -14.630  -0.636  1.00  0.00     0.269 C 
ENDBRANCH  17  18
ENDBRANCH  16  17
ENDBRANCH  13  16
ENDBRANCH  11  12
ENDBRANCH   6  11
BRANCH   7  22
HETATM   22  C   UNL     1      41.061 -12.904   4.579  1.00  0.00    -0.030 A 
HETATM   23  C   UNL     1      42.072 -12.780   3.616  1.00  0.00     0.010 A 
HETATM   24  C   UNL     1      42.445 -13.879   2.829  1.00  0.00     0.008 A 
HETATM   25  C   UNL     1      41.821 -15.126   2.979  1.00  0.00    -0.055 A 
HETATM   26  C   UNL     1      40.865 -15.268   3.988  1.00  0.00     0.008 A 
HETATM   27  C   UNL     1      40.494 -14.179   4.776  1.00  0.00     0.010 A 
BRANCH  25  28
HETATM   28  C   UNL     1      42.214 -16.297   2.092  1.00  0.00     0.010 C 
HETATM   29  C   UNL     1      43.526 -16.018   1.358  1.00  0.00     0.015 C 
HETATM   30  C   UNL     1      42.301 -17.618   2.868  1.00  0.00     0.015 C 
ENDBRANCH  25  28
ENDBRANCH   7  22
BRANCH  10  31
HETATM   31  C   UNL     1      42.925 -11.167   6.166  1.00  0.00     0.294 C 
HETATM   32  O   UNL     1      43.669 -10.556   5.436  1.00  0.00    -0.259 OA
BRANCH  31  33
HETATM   33  O   UNL     1      43.193 -12.221   6.972  1.00  0.00    -0.313 OA
BRANCH  33  34
HETATM   34  C   UNL     1      44.310 -13.044   6.600  1.00  0.00     0.217 C 
BRANCH  34  35
HETATM   35  C   UNL     1      43.810 -14.473   6.577  1.00  0.00    -0.034 A 
HETATM   36  C   UNL     1      44.454 -15.450   5.798  1.00  0.00     0.009 A 
HETATM   37  C   UNL     1      44.016 -16.776   5.792  1.00  0.00     0.001 A 
HETATM   38  C   UNL     1      42.930 -17.149   6.578  1.00  0.00     0.000 A 
HETATM   39  C   UNL     1      42.290 -16.197   7.369  1.00  0.00     0.001 A 
HETATM   40  C   UNL     1      42.727 -14.869   7.373  1.00  0.00     0.009 A 
ENDBRANCH  34  35
ENDBRANCH  33  34
ENDBRANCH  31  33
ENDBRANCH  10  31
TORSDOF 11
ENDMDL
MODEL 5
REMARK VINA RESULT:      -7.6      1.899      2.984
REMARK  11 active torsions:
REMARK  status: ('A' for Active; 'I' for Inactive)
REMARK    1  A    between atoms: C_6  and  C_7 
REMARK    2  A    between atoms: C_7  and  C_8 
REMARK       I    between atoms: C_8  and  N_9 
REMARK    3  A    between atoms: N_9  and  C_10 
REMARK    4  A    between atoms: C_10  and  C_11 
REMARK    5  A    between atoms: C_11  and  N_12 
REMARK    6  A    between atoms: C_17  and  C_18 
REMARK    7  A    between atoms: C_21  and  C_22 
REMARK    8  A    between atoms: C_29  and  C_30 
REMARK    9  A    between atoms: C_30  and  O_31 
REMARK   10  A    between atoms: O_31  and  C_32 
REMARK   11  A    between atoms: C_32  and  C_33 
ROOT
HETATM    1  C   UNL     1      39.402 -11.390   6.879  1.00  0.00     0.071 C 
HETATM    2  C   UNL     1      39.670 -11.802   5.447  1.00  0.00     0.048 C 
HETATM    3  N   UNL     1      39.292 -10.850   4.524  1.00  0.00    -0.229 NA
HETATM    4  C   UNL     1      39.816 -10.919   3.349  1.00  0.00     0.170 C 
HETATM    5  N   UNL     1      40.611 -12.156   2.779  1.00  0.00    -0.319 N 
HETATM    6  C   UNL     1      41.087 -11.872   1.604  1.00  0.00     0.011 C 
HETATM    7  C   UNL     1      40.381 -13.344   3.644  1.00  0.00     0.166 C 
HETATM    8  S   UNL     1      39.714  -9.632   2.197  1.00  0.00    -0.086 SA
HETATM    9  C   UNL     1      41.021 -10.408   1.215  1.00  0.00     0.135 C 
HETATM   10  C   UNL     1      40.328 -12.923   5.078  1.00  0.00     0.069 C 
ENDROOT
BRANCH   6  11
HETATM   11  C   UNL     1      41.654 -12.880   0.647  1.00  0.00     0.156 C 
BRANCH  11  12
HETATM   12  C   UNL     1      40.719 -13.334  -0.457  1.00  0.00     0.223 C 
HETATM   13  N   UNL     1      40.960 -12.723  -1.665  1.00  0.00    -0.359 N 
HETATM   14  H   UNL     1      41.618 -11.947  -1.667  1.00  0.00     0.162 HD
HETATM   15  O   UNL     1      39.840 -14.172  -0.288  1.00  0.00    -0.273 OA
BRANCH  13  16
HETATM   16  C   UNL     1      40.091 -12.779  -2.842  1.00  0.00     0.150 C 
BRANCH  16  17
HETATM   17  C   UNL     1      39.124 -11.595  -3.058  1.00  0.00     0.253 C 
BRANCH  17  18
HETATM   18  N   UNL     1      37.738 -11.856  -2.502  1.00  0.00    -0.077 N 
HETATM   19  H   UNL     1      37.081 -11.288  -3.074  1.00  0.00     0.279 HD
HETATM   20  C   UNL     1      37.303 -13.292  -2.597  1.00  0.00     0.269 C 
HETATM   21  C   UNL     1      37.611 -11.362  -1.085  1.00  0.00     0.269 C 
ENDBRANCH  17  18
ENDBRANCH  16  17
ENDBRANCH  13  16
ENDBRANCH  11  12
ENDBRANCH   6  11
BRANCH   7  22
HETATM   22  C   UNL     1      41.175 -14.582   3.281  1.00  0.00    -0.030 A 
HETATM   23  C   UNL     1      40.593 -15.787   2.862  1.00  0.00     0.010 A 
HETATM   24  C   UNL     1      41.387 -16.922   2.644  1.00  0.00     0.008 A 
HETATM   25  C   UNL     1      42.775 -16.888   2.839  1.00  0.00    -0.055 A 
HETATM   26  C   UNL     1      43.363 -15.669   3.186  1.00  0.00     0.008 A 
HETATM   27  C   UNL     1      42.579 -14.536   3.400  1.00  0.00     0.010 A 
BRANCH  25  28
HETATM   28  C   UNL     1      43.614 -18.140   2.632  1.00  0.00     0.010 C 
HETATM   29  C   UNL     1      44.344 -18.533   3.916  1.00  0.00     0.015 C 
HETATM   30  C   UNL     1      42.789 -19.318   2.098  1.00  0.00     0.015 C 
ENDBRANCH  25  28
ENDBRANCH   7  22
BRANCH  10  31
HETATM   31  C   UNL     1      41.233 -13.504   6.082  1.00  0.00     0.294 C 
HETATM   32  O   UNL     1      41.016 -14.474   6.770  1.00  0.00    -0.259 OA
BRANCH  31  33
HETATM   33  O   UNL     1      42.279 -12.645   6.122  1.00  0.00    -0.313 OA
BRANCH  33  34
HETATM   34  C   UNL     1      43.494 -13.141   6.707  1.00  0.00     0.217 C 
BRANCH  34  35
HETATM   35  C   UNL     1      44.263 -11.935   7.203  1.00  0.00    -0.034 A 
HETATM   36  C   UNL     1      43.779 -11.161   8.272  1.00  0.00     0.009 A 
HETATM   37  C   UNL     1      44.495 -10.063   8.754  1.00  0.00     0.001 A 
HETATM   38  C   UNL     1      45.717  -9.728   8.178  1.00  0.00     0.000 A 
HETATM   39  C   UNL     1      46.220 -10.494   7.128  1.00  0.00     0.001 A 
HETATM   40  C   UNL     1      45.501 -11.592   6.645  1.00  0.00     0.009 A 
ENDBRANCH  34  35
ENDBRANCH  33  34
ENDBRANCH  31  33
ENDBRANCH  10  31
TORSDOF 11
ENDMDL
MODEL 6
REMARK VINA RESULT:      -7.5      3.203      7.454
REMARK  11 active torsions:
REMARK  status: ('A' for Active; 'I' for Inactive)
REMARK    1  A    between atoms: C_6  and  C_7 
REMARK    2  A    between atoms: C_7  and  C_8 
REMARK       I    between atoms: C_8  and  N_9 
REMARK    3  A    between atoms: N_9  and  C_10 
REMARK    4  A    between atoms: C_10  and  C_11 
REMARK    5  A    between atoms: C_11  and  N_12 
REMARK    6  A    between atoms: C_17  and  C_18 
REMARK    7  A    between atoms: C_21  and  C_22 
REMARK    8  A    between atoms: C_29  and  C_30 
REMARK    9  A    between atoms: C_30  and  O_31 
REMARK   10  A    between atoms: O_31  and  C_32 
REMARK   11  A    between atoms: C_32  and  C_33 
ROOT
HETATM    1  C   UNL     1      39.849  -9.500  -0.305  1.00  0.00     0.071 C 
HETATM    2  C   UNL     1      40.322  -9.546   1.133  1.00  0.00     0.048 C 
HETATM    3  N   UNL     1      40.545  -8.299   1.676  1.00  0.00    -0.229 NA
HETATM    4  C   UNL     1      40.565  -8.203   2.960  1.00  0.00     0.170 C 
HETATM    5  N   UNL     1      40.657  -9.418   3.961  1.00  0.00    -0.319 N 
HETATM    6  C   UNL     1      40.561  -8.992   5.184  1.00  0.00     0.011 C 
HETATM    7  C   UNL     1      41.059 -10.647   3.225  1.00  0.00     0.166 C 
HETATM    8  S   UNL     1      40.496  -6.687   3.791  1.00  0.00    -0.086 SA
HETATM    9  C   UNL     1      40.112  -7.551   5.334  1.00  0.00     0.135 C 
HETATM   10  C   UNL     1      40.404 -10.669   1.881  1.00  0.00     0.069 C 
ENDROOT
BRANCH   6  11
HETATM   11  C   UNL     1      40.879  -9.811   6.401  1.00  0.00     0.156 C 
BRANCH  11  12
HETATM   12  C   UNL     1      39.743  -9.988   7.389  1.00  0.00     0.223 C 
HETATM   13  N   UNL     1      40.068  -9.614   8.671  1.00  0.00    -0.359 N 
HETATM   14  H   UNL     1      41.046  -9.403   8.857  1.00  0.00     0.162 HD
HETATM   15  O   UNL     1      38.639 -10.417   7.070  1.00  0.00    -0.273 OA
BRANCH  13  16
HETATM   16  C   UNL     1      39.272  -9.883   9.870  1.00  0.00     0.150 C 
BRANCH  16  17
HETATM   17  C   UNL     1      39.736  -9.222  11.185  1.00  0.00     0.253 C 
BRANCH  17  18
HETATM   18  N   UNL     1      40.650 -10.113  12.004  1.00  0.00    -0.077 N 
HETATM   19  H   UNL     1      40.353 -11.091  11.814  1.00  0.00     0.279 HD
HETATM   20  C   UNL     1      42.104  -9.997  11.637  1.00  0.00     0.269 C 
HETATM   21  C   UNL     1      40.461  -9.886  13.481  1.00  0.00     0.269 C 
ENDBRANCH  17  18
ENDBRANCH  16  17
ENDBRANCH  13  16
ENDBRANCH  11  12
ENDBRANCH   6  11
BRANCH   7  22
HETATM   22  C   UNL     1      41.078 -11.923   4.043  1.00  0.00    -0.030 A 
HETATM   23  C   UNL     1      39.927 -12.538   4.555  1.00  0.00     0.010 A 
HETATM   24  C   UNL     1      40.032 -13.660   5.391  1.00  0.00     0.008 A 
HETATM   25  C   UNL     1      41.281 -14.195   5.737  1.00  0.00    -0.055 A 
HETATM   26  C   UNL     1      42.424 -13.626   5.168  1.00  0.00     0.008 A 
HETATM   27  C   UNL     1      42.324 -12.513   4.333  1.00  0.00     0.010 A 
BRANCH  25  28
HETATM   28  C   UNL     1      41.375 -15.390   6.674  1.00  0.00     0.010 C 
HETATM   29  C   UNL     1      40.199 -16.344   6.470  1.00  0.00     0.015 C 
HETATM   30  C   UNL     1      42.708 -16.138   6.536  1.00  0.00     0.015 C 
ENDBRANCH  25  28
ENDBRANCH   7  22
BRANCH  10  31
HETATM   31  C   UNL     1      39.554 -11.793   1.459  1.00  0.00     0.294 C 
HETATM   32  O   UNL     1      38.356 -11.880   1.597  1.00  0.00    -0.259 OA
BRANCH  31  33
HETATM   33  O   UNL     1      40.431 -12.719   1.002  1.00  0.00    -0.313 OA
BRANCH  33  34
HETATM   34  C   UNL     1      39.977 -14.082   0.993  1.00  0.00     0.217 C 
BRANCH  34  35
HETATM   35  C   UNL     1      41.085 -14.914   1.605  1.00  0.00    -0.034 A 
HETATM   36  C   UNL     1      42.435 -14.590   1.385  1.00  0.00     0.009 A 
HETATM   37  C   UNL     1      43.462 -15.334   1.969  1.00  0.00     0.001 A 
HETATM   38  C   UNL     1      43.153 -16.412   2.793  1.00  0.00     0.000 A 
HETATM   39  C   UNL     1      41.820 -16.737   3.035  1.00  0.00     0.001 A 
HETATM   40  C   UNL     1      40.791 -15.992   2.449  1.00  0.00     0.009 A 
ENDBRANCH  34  35
ENDBRANCH  33  34
ENDBRANCH  31  33
ENDBRANCH  10  31
TORSDOF 11
ENDMDL
MODEL 7
REMARK VINA RESULT:      -7.5      3.309      7.552
REMARK  11 active torsions:
REMARK  status: ('A' for Active; 'I' for Inactive)
REMARK    1  A    between atoms: C_6  and  C_7 
REMARK    2  A    between atoms: C_7  and  C_8 
REMARK       I    between atoms: C_8  and  N_9 
REMARK    3  A    between atoms: N_9  and  C_10 
REMARK    4  A    between atoms: C_10  and  C_11 
REMARK    5  A    between atoms: C_11  and  N_12 
REMARK    6  A    between atoms: C_17  and  C_18 
REMARK    7  A    between atoms: C_21  and  C_22 
REMARK    8  A    between atoms: C_29  and  C_30 
REMARK    9  A    between atoms: C_30  and  O_31 
REMARK   10  A    between atoms: O_31  and  C_32 
REMARK   11  A    between atoms: C_32  and  C_33 
ROOT
HETATM    1  C   UNL     1      39.248  -9.436   1.307  1.00  0.00     0.071 C 
HETATM    2  C   UNL     1      40.213  -9.584   2.465  1.00  0.00     0.048 C 
HETATM    3  N   UNL     1      40.603  -8.378   3.009  1.00  0.00    -0.229 NA
HETATM    4  C   UNL     1      41.089  -8.393   4.201  1.00  0.00     0.170 C 
HETATM    5  N   UNL     1      41.556  -9.683   4.978  1.00  0.00    -0.319 N 
HETATM    6  C   UNL     1      41.906  -9.369   6.189  1.00  0.00     0.011 C 
HETATM    7  C   UNL     1      41.676 -10.824   4.031  1.00  0.00     0.166 C 
HETATM    8  S   UNL     1      41.309  -6.959   5.144  1.00  0.00    -0.086 SA
HETATM    9  C   UNL     1      41.525  -7.968   6.630  1.00  0.00     0.135 C 
HETATM   10  C   UNL     1      40.577 -10.761   3.020  1.00  0.00     0.069 C 
ENDROOT
BRANCH   6  11
HETATM   11  C   UNL     1      42.657 -10.273   7.121  1.00  0.00     0.156 C 
BRANCH  11  12
HETATM   12  C   UNL     1      43.212  -9.614   8.369  1.00  0.00     0.223 C 
HETATM   13  N   UNL     1      42.687 -10.119   9.536  1.00  0.00    -0.359 N 
HETATM   14  H   UNL     1      41.898 -10.756   9.449  1.00  0.00     0.162 HD
HETATM   15  O   UNL     1      44.055  -8.724   8.338  1.00  0.00    -0.273 OA
BRANCH  13  16
HETATM   16  C   UNL     1      42.849  -9.538  10.870  1.00  0.00     0.150 C 
BRANCH  16  17
HETATM   17  C   UNL     1      41.565  -9.097  11.605  1.00  0.00     0.253 C 
BRANCH  17  18
HETATM   18  N   UNL     1      40.502 -10.179  11.637  1.00  0.00    -0.077 N 
HETATM   19  H   UNL     1      40.961 -11.050  11.305  1.00  0.00     0.279 HD
HETATM   20  C   UNL     1      39.947 -10.447  13.009  1.00  0.00     0.269 C 
HETATM   21  C   UNL     1      39.387  -9.884  10.668  1.00  0.00     0.269 C 
ENDBRANCH  17  18
ENDBRANCH  16  17
ENDBRANCH  13  16
ENDBRANCH  11  12
ENDBRANCH   6  11
BRANCH   7  22
HETATM   22  C   UNL     1      42.008 -12.164   4.658  1.00  0.00    -0.030 A 
HETATM   23  C   UNL     1      41.127 -12.880   5.479  1.00  0.00     0.010 A 
HETATM   24  C   UNL     1      41.542 -14.063   6.108  1.00  0.00     0.008 A 
HETATM   25  C   UNL     1      42.842 -14.559   5.938  1.00  0.00    -0.055 A 
HETATM   26  C   UNL     1      43.697 -13.884   5.062  1.00  0.00     0.008 A 
HETATM   27  C   UNL     1      43.287 -12.710   4.431  1.00  0.00     0.010 A 
BRANCH  25  28
HETATM   28  C   UNL     1      43.286 -15.824   6.657  1.00  0.00     0.010 C 
HETATM   29  C   UNL     1      42.147 -16.840   6.739  1.00  0.00     0.015 C 
HETATM   30  C   UNL     1      44.529 -16.457   6.017  1.00  0.00     0.015 C 
ENDBRANCH  25  28
ENDBRANCH   7  22
BRANCH  10  31
HETATM   31  C   UNL     1      39.646 -11.884   2.827  1.00  0.00     0.294 C 
HETATM   32  O   UNL     1      38.601 -12.059   3.409  1.00  0.00    -0.259 OA
BRANCH  31  33
HETATM   33  O   UNL     1      40.284 -12.699   1.954  1.00  0.00    -0.313 OA
BRANCH  33  34
HETATM   34  C   UNL     1      39.838 -14.064   1.907  1.00  0.00     0.217 C 
BRANCH  34  35
HETATM   35  C   UNL     1      41.061 -14.929   2.131  1.00  0.00    -0.034 A 
HETATM   36  C   UNL     1      40.990 -16.082   2.933  1.00  0.00     0.009 A 
HETATM   37  C   UNL     1      42.105 -16.901   3.122  1.00  0.00     0.001 A 
HETATM   38  C   UNL     1      43.309 -16.584   2.501  1.00  0.00     0.000 A 
HETATM   39  C   UNL     1      43.393 -15.454   1.690  1.00  0.00     0.001 A 
HETATM   40  C   UNL     1      42.276 -14.633   1.502  1.00  0.00     0.009 A 
ENDBRANCH  34  35
ENDBRANCH  33  34
ENDBRANCH  31  33
ENDBRANCH  10  31
TORSDOF 11
ENDMDL
MODEL 8
REMARK VINA RESULT:      -7.3      2.912      7.189
REMARK  11 active torsions:
REMARK  status: ('A' for Active; 'I' for Inactive)
REMARK    1  A    between atoms: C_6  and  C_7 
REMARK    2  A    between atoms: C_7  and  C_8 
REMARK       I    between atoms: C_8  and  N_9 
REMARK    3  A    between atoms: N_9  and  C_10 
REMARK    4  A    between atoms: C_10  and  C_11 
REMARK    5  A    between atoms: C_11  and  N_12 
REMARK    6  A    between atoms: C_17  and  C_18 
REMARK    7  A    between atoms: C_21  and  C_22 
REMARK    8  A    between atoms: C_29  and  C_30 
REMARK    9  A    between atoms: C_30  and  O_31 
REMARK   10  A    between atoms: O_31  and  C_32 
REMARK   11  A    between atoms: C_32  and  C_33 
ROOT
HETATM    1  C   UNL     1      38.794  -9.567   0.541  1.00  0.00     0.071 C 
HETATM    2  C   UNL     1      39.405  -9.564   1.927  1.00  0.00     0.048 C 
HETATM    3  N   UNL     1      39.291  -8.351   2.573  1.00  0.00    -0.229 NA
HETATM    4  C   UNL     1      39.414  -8.346   3.855  1.00  0.00     0.170 C 
HETATM    5  N   UNL     1      39.977  -9.538   4.719  1.00  0.00    -0.319 N 
HETATM    6  C   UNL     1      39.882  -9.252   5.983  1.00  0.00     0.011 C 
HETATM    7  C   UNL     1      40.657 -10.523   3.836  1.00  0.00     0.166 C 
HETATM    8  S   UNL     1      38.970  -6.991   4.836  1.00  0.00    -0.086 SA
HETATM    9  C   UNL     1      39.031  -8.039   6.310  1.00  0.00     0.135 C 
HETATM   10  C   UNL     1      39.904 -10.654   2.551  1.00  0.00     0.069 C 
ENDROOT
BRANCH   6  11
HETATM   11  C   UNL     1      40.560 -10.013   7.084  1.00  0.00     0.156 C 
BRANCH  11  12
HETATM   12  C   UNL     1      41.992  -9.609   7.376  1.00  0.00     0.223 C 
HETATM   13  N   UNL     1      42.766 -10.641   7.852  1.00  0.00    -0.359 N 
HETATM   14  H   UNL     1      42.286 -11.505   8.095  1.00  0.00     0.162 HD
HETATM   15  O   UNL     1      42.418  -8.473   7.195  1.00  0.00    -0.273 OA
BRANCH  13  16
HETATM   16  C   UNL     1      44.103 -10.510   8.435  1.00  0.00     0.150 C 
BRANCH  16  17
HETATM   17  C   UNL     1      44.188 -10.024   9.898  1.00  0.00     0.253 C 
BRANCH  17  18
HETATM   18  N   UNL     1      43.088 -10.594  10.774  1.00  0.00    -0.077 N 
HETATM   19  H   UNL     1      42.609 -11.321  10.207  1.00  0.00     0.279 HD
HETATM   20  C   UNL     1      43.590 -11.250  12.031  1.00  0.00     0.269 C 
HETATM   21  C   UNL     1      42.051  -9.552  11.102  1.00  0.00     0.269 C 
ENDBRANCH  17  18
ENDBRANCH  16  17
ENDBRANCH  13  16
ENDBRANCH  11  12
ENDBRANCH   6  11
BRANCH   7  22
HETATM   22  C   UNL     1      41.150 -11.783   4.518  1.00  0.00    -0.030 A 
HETATM   23  C   UNL     1      42.498 -12.165   4.570  1.00  0.00     0.010 A 
HETATM   24  C   UNL     1      42.868 -13.397   5.127  1.00  0.00     0.008 A 
HETATM   25  C   UNL     1      41.908 -14.279   5.645  1.00  0.00    -0.055 A 
HETATM   26  C   UNL     1      40.573 -13.867   5.659  1.00  0.00     0.008 A 
HETATM   27  C   UNL     1      40.201 -12.640   5.110  1.00  0.00     0.010 A 
BRANCH  25  28
HETATM   28  C   UNL     1      42.326 -15.627   6.213  1.00  0.00     0.010 C 
HETATM   29  C   UNL     1      42.895 -15.479   7.623  1.00  0.00     0.015 C 
HETATM   30  C   UNL     1      41.181 -16.649   6.198  1.00  0.00     0.015 C 
ENDBRANCH  25  28
ENDBRANCH   7  22
BRANCH  10  31
HETATM   31  C   UNL     1      39.400 -11.956   2.085  1.00  0.00     0.294 C 
HETATM   32  O   UNL     1      38.316 -12.434   2.324  1.00  0.00    -0.259 OA
BRANCH  31  33
HETATM   33  O   UNL     1      40.457 -12.511   1.445  1.00  0.00    -0.313 OA
BRANCH  33  34
HETATM   34  C   UNL     1      40.231 -13.785   0.822  1.00  0.00     0.217 C 
BRANCH  34  35
HETATM   35  C   UNL     1      41.215 -14.755   1.443  1.00  0.00    -0.034 A 
HETATM   36  C   UNL     1      42.579 -14.431   1.544  1.00  0.00     0.009 A 
HETATM   37  C   UNL     1      43.488 -15.308   2.140  1.00  0.00     0.001 A 
HETATM   38  C   UNL     1      43.043 -16.520   2.657  1.00  0.00     0.000 A 
HETATM   39  C   UNL     1      41.691 -16.849   2.581  1.00  0.00     0.001 A 
HETATM   40  C   UNL     1      40.781 -15.973   1.981  1.00  0.00     0.009 A 
ENDBRANCH  34  35
ENDBRANCH  33  34
ENDBRANCH  31  33
ENDBRANCH  10  31
TORSDOF 11
ENDMDL
MODEL 9
REMARK VINA RESULT:      -7.3      2.922      5.469
REMARK  11 active torsions:
REMARK  status: ('A' for Active; 'I' for Inactive)
REMARK    1  A    between atoms: C_6  and  C_7 
REMARK    2  A    between atoms: C_7  and  C_8 
REMARK       I    between atoms: C_8  and  N_9 
REMARK    3  A    between atoms: N_9  and  C_10 
REMARK    4  A    between atoms: C_10  and  C_11 
REMARK    5  A    between atoms: C_11  and  N_12 
REMARK    6  A    between atoms: C_17  and  C_18 
REMARK    7  A    between atoms: C_21  and  C_22 
REMARK    8  A    between atoms: C_29  and  C_30 
REMARK    9  A    between atoms: C_30  and  O_31 
REMARK   10  A    between atoms: O_31  and  C_32 
REMARK   11  A    between atoms: C_32  and  C_33 
ROOT
HETATM    1  C   UNL     1      41.888 -15.035   6.683  1.00  0.00     0.071 C 
HETATM    2  C   UNL     1      40.985 -14.296   5.717  1.00  0.00     0.048 C 
HETATM    3  N   UNL     1      40.100 -13.442   6.340  1.00  0.00    -0.229 NA
HETATM    4  C   UNL     1      39.577 -12.504   5.628  1.00  0.00     0.170 C 
HETATM    5  N   UNL     1      39.621 -12.425   4.054  1.00  0.00    -0.319 N 
HETATM    6  C   UNL     1      39.086 -11.311   3.652  1.00  0.00     0.011 C 
HETATM    7  C   UNL     1      40.043 -13.737   3.496  1.00  0.00     0.166 C 
HETATM    8  S   UNL     1      38.726 -11.164   6.318  1.00  0.00    -0.086 SA
HETATM    9  C   UNL     1      38.833 -10.285   4.740  1.00  0.00     0.135 C 
HETATM   10  C   UNL     1      41.092 -14.346   4.370  1.00  0.00     0.069 C 
ENDROOT
BRANCH   6  11
HETATM   11  C   UNL     1      38.703 -11.012   2.233  1.00  0.00     0.156 C 
BRANCH  11  12
HETATM   12  C   UNL     1      38.450  -9.552   1.914  1.00  0.00     0.223 C 
HETATM   13  N   UNL     1      37.116  -9.234   1.820  1.00  0.00    -0.359 N 
HETATM   14  H   UNL     1      36.455 -10.008   1.825  1.00  0.00     0.162 HD
HETATM   15  O   UNL     1      39.351  -8.734   1.764  1.00  0.00    -0.273 OA
BRANCH  13  16
HETATM   16  C   UNL     1      36.568  -7.978   1.302  1.00  0.00     0.150 C 
BRANCH  16  17
HETATM   17  C   UNL     1      35.232  -7.494   1.903  1.00  0.00     0.253 C 
BRANCH  17  18
HETATM   18  N   UNL     1      34.102  -8.488   1.709  1.00  0.00    -0.077 N 
HETATM   19  H   UNL     1      34.439  -9.392   2.096  1.00  0.00     0.279 HD
HETATM   20  C   UNL     1      32.837  -8.121   2.435  1.00  0.00     0.269 C 
HETATM   21  C   UNL     1      33.821  -8.723   0.248  1.00  0.00     0.269 C 
ENDBRANCH  17  18
ENDBRANCH  16  17
ENDBRANCH  13  16
ENDBRANCH  11  12
ENDBRANCH   6  11
BRANCH   7  22
HETATM   22  C   UNL     1      40.240 -13.777   1.993  1.00  0.00    -0.030 A 
HETATM   23  C   UNL     1      40.894 -12.774   1.266  1.00  0.00     0.010 A 
HETATM   24  C   UNL     1      40.946 -12.829  -0.135  1.00  0.00     0.008 A 
HETATM   25  C   UNL     1      40.348 -13.880  -0.844  1.00  0.00    -0.055 A 
HETATM   26  C   UNL     1      39.759 -14.917  -0.115  1.00  0.00     0.008 A 
HETATM   27  C   UNL     1      39.709 -14.869   1.278  1.00  0.00     0.010 A 
BRANCH  25  28
HETATM   28  C   UNL     1      40.384 -13.904  -2.364  1.00  0.00     0.010 C 
HETATM   29  C   UNL     1      39.026 -14.303  -2.942  1.00  0.00     0.015 C 
HETATM   30  C   UNL     1      40.853 -12.570  -2.961  1.00  0.00     0.015 C 
ENDBRANCH  25  28
ENDBRANCH   7  22
BRANCH  10  31
HETATM   31  C   UNL     1      42.411 -14.724   3.838  1.00  0.00     0.294 C 
HETATM   32  O   UNL     1      43.340 -13.982   3.624  1.00  0.00    -0.259 OA
BRANCH  31  33
HETATM   33  O   UNL     1      42.286 -16.042   3.551  1.00  0.00    -0.313 OA
BRANCH  33  34
HETATM   34  C   UNL     1      43.210 -16.578   2.590  1.00  0.00     0.217 C 
BRANCH  34  35
HETATM   35  C   UNL     1      43.485 -18.009   3.002  1.00  0.00    -0.034 A 
HETATM   36  C   UNL     1      43.972 -18.308   4.287  1.00  0.00     0.009 A 
HETATM   37  C   UNL     1      44.202 -19.627   4.685  1.00  0.00     0.001 A 
HETATM   38  C   UNL     1      43.938 -20.671   3.804  1.00  0.00     0.000 A 
HETATM   39  C   UNL     1      43.440 -20.394   2.533  1.00  0.00     0.001 A 
HETATM   40  C   UNL     1      43.211 -19.073   2.134  1.00  0.00     0.009 A 
ENDBRANCH  34  35
ENDBRANCH  33  34
ENDBRANCH  31  33
ENDBRANCH  10  31
TORSDOF 11
ENDMDL
MODEL 10
REMARK VINA RESULT:      -7.0      2.195      3.305
REMARK  11 active torsions:
REMARK  status: ('A' for Active; 'I' for Inactive)
REMARK    1  A    between atoms: C_6  and  C_7 
REMARK    2  A    between atoms: C_7  and  C_8 
REMARK       I    between atoms: C_8  and  N_9 
REMARK    3  A    between atoms: N_9  and  C_10 
REMARK    4  A    between atoms: C_10  and  C_11 
REMARK    5  A    between atoms: C_11  and  N_12 
REMARK    6  A    between atoms: C_17  and  C_18 
REMARK    7  A    between atoms: C_21  and  C_22 
REMARK    8  A    between atoms: C_29  and  C_30 
REMARK    9  A    between atoms: C_30  and  O_31 
REMARK   10  A    between atoms: O_31  and  C_32 
REMARK   11  A    between atoms: C_32  and  C_33 
ROOT
HETATM    1  C   UNL     1      43.653  -9.257   8.263  1.00  0.00     0.071 C 
HETATM    2  C   UNL     1      42.683  -9.522   7.131  1.00  0.00     0.048 C 
HETATM    3  N   UNL     1      41.888  -8.437   6.826  1.00  0.00    -0.229 NA
HETATM    4  C   UNL     1      41.326  -8.417   5.667  1.00  0.00     0.170 C 
HETATM    5  N   UNL     1      41.220  -9.647   4.687  1.00  0.00    -0.319 N 
HETATM    6  C   UNL     1      40.682  -9.274   3.565  1.00  0.00     0.011 C 
HETATM    7  C   UNL     1      41.548 -10.902   5.415  1.00  0.00     0.166 C 
HETATM    8  S   UNL     1      40.585  -7.000   5.007  1.00  0.00    -0.086 SA
HETATM    9  C   UNL     1      40.564  -7.773   3.371  1.00  0.00     0.135 C 
HETATM   10  C   UNL     1      42.659 -10.649   6.384  1.00  0.00     0.069 C 
ENDROOT
BRANCH   6  11
HETATM   11  C   UNL     1      40.172 -10.210   2.510  1.00  0.00     0.156 C 
BRANCH  11  12
HETATM   12  C   UNL     1      40.863 -10.122   1.163  1.00  0.00     0.223 C 
HETATM   13  N   UNL     1      40.019  -9.778   0.134  1.00  0.00    -0.359 N 
HETATM   14  H   UNL     1      39.022  -9.763   0.340  1.00  0.00     0.162 HD
HETATM   15  O   UNL     1      42.063 -10.329   1.011  1.00  0.00    -0.273 OA
BRANCH  13  16
HETATM   16  C   UNL     1      40.337  -9.841  -1.293  1.00  0.00     0.150 C 
BRANCH  16  17
HETATM   17  C   UNL     1      40.308 -11.232  -1.960  1.00  0.00     0.253 C 
BRANCH  17  18
HETATM   18  N   UNL     1      39.017 -11.985  -1.699  1.00  0.00    -0.077 N 
HETATM   19  H   UNL     1      38.872 -11.969  -0.670  1.00  0.00     0.279 HD
HETATM   20  C   UNL     1      37.808 -11.363  -2.342  1.00  0.00     0.269 C 
HETATM   21  C   UNL     1      39.135 -13.434  -2.094  1.00  0.00     0.269 C 
ENDBRANCH  17  18
ENDBRANCH  16  17
ENDBRANCH  13  16
ENDBRANCH  11  12
ENDBRANCH   6  11
BRANCH   7  22
HETATM   22  C   UNL     1      41.598 -12.157   4.568  1.00  0.00    -0.030 A 
HETATM   23  C   UNL     1      42.641 -12.459   3.682  1.00  0.00     0.010 A 
HETATM   24  C   UNL     1      42.567 -13.589   2.854  1.00  0.00     0.008 A 
HETATM   25  C   UNL     1      41.456 -14.443   2.887  1.00  0.00    -0.055 A 
HETATM   26  C   UNL     1      40.450 -14.183   3.822  1.00  0.00     0.008 A 
HETATM   27  C   UNL     1      40.521 -13.063   4.651  1.00  0.00     0.010 A 
BRANCH  25  28
HETATM   28  C   UNL     1      41.377 -15.644   1.956  1.00  0.00     0.010 C 
HETATM   29  C   UNL     1      40.506 -15.341   0.737  1.00  0.00     0.015 C 
HETATM   30  C   UNL     1      42.763 -16.138   1.519  1.00  0.00     0.015 C 
ENDBRANCH  25  28
ENDBRANCH   7  22
BRANCH  10  31
HETATM   31  C   UNL     1      43.908 -11.424   6.340  1.00  0.00     0.294 C 
HETATM   32  O   UNL     1      44.912 -11.136   5.733  1.00  0.00    -0.259 OA
BRANCH  31  33
HETATM   33  O   UNL     1      43.621 -12.555   7.028  1.00  0.00    -0.313 OA
BRANCH  33  34
HETATM   34  C   UNL     1      44.460 -13.693   6.770  1.00  0.00     0.217 C 
BRANCH  34  35
HETATM   35  C   UNL     1      43.538 -14.848   6.441  1.00  0.00    -0.034 A 
HETATM   36  C   UNL     1      42.298 -14.988   7.088  1.00  0.00     0.009 A 
HETATM   37  C   UNL     1      41.430 -16.034   6.770  1.00  0.00     0.001 A 
HETATM   38  C   UNL     1      41.786 -16.954   5.789  1.00  0.00     0.000 A 
HETATM   39  C   UNL     1      43.004 -16.822   5.126  1.00  0.00     0.001 A 
HETATM   40  C   UNL     1      43.875 -15.775   5.446  1.00  0.00     0.009 A 
ENDBRANCH  34  35
ENDBRANCH  33  34
ENDBRANCH  31  33
ENDBRANCH  10  31
TORSDOF 11
ENDMDL
