MODEL 1
REMARK VINA RESULT:      -7.5      0.000      0.000
REMARK  9 active torsions:
REMARK  status: ('A' for Active; 'I' for Inactive)
REMARK    1  A    between atoms: O_2  and  C_3 
REMARK    2  A    between atoms: C_9  and  C_13 
REMARK       I    between atoms: C_13  and  N_15 
REMARK    3  A    between atoms: N_15  and  C_16 
REMARK    4  A    between atoms: C_19  and  C_27 
REMARK    5  A    between atoms: C_21  and  O_22 
REMARK    6  A    between atoms: O_22  and  C_23 
REMARK    7  A    between atoms: C_23  and  C_24 
REMARK    8  A    between atoms: C_24  and  C_25 
REMARK    9  A    between atoms: C_25  and  O_26 
ROOT
HETATM    1  C   UNL     1      42.139 -14.629   1.580  1.00  0.00     0.068 A 
HETATM    2  C   UNL     1      42.709 -15.832   1.161  1.00  0.00     0.033 A 
HETATM    3  C   UNL     1      43.099 -16.798   2.094  1.00  0.00     0.015 A 
HETATM    4  C   UNL     1      42.925 -16.579   3.463  1.00  0.00    -0.020 A 
HETATM    5  C   UNL     1      42.362 -15.367   3.888  1.00  0.00     0.051 A 
HETATM    6  C   UNL     1      41.970 -14.392   2.960  1.00  0.00     0.096 A 
ENDROOT
BRANCH   1   7
HETATM    7  N   UNL     1      41.698 -13.622   0.688  1.00  0.00    -0.324 N 
HETATM    8  C   UNL     1      40.547 -13.611  -0.076  1.00  0.00     0.228 C 
HETATM    9  O   UNL     1      39.723 -14.518  -0.147  1.00  0.00    -0.273 OA
HETATM   10  H   UNL     1      42.304 -12.808   0.667  1.00  0.00     0.169 HD
BRANCH   8  11
HETATM   11  C   UNL     1      40.369 -12.324  -0.866  1.00  0.00     0.107 C 
HETATM   12  C   UNL     1      40.410 -12.609  -2.363  1.00  0.00     0.190 C 
HETATM   13  O   UNL     1      40.113 -11.438  -3.129  1.00  0.00    -0.350 OA
HETATM   14  C   UNL     1      40.860 -10.344  -2.785  1.00  0.00     0.075 A 
HETATM   15  C   UNL     1      40.909  -9.317  -3.723  1.00  0.00     0.040 A 
HETATM   16  C   UNL     1      41.518 -10.214  -1.557  1.00  0.00    -0.021 A 
HETATM   17  C   UNL     1      41.640  -8.161  -3.452  1.00  0.00     0.039 A 
HETATM   18  C   UNL     1      42.313  -8.016  -2.238  1.00  0.00     0.068 A 
HETATM   19  C   UNL     1      42.256  -9.046  -1.295  1.00  0.00     0.046 A 
HETATM   20  C   UNL     1      41.468 -11.318  -0.535  1.00  0.00     0.058 C 
BRANCH  18  21
HETATM   21  O   UNL     1      42.987  -6.834  -2.100  1.00  0.00    -0.356 OA
HETATM   22  C   UNL     1      42.326  -5.658  -2.550  1.00  0.00     0.210 C 
ENDBRANCH  18  21
ENDBRANCH   8  11
ENDBRANCH   1   7
BRANCH   6  23
HETATM   23  O   UNL     1      41.416 -13.173   3.291  1.00  0.00    -0.349 OA
BRANCH  23  24
HETATM   24  C   UNL     1      40.750 -13.084   4.551  1.00  0.00     0.178 C 
BRANCH  24  25
HETATM   25  C   UNL     1      39.452 -12.305   4.375  1.00  0.00     0.053 C 
BRANCH  25  26
HETATM   26  C   UNL     1      38.939 -12.372   2.944  1.00  0.00     0.166 C 
BRANCH  26  27
HETATM   27  O   UNL     1      38.548 -13.705   2.636  1.00  0.00    -0.401 OA
HETATM   28  H   UNL     1      38.893 -14.285   3.335  1.00  0.00     0.209 HD
ENDBRANCH  26  27
ENDBRANCH  25  26
ENDBRANCH  24  25
ENDBRANCH  23  24
ENDBRANCH   6  23
BRANCH   4  29
HETATM   29  C   UNL     1      43.334 -17.599   4.417  1.00  0.00     0.010 A 
HETATM   30  C   UNL     1      44.006 -18.829   4.223  1.00  0.00     0.152 A 
HETATM   31  N   UNL     1      44.185 -19.506   5.360  1.00  0.00    -0.187 NA
HETATM   32  N   UNL     1      43.619 -18.718   6.286  1.00  0.00    -0.289 N 
HETATM   33  H   UNL     1      43.620 -19.034   7.251  1.00  0.00     0.188 HD
HETATM   34  C   UNL     1      43.096 -17.565   5.775  1.00  0.00     0.123 A 
ENDBRANCH   4  29
TORSDOF 9
ENDMDL
MODEL 2
REMARK VINA RESULT:      -7.5      5.647      8.959
REMARK  9 active torsions:
REMARK  status: ('A' for Active; 'I' for Inactive)
REMARK    1  A    between atoms: O_2  and  C_3 
REMARK    2  A    between atoms: C_9  and  C_13 
REMARK       I    between atoms: C_13  and  N_15 
REMARK    3  A    between atoms: N_15  and  C_16 
REMARK    4  A    between atoms: C_19  and  C_27 
REMARK    5  A    between atoms: C_21  and  O_22 
REMARK    6  A    between atoms: O_22  and  C_23 
REMARK    7  A    between atoms: C_23  and  C_24 
REMARK    8  A    between atoms: C_24  and  C_25 
REMARK    9  A    between atoms: C_25  and  O_26 
ROOT
HETATM    1  C   UNL     1      43.101 -14.014   6.347  1.00  0.00     0.068 A 
HETATM    2  C   UNL     1      43.822 -15.110   6.823  1.00  0.00     0.033 A 
HETATM    3  C   UNL     1      43.985 -16.252   6.032  1.00  0.00     0.015 A 
HETATM    4  C   UNL     1      43.431 -16.318   4.751  1.00  0.00    -0.020 A 
HETATM    5  C   UNL     1      42.696 -15.223   4.275  1.00  0.00     0.051 A 
HETATM    6  C   UNL     1      42.525 -14.075   5.061  1.00  0.00     0.096 A 
ENDROOT
BRANCH   1   7
HETATM    7  N   UNL     1      42.921 -12.818   7.085  1.00  0.00    -0.324 N 
HETATM    8  C   UNL     1      43.865 -11.850   7.372  1.00  0.00     0.228 C 
HETATM    9  O   UNL     1      45.054 -11.893   7.071  1.00  0.00    -0.273 OA
HETATM   10  H   UNL     1      41.963 -12.669   7.384  1.00  0.00     0.169 HD
BRANCH   8  11
HETATM   11  C   UNL     1      43.289 -10.665   8.131  1.00  0.00     0.107 C 
HETATM   12  C   UNL     1      43.858  -9.359   7.589  1.00  0.00     0.190 C 
HETATM   13  O   UNL     1      43.234  -8.223   8.194  1.00  0.00    -0.350 OA
HETATM   14  C   UNL     1      43.220  -8.258   9.562  1.00  0.00     0.075 A 
HETATM   15  C   UNL     1      43.000  -7.043  10.203  1.00  0.00     0.040 A 
HETATM   16  C   UNL     1      43.378  -9.434  10.305  1.00  0.00    -0.021 A 
HETATM   17  C   UNL     1      42.961  -6.988  11.596  1.00  0.00     0.039 A 
HETATM   18  C   UNL     1      43.127  -8.147  12.356  1.00  0.00     0.068 A 
HETATM   19  C   UNL     1      43.342  -9.367  11.709  1.00  0.00     0.046 A 
HETATM   20  C   UNL     1      43.614 -10.753   9.620  1.00  0.00     0.058 C 
BRANCH  18  21
HETATM   21  O   UNL     1      43.064  -7.953  13.709  1.00  0.00    -0.356 OA
HETATM   22  C   UNL     1      42.059  -8.667  14.416  1.00  0.00     0.210 C 
ENDBRANCH  18  21
ENDBRANCH   8  11
ENDBRANCH   1   7
BRANCH   6  23
HETATM   23  O   UNL     1      41.815 -12.958   4.674  1.00  0.00    -0.349 OA
BRANCH  23  24
HETATM   24  C   UNL     1      40.415 -13.129   4.444  1.00  0.00     0.178 C 
BRANCH  24  25
HETATM   25  C   UNL     1      39.700 -11.811   4.721  1.00  0.00     0.053 C 
BRANCH  25  26
HETATM   26  C   UNL     1      39.404 -11.626   6.202  1.00  0.00     0.166 C 
BRANCH  26  27
HETATM   27  O   UNL     1      39.803 -12.787   6.920  1.00  0.00    -0.401 OA
HETATM   28  H   UNL     1      39.689 -13.554   6.333  1.00  0.00     0.209 HD
ENDBRANCH  26  27
ENDBRANCH  25  26
ENDBRANCH  24  25
ENDBRANCH  23  24
ENDBRANCH   6  23
BRANCH   4  29
HETATM   29  C   UNL     1      43.615 -17.514   3.944  1.00  0.00     0.010 A 
HETATM   30  C   UNL     1      43.155 -17.831   2.644  1.00  0.00     0.152 A 
HETATM   31  N   UNL     1      43.519 -19.055   2.250  1.00  0.00    -0.187 NA
HETATM   32  N   UNL     1      44.205 -19.531   3.299  1.00  0.00    -0.289 N 
HETATM   33  H   UNL     1      44.581 -20.472   3.240  1.00  0.00     0.188 HD
HETATM   34  C   UNL     1      44.293 -18.649   4.338  1.00  0.00     0.123 A 
ENDBRANCH   4  29
TORSDOF 9
ENDMDL
MODEL 3
REMARK VINA RESULT:      -7.4      4.363      6.759
REMARK  9 active torsions:
REMARK  status: ('A' for Active; 'I' for Inactive)
REMARK    1  A    between atoms: O_2  and  C_3 
REMARK    2  A    between atoms: C_9  and  C_13 
REMARK       I    between atoms: C_13  and  N_15 
REMARK    3  A    between atoms: N_15  and  C_16 
REMARK    4  A    between atoms: C_19  and  C_27 
REMARK    5  A    between atoms: C_21  and  O_22 
REMARK    6  A    between atoms: O_22  and  C_23 
REMARK    7  A    between atoms: C_23  and  C_24 
REMARK    8  A    between atoms: C_24  and  C_25 
REMARK    9  A    between atoms: C_25  and  O_26 
ROOT
HETATM    1  C   UNL     1      42.828 -15.150   4.622  1.00  0.00     0.068 A 
HETATM    2  C   UNL     1      43.099 -16.095   5.613  1.00  0.00     0.033 A 
HETATM    3  C   UNL     1      43.386 -17.421   5.272  1.00  0.00     0.015 A 
HETATM    4  C   UNL     1      43.410 -17.825   3.934  1.00  0.00    -0.020 A 
HETATM    5  C   UNL     1      43.128 -16.881   2.937  1.00  0.00     0.051 A 
HETATM    6  C   UNL     1      42.836 -15.550   3.270  1.00  0.00     0.096 A 
ENDROOT
BRANCH   1   7
HETATM    7  N   UNL     1      42.557 -13.788   4.896  1.00  0.00    -0.324 N 
HETATM    8  C   UNL     1      41.351 -13.221   5.263  1.00  0.00     0.228 C 
HETATM    9  O   UNL     1      40.280 -13.812   5.365  1.00  0.00    -0.273 OA
HETATM   10  H   UNL     1      43.380 -13.195   4.850  1.00  0.00     0.169 HD
BRANCH   8  11
HETATM   11  C   UNL     1      41.456 -11.731   5.546  1.00  0.00     0.107 C 
HETATM   12  C   UNL     1      42.721 -11.427   6.340  1.00  0.00     0.190 C 
HETATM   13  O   UNL     1      42.913 -10.019   6.505  1.00  0.00    -0.350 OA
HETATM   14  C   UNL     1      41.818  -9.362   6.996  1.00  0.00     0.075 A 
HETATM   15  C   UNL     1      42.055  -8.104   7.543  1.00  0.00     0.040 A 
HETATM   16  C   UNL     1      40.518  -9.877   6.937  1.00  0.00    -0.021 A 
HETATM   17  C   UNL     1      40.994  -7.360   8.060  1.00  0.00     0.039 A 
HETATM   18  C   UNL     1      39.692  -7.859   8.020  1.00  0.00     0.068 A 
HETATM   19  C   UNL     1      39.457  -9.120   7.465  1.00  0.00     0.046 A 
HETATM   20  C   UNL     1      40.254 -11.235   6.345  1.00  0.00     0.058 C 
BRANCH  18  21
HETATM   21  O   UNL     1      38.748  -7.027   8.557  1.00  0.00    -0.356 OA
HETATM   22  C   UNL     1      38.834  -6.770   9.952  1.00  0.00     0.210 C 
ENDBRANCH  18  21
ENDBRANCH   8  11
ENDBRANCH   1   7
BRANCH   6  23
HETATM   23  O   UNL     1      42.541 -14.560   2.355  1.00  0.00    -0.349 OA
BRANCH  23  24
HETATM   24  C   UNL     1      41.737 -14.931   1.234  1.00  0.00     0.178 C 
BRANCH  24  25
HETATM   25  C   UNL     1      40.272 -14.944   1.655  1.00  0.00     0.053 C 
BRANCH  25  26
HETATM   26  C   UNL     1      39.740 -13.539   1.901  1.00  0.00     0.166 C 
BRANCH  26  27
HETATM   27  O   UNL     1      38.671 -13.588   2.839  1.00  0.00    -0.401 OA
HETATM   28  H   UNL     1      39.008 -13.998   3.653  1.00  0.00     0.209 HD
ENDBRANCH  26  27
ENDBRANCH  25  26
ENDBRANCH  24  25
ENDBRANCH  23  24
ENDBRANCH   6  23
BRANCH   4  29
HETATM   29  C   UNL     1      43.714 -19.208   3.602  1.00  0.00     0.010 A 
HETATM   30  C   UNL     1      43.678 -19.890   2.362  1.00  0.00     0.152 A 
HETATM   31  N   UNL     1      44.011 -21.178   2.470  1.00  0.00    -0.187 NA
HETATM   32  N   UNL     1      44.252 -21.331   3.780  1.00  0.00    -0.289 N 
HETATM   33  H   UNL     1      44.518 -22.252   4.116  1.00  0.00     0.188 HD
HETATM   34  C   UNL     1      44.090 -20.183   4.502  1.00  0.00     0.123 A 
ENDBRANCH   4  29
TORSDOF 9
ENDMDL
MODEL 4
REMARK VINA RESULT:      -7.3      4.052      8.238
REMARK  9 active torsions:
REMARK  status: ('A' for Active; 'I' for Inactive)
REMARK    1  A    between atoms: O_2  and  C_3 
REMARK    2  A    between atoms: C_9  and  C_13 
REMARK       I    between atoms: C_13  and  N_15 
REMARK    3  A    between atoms: N_15  and  C_16 
REMARK    4  A    between atoms: C_19  and  C_27 
REMARK    5  A    between atoms: C_21  and  O_22 
REMARK    6  A    between atoms: O_22  and  C_23 
REMARK    7  A    between atoms: C_23  and  C_24 
REMARK    8  A    between atoms: C_24  and  C_25 
REMARK    9  A    between atoms: C_25  and  O_26 
ROOT
HETATM    1  C   UNL     1      41.542 -12.253   1.373  1.00  0.00     0.068 A 
HETATM    2  C   UNL     1      41.061 -11.509   0.294  1.00  0.00     0.033 A 
HETATM    3  C   UNL     1      40.334 -12.128  -0.729  1.00  0.00     0.015 A 
HETATM    4  C   UNL     1      40.075 -13.501  -0.691  1.00  0.00    -0.020 A 
HETATM    5  C   UNL     1      40.566 -14.253   0.386  1.00  0.00     0.051 A 
HETATM    6  C   UNL     1      41.298 -13.642   1.415  1.00  0.00     0.096 A 
ENDROOT
BRANCH   1   7
HETATM    7  N   UNL     1      42.260 -11.686   2.453  1.00  0.00    -0.324 N 
HETATM    8  C   UNL     1      41.749 -11.118   3.605  1.00  0.00     0.228 C 
HETATM    9  O   UNL     1      40.560 -10.964   3.864  1.00  0.00    -0.273 OA
HETATM   10  H   UNL     1      43.267 -11.762   2.352  1.00  0.00     0.169 HD
BRANCH   8  11
HETATM   11  C   UNL     1      42.830 -10.674   4.579  1.00  0.00     0.107 C 
HETATM   12  C   UNL     1      43.983 -11.672   4.584  1.00  0.00     0.190 C 
HETATM   13  O   UNL     1      45.071 -11.212   5.391  1.00  0.00    -0.350 OA
HETATM   14  C   UNL     1      44.706 -10.829   6.653  1.00  0.00     0.075 A 
HETATM   15  C   UNL     1      45.731 -10.756   7.591  1.00  0.00     0.040 A 
HETATM   16  C   UNL     1      43.395 -10.489   7.007  1.00  0.00    -0.021 A 
HETATM   17  C   UNL     1      45.450 -10.366   8.900  1.00  0.00     0.039 A 
HETATM   18  C   UNL     1      44.148 -10.032   9.277  1.00  0.00     0.068 A 
HETATM   19  C   UNL     1      43.122 -10.102   8.331  1.00  0.00     0.046 A 
HETATM   20  C   UNL     1      42.280 -10.563   5.998  1.00  0.00     0.058 C 
BRANCH  18  21
HETATM   21  O   UNL     1      44.013  -9.665  10.587  1.00  0.00    -0.356 OA
HETATM   22  C   UNL     1      42.834 -10.091  11.258  1.00  0.00     0.210 C 
ENDBRANCH  18  21
ENDBRANCH   8  11
ENDBRANCH   1   7
BRANCH   6  23
HETATM   23  O   UNL     1      41.823 -14.305   2.504  1.00  0.00    -0.349 OA
BRANCH  23  24
HETATM   24  C   UNL     1      41.109 -15.452   2.970  1.00  0.00     0.178 C 
BRANCH  24  25
HETATM   25  C   UNL     1      41.267 -15.557   4.483  1.00  0.00     0.053 C 
BRANCH  25  26
HETATM   26  C   UNL     1      40.800 -14.293   5.192  1.00  0.00     0.166 C 
BRANCH  26  27
HETATM   27  O   UNL     1      39.669 -13.755   4.517  1.00  0.00    -0.401 OA
HETATM   28  H   UNL     1      39.289 -14.458   3.965  1.00  0.00     0.209 HD
ENDBRANCH  26  27
ENDBRANCH  25  26
ENDBRANCH  24  25
ENDBRANCH  23  24
ENDBRANCH   6  23
BRANCH   4  29
HETATM   29  C   UNL     1      39.314 -14.123  -1.763  1.00  0.00     0.010 A 
HETATM   30  C   UNL     1      38.638 -13.554  -2.868  1.00  0.00     0.152 A 
HETATM   31  N   UNL     1      38.029 -14.467  -3.629  1.00  0.00    -0.187 NA
HETATM   32  N   UNL     1      38.302 -15.624  -3.009  1.00  0.00    -0.289 N 
HETATM   33  H   UNL     1      37.926 -16.481  -3.404  1.00  0.00     0.188 HD
HETATM   34  C   UNL     1      39.068 -15.475  -1.889  1.00  0.00     0.123 A 
ENDBRANCH   4  29
TORSDOF 9
ENDMDL
MODEL 5
REMARK VINA RESULT:      -7.3      7.211     10.313
REMARK  9 active torsions:
REMARK  status: ('A' for Active; 'I' for Inactive)
REMARK    1  A    between atoms: O_2  and  C_3 
REMARK    2  A    between atoms: C_9  and  C_13 
REMARK       I    between atoms: C_13  and  N_15 
REMARK    3  A    between atoms: N_15  and  C_16 
REMARK    4  A    between atoms: C_19  and  C_27 
REMARK    5  A    between atoms: C_21  and  O_22 
REMARK    6  A    between atoms: O_22  and  C_23 
REMARK    7  A    between atoms: C_23  and  C_24 
REMARK    8  A    between atoms: C_24  and  C_25 
REMARK    9  A    between atoms: C_25  and  O_26 
ROOT
HETATM    1  C   UNL     1      43.200 -10.123   9.954  1.00  0.00     0.068 A 
HETATM    2  C   UNL     1      43.555 -10.745  11.152  1.00  0.00     0.033 A 
HETATM    3  C   UNL     1      43.299 -10.124  12.378  1.00  0.00     0.015 A 
HETATM    4  C   UNL     1      42.682  -8.871  12.430  1.00  0.00    -0.020 A 
HETATM    5  C   UNL     1      42.334  -8.239  11.227  1.00  0.00     0.051 A 
HETATM    6  C   UNL     1      42.590  -8.853   9.993  1.00  0.00     0.096 A 
ENDROOT
BRANCH   1   7
HETATM    7  N   UNL     1      43.407 -10.708   8.681  1.00  0.00    -0.324 N 
HETATM    8  C   UNL     1      44.605 -11.086   8.106  1.00  0.00     0.228 C 
HETATM    9  O   UNL     1      45.719 -10.927   8.596  1.00  0.00    -0.273 OA
HETATM   10  H   UNL     1      42.545 -10.895   8.178  1.00  0.00     0.169 HD
BRANCH   8  11
HETATM   11  C   UNL     1      44.431 -11.747   6.748  1.00  0.00     0.107 C 
HETATM   12  C   UNL     1      43.506 -10.916   5.866  1.00  0.00     0.190 C 
HETATM   13  O   UNL     1      43.430 -11.445   4.539  1.00  0.00    -0.350 OA
HETATM   14  C   UNL     1      43.138 -12.781   4.488  1.00  0.00     0.075 A 
HETATM   15  C   UNL     1      42.667 -13.258   3.269  1.00  0.00     0.040 A 
HETATM   16  C   UNL     1      43.325 -13.654   5.567  1.00  0.00    -0.021 A 
HETATM   17  C   UNL     1      42.353 -14.609   3.125  1.00  0.00     0.039 A 
HETATM   18  C   UNL     1      42.521 -15.494   4.191  1.00  0.00     0.068 A 
HETATM   19  C   UNL     1      43.000 -15.013   5.413  1.00  0.00     0.046 A 
HETATM   20  C   UNL     1      43.836 -13.146   6.889  1.00  0.00     0.058 C 
BRANCH  18  21
HETATM   21  O   UNL     1      42.179 -16.789   3.914  1.00  0.00    -0.356 OA
HETATM   22  C   UNL     1      42.865 -17.422   2.842  1.00  0.00     0.210 C 
ENDBRANCH  18  21
ENDBRANCH   8  11
ENDBRANCH   1   7
BRANCH   6  23
HETATM   23  O   UNL     1      42.287  -8.301   8.765  1.00  0.00    -0.349 OA
BRANCH  23  24
HETATM   24  C   UNL     1      41.201  -7.374   8.722  1.00  0.00     0.178 C 
BRANCH  24  25
HETATM   25  C   UNL     1      40.027  -8.016   7.990  1.00  0.00     0.053 C 
BRANCH  25  26
HETATM   26  C   UNL     1      40.485  -9.097   7.021  1.00  0.00     0.166 C 
BRANCH  26  27
HETATM   27  O   UNL     1      40.481 -10.360   7.674  1.00  0.00    -0.401 OA
HETATM   28  H   UNL     1      39.561 -10.573   7.905  1.00  0.00     0.209 HD
ENDBRANCH  26  27
ENDBRANCH  25  26
ENDBRANCH  24  25
ENDBRANCH  23  24
ENDBRANCH   6  23
BRANCH   4  29
HETATM   29  C   UNL     1      42.421  -8.245  13.716  1.00  0.00     0.010 A 
HETATM   30  C   UNL     1      43.004  -7.109  14.327  1.00  0.00     0.152 A 
HETATM   31  N   UNL     1      42.504  -6.859  15.539  1.00  0.00    -0.187 NA
HETATM   32  N   UNL     1      41.606  -7.839  15.717  1.00  0.00    -0.289 N 
HETATM   33  H   UNL     1      41.092  -7.867  16.592  1.00  0.00     0.188 HD
HETATM   34  C   UNL     1      41.516  -8.694  14.655  1.00  0.00     0.123 A 
ENDBRANCH   4  29
TORSDOF 9
ENDMDL
MODEL 6
REMARK VINA RESULT:      -7.2      7.251     10.156
REMARK  9 active torsions:
REMARK  status: ('A' for Active; 'I' for Inactive)
REMARK    1  A    between atoms: O_2  and  C_3 
REMARK    2  A    between atoms: C_9  and  C_13 
REMARK       I    between atoms: C_13  and  N_15 
REMARK    3  A    between atoms: N_15  and  C_16 
REMARK    4  A    between atoms: C_19  and  C_27 
REMARK    5  A    between atoms: C_21  and  O_22 
REMARK    6  A    between atoms: O_22  and  C_23 
REMARK    7  A    between atoms: C_23  and  C_24 
REMARK    8  A    between atoms: C_24  and  C_25 
REMARK    9  A    between atoms: C_25  and  O_26 
ROOT
HETATM    1  C   UNL     1      42.751  -9.795   9.634  1.00  0.00     0.068 A 
HETATM    2  C   UNL     1      41.515  -9.556  10.236  1.00  0.00     0.033 A 
HETATM    3  C   UNL     1      41.443  -9.015  11.524  1.00  0.00     0.015 A 
HETATM    4  C   UNL     1      42.606  -8.701  12.232  1.00  0.00    -0.020 A 
HETATM    5  C   UNL     1      43.850  -8.950  11.635  1.00  0.00     0.051 A 
HETATM    6  C   UNL     1      43.932  -9.495  10.345  1.00  0.00     0.096 A 
ENDROOT
BRANCH   1   7
HETATM    7  N   UNL     1      42.895 -10.315   8.325  1.00  0.00    -0.324 N 
HETATM    8  C   UNL     1      42.564  -9.705   7.130  1.00  0.00     0.228 C 
HETATM    9  O   UNL     1      42.032  -8.606   7.007  1.00  0.00    -0.273 OA
HETATM   10  H   UNL     1      43.336 -11.229   8.300  1.00  0.00     0.169 HD
BRANCH   8  11
HETATM   11  C   UNL     1      42.926 -10.544   5.914  1.00  0.00     0.107 C 
HETATM   12  C   UNL     1      42.039 -10.175   4.731  1.00  0.00     0.190 C 
HETATM   13  O   UNL     1      42.445 -10.853   3.538  1.00  0.00    -0.350 OA
HETATM   14  C   UNL     1      42.582 -12.207   3.687  1.00  0.00     0.075 A 
HETATM   15  C   UNL     1      42.582 -12.954   2.513  1.00  0.00     0.040 A 
HETATM   16  C   UNL     1      42.751 -12.834   4.927  1.00  0.00    -0.021 A 
HETATM   17  C   UNL     1      42.725 -14.340   2.570  1.00  0.00     0.039 A 
HETATM   18  C   UNL     1      42.884 -14.986   3.797  1.00  0.00     0.068 A 
HETATM   19  C   UNL     1      42.890 -14.232   4.974  1.00  0.00     0.046 A 
HETATM   20  C   UNL     1      42.755 -12.033   6.201  1.00  0.00     0.058 C 
BRANCH  18  21
HETATM   21  O   UNL     1      43.017 -16.345   3.710  1.00  0.00    -0.356 OA
HETATM   22  C   UNL     1      43.265 -16.887   2.419  1.00  0.00     0.210 C 
ENDBRANCH  18  21
ENDBRANCH   8  11
ENDBRANCH   1   7
BRANCH   6  23
HETATM   23  O   UNL     1      45.111  -9.778   9.687  1.00  0.00    -0.349 OA
BRANCH  23  24
HETATM   24  C   UNL     1      45.670  -8.736   8.884  1.00  0.00     0.178 C 
BRANCH  24  25
HETATM   25  C   UNL     1      46.548  -9.357   7.804  1.00  0.00     0.053 C 
BRANCH  25  26
HETATM   26  C   UNL     1      46.215 -10.824   7.575  1.00  0.00     0.166 C 
BRANCH  26  27
HETATM   27  O   UNL     1      46.403 -11.150   6.203  1.00  0.00    -0.401 OA
HETATM   28  H   UNL     1      47.111 -10.581   5.856  1.00  0.00     0.209 HD
ENDBRANCH  26  27
ENDBRANCH  25  26
ENDBRANCH  24  25
ENDBRANCH  23  24
ENDBRANCH   6  23
BRANCH   4  29
HETATM   29  C   UNL     1      42.509  -8.136  13.569  1.00  0.00     0.010 A 
HETATM   30  C   UNL     1      41.730  -8.527  14.684  1.00  0.00     0.152 A 
HETATM   31  N   UNL     1      41.903  -7.731  15.742  1.00  0.00    -0.187 NA
HETATM   32  N   UNL     1      42.786  -6.820  15.307  1.00  0.00    -0.289 N 
HETATM   33  H   UNL     1      43.072  -6.084  15.946  1.00  0.00     0.188 HD
HETATM   34  C   UNL     1      43.181  -7.017  14.015  1.00  0.00     0.123 A 
ENDBRANCH   4  29
TORSDOF 9
ENDMDL
MODEL 7
REMARK VINA RESULT:      -7.1      2.109      2.911
REMARK  9 active torsions:
REMARK  status: ('A' for Active; 'I' for Inactive)
REMARK    1  A    between atoms: O_2  and  C_3 
REMARK    2  A    between atoms: C_9  and  C_13 
REMARK       I    between atoms: C_13  and  N_15 
REMARK    3  A    between atoms: N_15  and  C_16 
REMARK    4  A    between atoms: C_19  and  C_27 
REMARK    5  A    between atoms: C_21  and  O_22 
REMARK    6  A    between atoms: O_22  and  C_23 
REMARK    7  A    between atoms: C_23  and  C_24 
REMARK    8  A    between atoms: C_24  and  C_25 
REMARK    9  A    between atoms: C_25  and  O_26 
ROOT
HETATM    1  C   UNL     1      42.895 -14.940   2.670  1.00  0.00     0.068 A 
HETATM    2  C   UNL     1      42.919 -15.877   1.635  1.00  0.00     0.033 A 
HETATM    3  C   UNL     1      43.201 -17.221   1.899  1.00  0.00     0.015 A 
HETATM    4  C   UNL     1      43.462 -17.654   3.201  1.00  0.00    -0.020 A 
HETATM    5  C   UNL     1      43.450 -16.714   4.242  1.00  0.00     0.051 A 
HETATM    6  C   UNL     1      43.171 -15.364   3.987  1.00  0.00     0.096 A 
ENDROOT
BRANCH   1   7
HETATM    7  N   UNL     1      42.591 -13.571   2.477  1.00  0.00    -0.324 N 
HETATM    8  C   UNL     1      41.345 -12.993   2.325  1.00  0.00     0.228 C 
HETATM    9  O   UNL     1      40.275 -13.592   2.282  1.00  0.00    -0.273 OA
HETATM   10  H   UNL     1      43.408 -12.969   2.502  1.00  0.00     0.169 HD
BRANCH   8  11
HETATM   11  C   UNL     1      41.403 -11.478   2.209  1.00  0.00     0.107 C 
HETATM   12  C   UNL     1      40.102 -10.857   2.704  1.00  0.00     0.190 C 
HETATM   13  O   UNL     1      40.178  -9.428   2.730  1.00  0.00    -0.350 OA
HETATM   14  C   UNL     1      40.608  -8.873   1.556  1.00  0.00     0.075 A 
HETATM   15  C   UNL     1      40.331  -7.520   1.382  1.00  0.00     0.040 A 
HETATM   16  C   UNL     1      41.319  -9.582   0.581  1.00  0.00    -0.021 A 
HETATM   17  C   UNL     1      40.741  -6.870   0.218  1.00  0.00     0.039 A 
HETATM   18  C   UNL     1      41.442  -7.561  -0.771  1.00  0.00     0.068 A 
HETATM   19  C   UNL     1      41.723  -8.918  -0.591  1.00  0.00     0.046 A 
HETATM   20  C   UNL     1      41.625 -11.045   0.762  1.00  0.00     0.058 C 
BRANCH  18  21
HETATM   21  O   UNL     1      41.785  -6.805  -1.858  1.00  0.00    -0.356 OA
HETATM   22  C   UNL     1      43.153  -6.436  -1.980  1.00  0.00     0.210 C 
ENDBRANCH  18  21
ENDBRANCH   8  11
ENDBRANCH   1   7
BRANCH   6  23
HETATM   23  O   UNL     1      43.145 -14.374   4.948  1.00  0.00    -0.349 OA
BRANCH  23  24
HETATM   24  C   UNL     1      42.447 -14.666   6.160  1.00  0.00     0.178 C 
BRANCH  24  25
HETATM   25  C   UNL     1      40.947 -14.630   5.893  1.00  0.00     0.053 C 
BRANCH  25  26
HETATM   26  C   UNL     1      40.384 -13.220   6.002  1.00  0.00     0.166 C 
BRANCH  26  27
HETATM   27  O   UNL     1      39.263 -13.083   5.137  1.00  0.00    -0.401 OA
HETATM   28  H   UNL     1      39.594 -13.044   4.224  1.00  0.00     0.209 HD
ENDBRANCH  26  27
ENDBRANCH  25  26
ENDBRANCH  24  25
ENDBRANCH  23  24
ENDBRANCH   6  23
BRANCH   4  29
HETATM   29  C   UNL     1      43.749 -19.058   3.453  1.00  0.00     0.010 A 
HETATM   30  C   UNL     1      43.586 -20.197   2.629  1.00  0.00     0.152 A 
HETATM   31  N   UNL     1      43.948 -21.330   3.236  1.00  0.00    -0.187 NA
HETATM   32  N   UNL     1      44.336 -20.925   4.454  1.00  0.00    -0.289 N 
HETATM   33  H   UNL     1      44.651 -21.626   5.116  1.00  0.00     0.188 HD
HETATM   34  C   UNL     1      44.237 -19.574   4.635  1.00  0.00     0.123 A 
ENDBRANCH   4  29
TORSDOF 9
ENDMDL
MODEL 8
REMARK VINA RESULT:      -7.0      2.987      4.262
REMARK  9 active torsions:
REMARK  status: ('A' for Active; 'I' for Inactive)
REMARK    1  A    between atoms: O_2  and  C_3 
REMARK    2  A    between atoms: C_9  and  C_13 
REMARK       I    between atoms: C_13  and  N_15 
REMARK    3  A    between atoms: N_15  and  C_16 
REMARK    4  A    between atoms: C_19  and  C_27 
REMARK    5  A    between atoms: C_21  and  O_22 
REMARK    6  A    between atoms: O_22  and  C_23 
REMARK    7  A    between atoms: C_23  and  C_24 
REMARK    8  A    between atoms: C_24  and  C_25 
REMARK    9  A    between atoms: C_25  and  O_26 
ROOT
HETATM    1  C   UNL     1      42.170 -15.101   2.433  1.00  0.00     0.068 A 
HETATM    2  C   UNL     1      43.013 -15.769   1.543  1.00  0.00     0.033 A 
HETATM    3  C   UNL     1      43.457 -17.065   1.822  1.00  0.00     0.015 A 
HETATM    4  C   UNL     1      43.066 -17.718   2.994  1.00  0.00    -0.020 A 
HETATM    5  C   UNL     1      42.228 -17.046   3.895  1.00  0.00     0.051 A 
HETATM    6  C   UNL     1      41.780 -15.744   3.626  1.00  0.00     0.096 A 
ENDROOT
BRANCH   1   7
HETATM    7  N   UNL     1      41.662 -13.800   2.200  1.00  0.00    -0.324 N 
HETATM    8  C   UNL     1      40.703 -13.416   1.281  1.00  0.00     0.228 C 
HETATM    9  O   UNL     1      40.158 -14.150   0.463  1.00  0.00    -0.273 OA
HETATM   10  H   UNL     1      42.041 -13.100   2.830  1.00  0.00     0.169 HD
BRANCH   8  11
HETATM   11  C   UNL     1      40.358 -11.938   1.364  1.00  0.00     0.107 C 
HETATM   12  C   UNL     1      41.628 -11.099   1.452  1.00  0.00     0.190 C 
HETATM   13  O   UNL     1      41.339  -9.700   1.398  1.00  0.00    -0.350 OA
HETATM   14  C   UNL     1      40.382  -9.294   2.289  1.00  0.00     0.075 A 
HETATM   15  C   UNL     1      40.340  -7.930   2.562  1.00  0.00     0.040 A 
HETATM   16  C   UNL     1      39.460 -10.165   2.882  1.00  0.00    -0.021 A 
HETATM   17  C   UNL     1      39.391  -7.428   3.453  1.00  0.00     0.039 A 
HETATM   18  C   UNL     1      38.470  -8.281   4.063  1.00  0.00     0.068 A 
HETATM   19  C   UNL     1      38.511  -9.649   3.782  1.00  0.00     0.046 A 
HETATM   20  C   UNL     1      39.497 -11.641   2.590  1.00  0.00     0.058 C 
BRANCH  18  21
HETATM   21  O   UNL     1      37.595  -7.658   4.910  1.00  0.00    -0.356 OA
HETATM   22  C   UNL     1      38.141  -7.071   6.084  1.00  0.00     0.210 C 
ENDBRANCH  18  21
ENDBRANCH   8  11
ENDBRANCH   1   7
BRANCH   6  23
HETATM   23  O   UNL     1      40.961 -15.009   4.458  1.00  0.00    -0.349 OA
BRANCH  23  24
HETATM   24  C   UNL     1      41.486 -14.661   5.740  1.00  0.00     0.178 C 
BRANCH  24  25
HETATM   25  C   UNL     1      41.628 -13.145   5.825  1.00  0.00     0.053 C 
BRANCH  25  26
HETATM   26  C   UNL     1      40.287 -12.460   6.049  1.00  0.00     0.166 C 
BRANCH  26  27
HETATM   27  O   UNL     1      39.261 -13.439   6.156  1.00  0.00    -0.401 OA
HETATM   28  H   UNL     1      39.476 -14.164   5.544  1.00  0.00     0.209 HD
ENDBRANCH  26  27
ENDBRANCH  25  26
ENDBRANCH  24  25
ENDBRANCH  23  24
ENDBRANCH   6  23
BRANCH   4  29
HETATM   29  C   UNL     1      43.537 -19.068   3.262  1.00  0.00     0.010 A 
HETATM   30  C   UNL     1      43.526 -20.229   2.453  1.00  0.00     0.152 A 
HETATM   31  N   UNL     1      44.036 -21.296   3.072  1.00  0.00    -0.187 NA
HETATM   32  N   UNL     1      44.367 -20.828   4.284  1.00  0.00    -0.289 N 
HETATM   33  H   UNL     1      44.773 -21.474   4.954  1.00  0.00     0.188 HD
HETATM   34  C   UNL     1      44.090 -19.501   4.449  1.00  0.00     0.123 A 
ENDBRANCH   4  29
TORSDOF 9
ENDMDL
MODEL 9
REMARK VINA RESULT:      -7.0     16.348     18.551
REMARK  9 active torsions:
REMARK  status: ('A' for Active; 'I' for Inactive)
REMARK    1  A    between atoms: O_2  and  C_3 
REMARK    2  A    between atoms: C_9  and  C_13 
REMARK       I    between atoms: C_13  and  N_15 
REMARK    3  A    between atoms: N_15  and  C_16 
REMARK    4  A    between atoms: C_19  and  C_27 
REMARK    5  A    between atoms: C_21  and  O_22 
REMARK    6  A    between atoms: O_22  and  C_23 
REMARK    7  A    between atoms: C_23  and  C_24 
REMARK    8  A    between atoms: C_24  and  C_25 
REMARK    9  A    between atoms: C_25  and  O_26 
ROOT
HETATM    1  C   UNL     1      49.026 -30.207   2.093  1.00  0.00     0.068 A 
HETATM    2  C   UNL     1      50.378 -29.929   2.297  1.00  0.00     0.033 A 
HETATM    3  C   UNL     1      51.037 -30.400   3.437  1.00  0.00     0.015 A 
HETATM    4  C   UNL     1      50.357 -31.159   4.393  1.00  0.00    -0.020 A 
HETATM    5  C   UNL     1      48.995 -31.431   4.196  1.00  0.00     0.051 A 
HETATM    6  C   UNL     1      48.325 -30.961   3.058  1.00  0.00     0.096 A 
ENDROOT
BRANCH   1   7
HETATM    7  N   UNL     1      48.306 -29.784   0.949  1.00  0.00    -0.324 N 
HETATM    8  C   UNL     1      47.594 -28.612   0.781  1.00  0.00     0.228 C 
HETATM    9  O   UNL     1      47.423 -27.747   1.635  1.00  0.00    -0.273 OA
HETATM   10  H   UNL     1      48.381 -30.425   0.166  1.00  0.00     0.169 HD
BRANCH   8  11
HETATM   11  C   UNL     1      47.007 -28.467  -0.613  1.00  0.00     0.107 C 
HETATM   12  C   UNL     1      45.535 -28.075  -0.533  1.00  0.00     0.190 C 
HETATM   13  O   UNL     1      44.992 -27.803  -1.828  1.00  0.00    -0.350 OA
HETATM   14  C   UNL     1      45.220 -28.792  -2.746  1.00  0.00     0.075 A 
HETATM   15  C   UNL     1      44.404 -28.780  -3.873  1.00  0.00     0.040 A 
HETATM   16  C   UNL     1      46.228 -29.754  -2.611  1.00  0.00    -0.021 A 
HETATM   17  C   UNL     1      44.571 -29.747  -4.864  1.00  0.00     0.039 A 
HETATM   18  C   UNL     1      45.563 -30.721  -4.744  1.00  0.00     0.068 A 
HETATM   19  C   UNL     1      46.385 -30.727  -3.613  1.00  0.00     0.046 A 
HETATM   20  C   UNL     1      47.116 -29.773  -1.396  1.00  0.00     0.058 C 
BRANCH  18  21
HETATM   21  O   UNL     1      45.621 -31.605  -5.786  1.00  0.00    -0.356 OA
HETATM   22  C   UNL     1      44.592 -31.517  -6.763  1.00  0.00     0.210 C 
ENDBRANCH  18  21
ENDBRANCH   8  11
ENDBRANCH   1   7
BRANCH   6  23
HETATM   23  O   UNL     1      46.990 -31.176   2.789  1.00  0.00    -0.349 OA
BRANCH  23  24
HETATM   24  C   UNL     1      46.060 -30.849   3.824  1.00  0.00     0.178 C 
BRANCH  24  25
HETATM   25  C   UNL     1      44.643 -31.088   3.314  1.00  0.00     0.053 C 
BRANCH  25  26
HETATM   26  C   UNL     1      44.101 -29.885   2.556  1.00  0.00     0.166 C 
BRANCH  26  27
HETATM   27  O   UNL     1      44.859 -28.728   2.887  1.00  0.00    -0.401 OA
HETATM   28  H   UNL     1      45.627 -29.015   3.410  1.00  0.00     0.209 HD
ENDBRANCH  26  27
ENDBRANCH  25  26
ENDBRANCH  24  25
ENDBRANCH  23  24
ENDBRANCH   6  23
BRANCH   4  29
HETATM   29  C   UNL     1      51.062 -31.642   5.569  1.00  0.00     0.010 A 
HETATM   30  C   UNL     1      52.271 -31.209   6.165  1.00  0.00     0.152 A 
HETATM   31  N   UNL     1      52.607 -31.930   7.238  1.00  0.00    -0.187 NA
HETATM   32  N   UNL     1      51.621 -32.834   7.330  1.00  0.00    -0.289 N 
HETATM   33  H   UNL     1      51.663 -33.516   8.080  1.00  0.00     0.188 HD
HETATM   34  C   UNL     1      50.671 -32.705   6.356  1.00  0.00     0.123 A 
ENDBRANCH   4  29
TORSDOF 9
ENDMDL
MODEL 10
REMARK VINA RESULT:      -6.9      1.269      1.683
REMARK  9 active torsions:
REMARK  status: ('A' for Active; 'I' for Inactive)
REMARK    1  A    between atoms: O_2  and  C_3 
REMARK    2  A    between atoms: C_9  and  C_13 
REMARK       I    between atoms: C_13  and  N_15 
REMARK    3  A    between atoms: N_15  and  C_16 
REMARK    4  A    between atoms: C_19  and  C_27 
REMARK    5  A    between atoms: C_21  and  O_22 
REMARK    6  A    between atoms: O_22  and  C_23 
REMARK    7  A    between atoms: C_23  and  C_24 
REMARK    8  A    between atoms: C_24  and  C_25 
REMARK    9  A    between atoms: C_25  and  O_26 
ROOT
HETATM    1  C   UNL     1      42.165 -14.288   1.668  1.00  0.00     0.068 A 
HETATM    2  C   UNL     1      42.272 -15.616   1.253  1.00  0.00     0.033 A 
HETATM    3  C   UNL     1      42.655 -16.615   2.154  1.00  0.00     0.015 A 
HETATM    4  C   UNL     1      42.936 -16.304   3.487  1.00  0.00    -0.020 A 
HETATM    5  C   UNL     1      42.839 -14.969   3.905  1.00  0.00     0.051 A 
HETATM    6  C   UNL     1      42.459 -13.960   3.008  1.00  0.00     0.096 A 
ENDROOT
BRANCH   1   7
HETATM    7  N   UNL     1      41.757 -13.234   0.815  1.00  0.00    -0.324 N 
HETATM    8  C   UNL     1      40.468 -12.871   0.473  1.00  0.00     0.228 C 
HETATM    9  O   UNL     1      39.443 -13.448   0.821  1.00  0.00    -0.273 OA
HETATM   10  H   UNL     1      42.530 -12.675   0.467  1.00  0.00     0.169 HD
BRANCH   8  11
HETATM   11  C   UNL     1      40.414 -11.639  -0.416  1.00  0.00     0.107 C 
HETATM   12  C   UNL     1      40.583 -12.031  -1.880  1.00  0.00     0.190 C 
HETATM   13  O   UNL     1      40.404 -10.908  -2.748  1.00  0.00    -0.350 OA
HETATM   14  C   UNL     1      41.156  -9.816  -2.409  1.00  0.00     0.075 A 
HETATM   15  C   UNL     1      41.330  -8.861  -3.406  1.00  0.00     0.040 A 
HETATM   16  C   UNL     1      41.702  -9.620  -1.135  1.00  0.00    -0.021 A 
HETATM   17  C   UNL     1      42.076  -7.712  -3.145  1.00  0.00     0.039 A 
HETATM   18  C   UNL     1      42.638  -7.502  -1.885  1.00  0.00     0.068 A 
HETATM   19  C   UNL     1      42.456  -8.460  -0.885  1.00  0.00     0.046 A 
HETATM   20  C   UNL     1      41.515 -10.647  -0.051  1.00  0.00     0.058 C 
BRANCH  18  21
HETATM   21  O   UNL     1      43.341  -6.335  -1.764  1.00  0.00    -0.356 OA
HETATM   22  C   UNL     1      42.819  -5.195  -2.435  1.00  0.00     0.210 C 
ENDBRANCH  18  21
ENDBRANCH   8  11
ENDBRANCH   1   7
BRANCH   6  23
HETATM   23  O   UNL     1      42.345 -12.624   3.332  1.00  0.00    -0.349 OA
BRANCH  23  24
HETATM   24  C   UNL     1      43.561 -11.895   3.510  1.00  0.00     0.178 C 
BRANCH  24  25
HETATM   25  C   UNL     1      43.576 -11.286   4.907  1.00  0.00     0.053 C 
BRANCH  25  26
HETATM   26  C   UNL     1      42.190 -11.274   5.537  1.00  0.00     0.166 C 
BRANCH  26  27
HETATM   27  O   UNL     1      42.042 -12.400   6.392  1.00  0.00    -0.401 OA
HETATM   28  H   UNL     1      42.180 -13.200   5.858  1.00  0.00     0.209 HD
ENDBRANCH  26  27
ENDBRANCH  25  26
ENDBRANCH  24  25
ENDBRANCH  23  24
ENDBRANCH   6  23
BRANCH   4  29
HETATM   29  C   UNL     1      43.328 -17.358   4.409  1.00  0.00     0.010 A 
HETATM   30  C   UNL     1      43.980 -18.593   4.178  1.00  0.00     0.152 A 
HETATM   31  N   UNL     1      44.148 -19.307   5.294  1.00  0.00    -0.187 NA
HETATM   32  N   UNL     1      43.596 -18.538   6.244  1.00  0.00    -0.289 N 
HETATM   33  H   UNL     1      43.593 -18.883   7.199  1.00  0.00     0.188 HD
HETATM   34  C   UNL     1      43.092 -17.361   5.768  1.00  0.00     0.123 A 
ENDBRANCH   4  29
TORSDOF 9
ENDMDL
