MODEL 1
REMARK VINA RESULT:      -8.6      0.000      0.000
REMARK  8 active torsions:
REMARK  status: ('A' for Active; 'I' for Inactive)
REMARK    1  A    between atoms: O_2  and  C_3 
REMARK    2  A    between atoms: C_4  and  O_5 
REMARK    3  A    between atoms: C_6  and  C_7 
REMARK    4  A    between atoms: C_7  and  C_8 
REMARK    5  A    between atoms: C_11  and  C_12 
REMARK    6  A    between atoms: C_12  and  N_13 
REMARK    7  A    between atoms: C_16  and  N_17 
REMARK       I    between atoms: N_17  and  C_18 
REMARK       I    between atoms: C_18  and  N_19 
REMARK    8  A    between atoms: N_19  and  C_20 
ROOT
HETATM    1  N   UNL     1      43.309 -12.827   5.851  1.00  0.00    -0.065 N 
HETATM    2  H   UNL     1      43.484 -13.026   4.857  1.00  0.00     0.280 HD
HETATM    3  C   UNL     1      44.550 -12.143   6.404  1.00  0.00     0.260 C 
HETATM    4  C   UNL     1      44.017 -10.927   7.185  1.00  0.00     0.113 C 
HETATM    5  C   UNL     1      42.846 -10.509   6.307  1.00  0.00     0.054 C 
HETATM    6  C   UNL     1      42.179 -11.827   5.944  1.00  0.00     0.237 C 
ENDROOT
BRANCH   1   7
HETATM    7  C   UNL     1      43.016 -14.159   6.497  1.00  0.00     0.273 C 
BRANCH   7   8
HETATM    8  C   UNL     1      42.824 -15.237   5.462  1.00  0.00    -0.029 A 
HETATM    9  C   UNL     1      43.675 -16.359   5.452  1.00  0.00     0.019 A 
HETATM   10  C   UNL     1      43.583 -17.339   4.448  1.00  0.00    -0.018 A 
HETATM   11  C   UNL     1      42.637 -17.166   3.435  1.00  0.00     0.105 A 
HETATM   12  C   UNL     1      41.756 -16.085   3.464  1.00  0.00     0.102 A 
HETATM   13  C   UNL     1      41.855 -15.113   4.458  1.00  0.00     0.048 A 
BRANCH  10  14
HETATM   14  C   UNL     1      44.532 -18.517   4.457  1.00  0.00     0.068 C 
BRANCH  14  15
HETATM   15  C   UNL     1      43.998 -19.667   5.264  1.00  0.00    -0.032 C 
HETATM   16  C   UNL     1      43.976 -20.942   4.850  1.00  0.00     0.007 C 
ENDBRANCH  14  15
ENDBRANCH  10  14
BRANCH  11  17
HETATM   17  O   UNL     1      42.605 -18.050   2.394  1.00  0.00    -0.357 OA
HETATM   18  H   UNL     1      42.179 -17.595   1.644  1.00  0.00     0.218 HD
ENDBRANCH  11  17
BRANCH  12  19
HETATM   19  O   UNL     1      40.827 -15.904   2.473  1.00  0.00    -0.353 OA
HETATM   20  C   UNL     1      40.095 -14.690   2.684  1.00  0.00     0.210 C 
ENDBRANCH  12  19
ENDBRANCH   7   8
ENDBRANCH   1   7
BRANCH   4  21
HETATM   21  N   UNL     1      43.565 -11.197   8.554  1.00  0.00    -0.337 N 
HETATM   22  C   UNL     1      43.629 -10.176   9.491  1.00  0.00     0.321 C 
HETATM   23  N   UNL     1      42.970 -10.513  10.648  1.00  0.00    -0.309 N 
HETATM   24  O   UNL     1      44.241  -9.146   9.255  1.00  0.00    -0.247 OA
HETATM   25  H   UNL     1      42.581 -11.442  10.705  1.00  0.00     0.170 HD
HETATM   26  H   UNL     1      42.689 -11.704   8.619  1.00  0.00     0.164 HD
BRANCH  23  27
HETATM   27  C   UNL     1      42.791  -9.708  11.795  1.00  0.00     0.036 A 
HETATM   28  C   UNL     1      43.563  -8.578  12.085  1.00  0.00     0.032 A 
HETATM   29  C   UNL     1      43.317  -7.829  13.241  1.00  0.00     0.044 A 
HETATM   30  C   UNL     1      42.297  -8.207  14.103  1.00  0.00     0.116 A 
HETATM   31  F   UNL     1      42.062  -7.486  15.207  1.00  0.00    -0.206 F 
HETATM   32  C   UNL     1      41.517  -9.322  13.833  1.00  0.00     0.044 A 
HETATM   33  C   UNL     1      41.765 -10.073  12.681  1.00  0.00     0.032 A 
ENDBRANCH  23  27
ENDBRANCH   4  21
TORSDOF 8
ENDMDL
MODEL 2
REMARK VINA RESULT:      -8.6      3.491      5.253
REMARK  8 active torsions:
REMARK  status: ('A' for Active; 'I' for Inactive)
REMARK    1  A    between atoms: O_2  and  C_3 
REMARK    2  A    between atoms: C_4  and  O_5 
REMARK    3  A    between atoms: C_6  and  C_7 
REMARK    4  A    between atoms: C_7  and  C_8 
REMARK    5  A    between atoms: C_11  and  C_12 
REMARK    6  A    between atoms: C_12  and  N_13 
REMARK    7  A    between atoms: C_16  and  N_17 
REMARK       I    between atoms: N_17  and  C_18 
REMARK       I    between atoms: C_18  and  N_19 
REMARK    8  A    between atoms: N_19  and  C_20 
ROOT
HETATM    1  N   UNL     1      41.839 -15.170   1.507  1.00  0.00    -0.065 N 
HETATM    2  H   UNL     1      41.437 -15.396   0.588  1.00  0.00     0.280 HD
HETATM    3  C   UNL     1      41.822 -13.656   1.650  1.00  0.00     0.260 C 
HETATM    4  C   UNL     1      41.237 -13.397   3.052  1.00  0.00     0.113 C 
HETATM    5  C   UNL     1      40.201 -14.509   3.143  1.00  0.00     0.054 C 
HETATM    6  C   UNL     1      40.923 -15.722   2.576  1.00  0.00     0.237 C 
ENDROOT
BRANCH   1   7
HETATM    7  C   UNL     1      43.227 -15.761   1.512  1.00  0.00     0.273 C 
BRANCH   7   8
HETATM    8  C   UNL     1      43.370 -16.815   2.579  1.00  0.00    -0.029 A 
HETATM    9  C   UNL     1      43.638 -16.435   3.908  1.00  0.00     0.019 A 
HETATM   10  C   UNL     1      43.867 -17.393   4.912  1.00  0.00    -0.018 A 
HETATM   11  C   UNL     1      43.847 -18.744   4.558  1.00  0.00     0.105 A 
HETATM   12  C   UNL     1      43.533 -19.132   3.255  1.00  0.00     0.102 A 
HETATM   13  C   UNL     1      43.312 -18.178   2.263  1.00  0.00     0.048 A 
BRANCH  10  14
HETATM   14  C   UNL     1      44.177 -16.945   6.323  1.00  0.00     0.068 C 
BRANCH  14  15
HETATM   15  C   UNL     1      42.954 -16.444   7.039  1.00  0.00    -0.032 C 
HETATM   16  C   UNL     1      42.955 -15.462   7.951  1.00  0.00     0.007 C 
ENDBRANCH  14  15
ENDBRANCH  10  14
BRANCH  11  17
HETATM   17  O   UNL     1      44.173 -19.684   5.494  1.00  0.00    -0.357 OA
HETATM   18  H   UNL     1      44.973 -19.368   5.952  1.00  0.00     0.218 HD
ENDBRANCH  11  17
BRANCH  12  19
HETATM   19  O   UNL     1      43.514 -20.454   2.897  1.00  0.00    -0.353 OA
HETATM   20  C   UNL     1      43.514 -20.590   1.471  1.00  0.00     0.210 C 
ENDBRANCH  12  19
ENDBRANCH   7   8
ENDBRANCH   1   7
BRANCH   4  21
HETATM   21  N   UNL     1      42.188 -13.485   4.165  1.00  0.00    -0.337 N 
HETATM   22  C   UNL     1      42.723 -12.313   4.680  1.00  0.00     0.321 C 
HETATM   23  N   UNL     1      43.411 -12.542   5.846  1.00  0.00    -0.309 N 
HETATM   24  O   UNL     1      42.583 -11.250   4.094  1.00  0.00    -0.247 OA
HETATM   25  H   UNL     1      43.494 -13.500   6.153  1.00  0.00     0.170 HD
HETATM   26  H   UNL     1      41.917 -14.123   4.905  1.00  0.00     0.164 HD
BRANCH  23  27
HETATM   27  C   UNL     1      44.046 -11.584   6.667  1.00  0.00     0.036 A 
HETATM   28  C   UNL     1      43.361 -10.686   7.493  1.00  0.00     0.032 A 
HETATM   29  C   UNL     1      44.065  -9.770   8.282  1.00  0.00     0.044 A 
HETATM   30  C   UNL     1      45.453  -9.756   8.249  1.00  0.00     0.116 A 
HETATM   31  F   UNL     1      46.124  -8.880   9.007  1.00  0.00    -0.206 F 
HETATM   32  C   UNL     1      46.152 -10.640   7.440  1.00  0.00     0.044 A 
HETATM   33  C   UNL     1      45.449 -11.552   6.648  1.00  0.00     0.032 A 
ENDBRANCH  23  27
ENDBRANCH   4  21
TORSDOF 8
ENDMDL
MODEL 3
REMARK VINA RESULT:      -8.6      1.087      2.649
REMARK  8 active torsions:
REMARK  status: ('A' for Active; 'I' for Inactive)
REMARK    1  A    between atoms: O_2  and  C_3 
REMARK    2  A    between atoms: C_4  and  O_5 
REMARK    3  A    between atoms: C_6  and  C_7 
REMARK    4  A    between atoms: C_7  and  C_8 
REMARK    5  A    between atoms: C_11  and  C_12 
REMARK    6  A    between atoms: C_12  and  N_13 
REMARK    7  A    between atoms: C_16  and  N_17 
REMARK       I    between atoms: N_17  and  C_18 
REMARK       I    between atoms: C_18  and  N_19 
REMARK    8  A    between atoms: N_19  and  C_20 
ROOT
HETATM    1  N   UNL     1      43.558 -12.761   5.953  1.00  0.00    -0.065 N 
HETATM    2  H   UNL     1      43.798 -12.951   4.971  1.00  0.00     0.280 HD
HETATM    3  C   UNL     1      44.743 -12.038   6.578  1.00  0.00     0.260 C 
HETATM    4  C   UNL     1      44.126 -10.842   7.327  1.00  0.00     0.113 C 
HETATM    5  C   UNL     1      42.995 -10.460   6.383  1.00  0.00     0.054 C 
HETATM    6  C   UNL     1      42.393 -11.798   5.982  1.00  0.00     0.237 C 
ENDROOT
BRANCH   1   7
HETATM    7  C   UNL     1      43.273 -14.103   6.580  1.00  0.00     0.273 C 
BRANCH   7   8
HETATM    8  C   UNL     1      43.411 -15.217   5.575  1.00  0.00    -0.029 A 
HETATM    9  C   UNL     1      43.153 -14.968   4.214  1.00  0.00     0.019 A 
HETATM   10  C   UNL     1      43.184 -16.002   3.261  1.00  0.00    -0.018 A 
HETATM   11  C   UNL     1      43.454 -17.300   3.699  1.00  0.00     0.105 A 
HETATM   12  C   UNL     1      43.760 -17.549   5.037  1.00  0.00     0.102 A 
HETATM   13  C   UNL     1      43.723 -16.521   5.978  1.00  0.00     0.048 A 
BRANCH  10  14
HETATM   14  C   UNL     1      42.877 -15.699   1.811  1.00  0.00     0.068 C 
BRANCH  14  15
HETATM   15  C   UNL     1      41.460 -15.233   1.619  1.00  0.00    -0.032 C 
HETATM   16  C   UNL     1      40.374 -15.971   1.882  1.00  0.00     0.007 C 
ENDBRANCH  14  15
ENDBRANCH  10  14
BRANCH  11  17
HETATM   17  O   UNL     1      43.382 -18.333   2.808  1.00  0.00    -0.357 OA
HETATM   18  H   UNL     1      42.602 -18.174   2.245  1.00  0.00     0.218 HD
ENDBRANCH  11  17
BRANCH  12  19
HETATM   19  O   UNL     1      44.022 -18.820   5.477  1.00  0.00    -0.353 OA
HETATM   20  C   UNL     1      43.340 -19.077   6.710  1.00  0.00     0.210 C 
ENDBRANCH  12  19
ENDBRANCH   7   8
ENDBRANCH   1   7
BRANCH   4  21
HETATM   21  N   UNL     1      43.604 -11.130   8.667  1.00  0.00    -0.337 N 
HETATM   22  C   UNL     1      43.637 -10.127   9.626  1.00  0.00     0.321 C 
HETATM   23  N   UNL     1      42.919 -10.475  10.743  1.00  0.00    -0.309 N 
HETATM   24  O   UNL     1      44.274  -9.102   9.439  1.00  0.00    -0.247 OA
HETATM   25  H   UNL     1      42.514 -11.400  10.764  1.00  0.00     0.170 HD
HETATM   26  H   UNL     1      42.719 -11.625   8.681  1.00  0.00     0.164 HD
BRANCH  23  27
HETATM   27  C   UNL     1      42.695  -9.688  11.895  1.00  0.00     0.036 A 
HETATM   28  C   UNL     1      43.466  -8.574  12.242  1.00  0.00     0.032 A 
HETATM   29  C   UNL     1      43.175  -7.842  13.398  1.00  0.00     0.044 A 
HETATM   30  C   UNL     1      42.111  -8.222  14.205  1.00  0.00     0.116 A 
HETATM   31  F   UNL     1      41.833  -7.518  15.309  1.00  0.00    -0.206 F 
HETATM   32  C   UNL     1      41.331  -9.322  13.878  1.00  0.00     0.044 A 
HETATM   33  C   UNL     1      41.624 -10.056  12.725  1.00  0.00     0.032 A 
ENDBRANCH  23  27
ENDBRANCH   4  21
TORSDOF 8
ENDMDL
MODEL 4
REMARK VINA RESULT:      -8.5      5.609      9.256
REMARK  8 active torsions:
REMARK  status: ('A' for Active; 'I' for Inactive)
REMARK    1  A    between atoms: O_2  and  C_3 
REMARK    2  A    between atoms: C_4  and  O_5 
REMARK    3  A    between atoms: C_6  and  C_7 
REMARK    4  A    between atoms: C_7  and  C_8 
REMARK    5  A    between atoms: C_11  and  C_12 
REMARK    6  A    between atoms: C_12  and  N_13 
REMARK    7  A    between atoms: C_16  and  N_17 
REMARK       I    between atoms: N_17  and  C_18 
REMARK       I    between atoms: C_18  and  N_19 
REMARK    8  A    between atoms: N_19  and  C_20 
ROOT
HETATM    1  N   UNL     1      40.357 -11.972   0.764  1.00  0.00    -0.065 N 
HETATM    2  H   UNL     1      39.617 -11.265   0.661  1.00  0.00     0.280 HD
HETATM    3  C   UNL     1      39.699 -13.249   1.264  1.00  0.00     0.260 C 
HETATM    4  C   UNL     1      40.261 -14.364   0.361  1.00  0.00     0.113 C 
HETATM    5  C   UNL     1      40.350 -13.638  -0.974  1.00  0.00     0.054 C 
HETATM    6  C   UNL     1      40.919 -12.276  -0.607  1.00  0.00     0.237 C 
ENDROOT
BRANCH   1   7
HETATM    7  C   UNL     1      41.358 -11.391   1.732  1.00  0.00     0.273 C 
BRANCH   7   8
HETATM    8  C   UNL     1      41.003 -11.733   3.156  1.00  0.00    -0.029 A 
HETATM    9  C   UNL     1      41.655 -12.799   3.803  1.00  0.00     0.019 A 
HETATM   10  C   UNL     1      41.287 -13.205   5.099  1.00  0.00    -0.018 A 
HETATM   11  C   UNL     1      40.234 -12.539   5.729  1.00  0.00     0.105 A 
HETATM   12  C   UNL     1      39.615 -11.449   5.116  1.00  0.00     0.102 A 
HETATM   13  C   UNL     1      39.980 -11.055   3.830  1.00  0.00     0.048 A 
BRANCH  10  14
HETATM   14  C   UNL     1      41.994 -14.371   5.752  1.00  0.00     0.068 C 
BRANCH  14  15
HETATM   15  C   UNL     1      43.398 -14.025   6.161  1.00  0.00    -0.032 C 
HETATM   16  C   UNL     1      43.733 -12.965   6.909  1.00  0.00     0.007 C 
ENDBRANCH  14  15
ENDBRANCH  10  14
BRANCH  11  17
HETATM   17  O   UNL     1      39.791 -12.987   6.941  1.00  0.00    -0.357 OA
HETATM   18  H   UNL     1      38.817 -13.012   6.900  1.00  0.00     0.218 HD
ENDBRANCH  11  17
BRANCH  12  19
HETATM   19  O   UNL     1      38.578 -10.791   5.725  1.00  0.00    -0.353 OA
HETATM   20  C   UNL     1      38.357  -9.518   5.106  1.00  0.00     0.210 C 
ENDBRANCH  12  19
ENDBRANCH   7   8
ENDBRANCH   1   7
BRANCH   4  21
HETATM   21  N   UNL     1      41.572 -14.896   0.747  1.00  0.00    -0.337 N 
HETATM   22  C   UNL     1      41.631 -15.881   1.724  1.00  0.00     0.321 C 
HETATM   23  N   UNL     1      42.888 -16.427   1.813  1.00  0.00    -0.309 N 
HETATM   24  O   UNL     1      40.651 -16.150   2.402  1.00  0.00    -0.247 OA
HETATM   25  H   UNL     1      43.607 -16.031   1.225  1.00  0.00     0.170 HD
HETATM   26  H   UNL     1      42.190 -15.108  -0.028  1.00  0.00     0.164 HD
BRANCH  23  27
HETATM   27  C   UNL     1      43.305 -17.479   2.659  1.00  0.00     0.036 A 
HETATM   28  C   UNL     1      43.358 -18.821   2.269  1.00  0.00     0.032 A 
HETATM   29  C   UNL     1      43.790 -19.804   3.166  1.00  0.00     0.044 A 
HETATM   30  C   UNL     1      44.172 -19.443   4.451  1.00  0.00     0.116 A 
HETATM   31  F   UNL     1      44.588 -20.385   5.307  1.00  0.00    -0.206 F 
HETATM   32  C   UNL     1      44.130 -18.117   4.858  1.00  0.00     0.044 A 
HETATM   33  C   UNL     1      43.695 -17.136   3.963  1.00  0.00     0.032 A 
ENDBRANCH  23  27
ENDBRANCH   4  21
TORSDOF 8
ENDMDL
MODEL 5
REMARK VINA RESULT:      -8.5      3.471      4.817
REMARK  8 active torsions:
REMARK  status: ('A' for Active; 'I' for Inactive)
REMARK    1  A    between atoms: O_2  and  C_3 
REMARK    2  A    between atoms: C_4  and  O_5 
REMARK    3  A    between atoms: C_6  and  C_7 
REMARK    4  A    between atoms: C_7  and  C_8 
REMARK    5  A    between atoms: C_11  and  C_12 
REMARK    6  A    between atoms: C_12  and  N_13 
REMARK    7  A    between atoms: C_16  and  N_17 
REMARK       I    between atoms: N_17  and  C_18 
REMARK       I    between atoms: C_18  and  N_19 
REMARK    8  A    between atoms: N_19  and  C_20 
ROOT
HETATM    1  N   UNL     1      40.609 -14.528   1.701  1.00  0.00    -0.065 N 
HETATM    2  H   UNL     1      40.312 -14.855   0.772  1.00  0.00     0.280 HD
HETATM    3  C   UNL     1      42.126 -14.422   1.681  1.00  0.00     0.260 C 
HETATM    4  C   UNL     1      42.435 -13.043   2.293  1.00  0.00     0.113 C 
HETATM    5  C   UNL     1      41.281 -12.217   1.742  1.00  0.00     0.054 C 
HETATM    6  C   UNL     1      40.075 -13.129   1.906  1.00  0.00     0.237 C 
ENDROOT
BRANCH   1   7
HETATM    7  C   UNL     1      40.089 -15.544   2.687  1.00  0.00     0.273 C 
BRANCH   7   8
HETATM    8  C   UNL     1      41.204 -16.112   3.527  1.00  0.00    -0.029 A 
HETATM    9  C   UNL     1      42.199 -16.905   2.926  1.00  0.00     0.019 A 
HETATM   10  C   UNL     1      43.203 -17.526   3.692  1.00  0.00    -0.018 A 
HETATM   11  C   UNL     1      43.179 -17.359   5.078  1.00  0.00     0.105 A 
HETATM   12  C   UNL     1      42.227 -16.534   5.678  1.00  0.00     0.102 A 
HETATM   13  C   UNL     1      41.231 -15.926   4.914  1.00  0.00     0.048 A 
BRANCH  10  14
HETATM   14  C   UNL     1      44.241 -18.391   3.013  1.00  0.00     0.068 C 
BRANCH  14  15
HETATM   15  C   UNL     1      43.785 -19.817   2.874  1.00  0.00    -0.032 C 
HETATM   16  C   UNL     1      43.300 -20.355   1.746  1.00  0.00     0.007 C 
ENDBRANCH  14  15
ENDBRANCH  10  14
BRANCH  11  17
HETATM   17  O   UNL     1      44.080 -18.039   5.847  1.00  0.00    -0.357 OA
HETATM   18  H   UNL     1      44.891 -17.500   5.886  1.00  0.00     0.218 HD
ENDBRANCH  11  17
BRANCH  12  19
HETATM   19  O   UNL     1      42.194 -16.366   7.037  1.00  0.00    -0.353 OA
HETATM   20  C   UNL     1      42.889 -15.172   7.414  1.00  0.00     0.210 C 
ENDBRANCH  12  19
ENDBRANCH   7   8
ENDBRANCH   1   7
BRANCH   4  21
HETATM   21  N   UNL     1      42.456 -12.986   3.759  1.00  0.00    -0.337 N 
HETATM   22  C   UNL     1      43.336 -12.110   4.380  1.00  0.00     0.321 C 
HETATM   23  N   UNL     1      43.082 -12.012   5.726  1.00  0.00    -0.309 N 
HETATM   24  O   UNL     1      44.221 -11.556   3.745  1.00  0.00    -0.247 OA
HETATM   25  H   UNL     1      42.356 -12.602   6.104  1.00  0.00     0.170 HD
HETATM   26  H   UNL     1      41.542 -12.963   4.196  1.00  0.00     0.164 HD
BRANCH  23  27
HETATM   27  C   UNL     1      43.743 -11.187   6.662  1.00  0.00     0.036 A 
HETATM   28  C   UNL     1      43.159 -10.070   7.269  1.00  0.00     0.032 A 
HETATM   29  C   UNL     1      43.881  -9.307   8.193  1.00  0.00     0.044 A 
HETATM   30  C   UNL     1      45.184  -9.663   8.514  1.00  0.00     0.116 A 
HETATM   31  F   UNL     1      45.871  -8.932   9.401  1.00  0.00    -0.206 F 
HETATM   32  C   UNL     1      45.781 -10.769   7.926  1.00  0.00     0.044 A 
HETATM   33  C   UNL     1      45.062 -11.529   7.000  1.00  0.00     0.032 A 
ENDBRANCH  23  27
ENDBRANCH   4  21
TORSDOF 8
ENDMDL
MODEL 6
REMARK VINA RESULT:      -8.4      1.827      2.588
REMARK  8 active torsions:
REMARK  status: ('A' for Active; 'I' for Inactive)
REMARK    1  A    between atoms: O_2  and  C_3 
REMARK    2  A    between atoms: C_4  and  O_5 
REMARK    3  A    between atoms: C_6  and  C_7 
REMARK    4  A    between atoms: C_7  and  C_8 
REMARK    5  A    between atoms: C_11  and  C_12 
REMARK    6  A    between atoms: C_12  and  N_13 
REMARK    7  A    between atoms: C_16  and  N_17 
REMARK       I    between atoms: N_17  and  C_18 
REMARK       I    between atoms: C_18  and  N_19 
REMARK    8  A    between atoms: N_19  and  C_20 
ROOT
HETATM    1  N   UNL     1      43.045 -12.899   5.850  1.00  0.00    -0.065 N 
HETATM    2  H   UNL     1      43.420 -13.550   5.147  1.00  0.00     0.280 HD
HETATM    3  C   UNL     1      43.907 -13.033   7.097  1.00  0.00     0.260 C 
HETATM    4  C   UNL     1      44.232 -11.585   7.510  1.00  0.00     0.113 C 
HETATM    5  C   UNL     1      44.387 -10.922   6.148  1.00  0.00     0.054 C 
HETATM    6  C   UNL     1      43.230 -11.488   5.339  1.00  0.00     0.237 C 
ENDROOT
BRANCH   1   7
HETATM    7  C   UNL     1      41.607 -13.300   6.066  1.00  0.00     0.273 C 
BRANCH   7   8
HETATM    8  C   UNL     1      40.953 -13.708   4.770  1.00  0.00    -0.029 A 
HETATM    9  C   UNL     1      41.335 -14.906   4.139  1.00  0.00     0.019 A 
HETATM   10  C   UNL     1      40.813 -15.274   2.886  1.00  0.00    -0.018 A 
HETATM   11  C   UNL     1      39.917 -14.404   2.259  1.00  0.00     0.105 A 
HETATM   12  C   UNL     1      39.495 -13.239   2.898  1.00  0.00     0.102 A 
HETATM   13  C   UNL     1      40.019 -12.877   4.139  1.00  0.00     0.048 A 
BRANCH  10  14
HETATM   14  C   UNL     1      41.267 -16.558   2.228  1.00  0.00     0.068 C 
BRANCH  14  15
HETATM   15  C   UNL     1      42.760 -16.722   2.279  1.00  0.00    -0.032 C 
HETATM   16  C   UNL     1      43.390 -17.871   2.558  1.00  0.00     0.007 C 
ENDBRANCH  14  15
ENDBRANCH  10  14
BRANCH  11  17
HETATM   17  O   UNL     1      39.483 -14.691   0.996  1.00  0.00    -0.357 OA
HETATM   18  H   UNL     1      39.274 -13.842   0.565  1.00  0.00     0.218 HD
ENDBRANCH  11  17
BRANCH  12  19
HETATM   19  O   UNL     1      38.619 -12.378   2.291  1.00  0.00    -0.353 OA
HETATM   20  C   UNL     1      38.779 -11.050   2.805  1.00  0.00     0.210 C 
ENDBRANCH  12  19
ENDBRANCH   7   8
ENDBRANCH   1   7
BRANCH   4  21
HETATM   21  N   UNL     1      43.203 -10.902   8.302  1.00  0.00    -0.337 N 
HETATM   22  C   UNL     1      43.460 -10.633   9.640  1.00  0.00     0.321 C 
HETATM   23  N   UNL     1      42.507  -9.804  10.178  1.00  0.00    -0.309 N 
HETATM   24  O   UNL     1      44.418 -11.136  10.207  1.00  0.00    -0.247 OA
HETATM   25  H   UNL     1      41.734  -9.541   9.585  1.00  0.00     0.170 HD
HETATM   26  H   UNL     1      42.770 -10.109   7.843  1.00  0.00     0.164 HD
BRANCH  23  27
HETATM   27  C   UNL     1      42.469  -9.286  11.492  1.00  0.00     0.036 A 
HETATM   28  C   UNL     1      43.298  -8.256  11.950  1.00  0.00     0.032 A 
HETATM   29  C   UNL     1      43.192  -7.794  13.266  1.00  0.00     0.044 A 
HETATM   30  C   UNL     1      42.257  -8.358  14.122  1.00  0.00     0.116 A 
HETATM   31  F   UNL     1      42.157  -7.912  15.381  1.00  0.00    -0.206 F 
HETATM   32  C   UNL     1      41.423  -9.379  13.688  1.00  0.00     0.044 A 
HETATM   33  C   UNL     1      41.531  -9.844  12.374  1.00  0.00     0.032 A 
ENDBRANCH  23  27
ENDBRANCH   4  21
TORSDOF 8
ENDMDL
MODEL 7
REMARK VINA RESULT:      -8.0      5.114      9.700
REMARK  8 active torsions:
REMARK  status: ('A' for Active; 'I' for Inactive)
REMARK    1  A    between atoms: O_2  and  C_3 
REMARK    2  A    between atoms: C_4  and  O_5 
REMARK    3  A    between atoms: C_6  and  C_7 
REMARK    4  A    between atoms: C_7  and  C_8 
REMARK    5  A    between atoms: C_11  and  C_12 
REMARK    6  A    between atoms: C_12  and  N_13 
REMARK    7  A    between atoms: C_16  and  N_17 
REMARK       I    between atoms: N_17  and  C_18 
REMARK       I    between atoms: C_18  and  N_19 
REMARK    8  A    between atoms: N_19  and  C_20 
ROOT
HETATM    1  N   UNL     1      41.021 -11.564   2.173  1.00  0.00    -0.065 N 
HETATM    2  H   UNL     1      40.461 -10.714   2.321  1.00  0.00     0.280 HD
HETATM    3  C   UNL     1      40.401 -12.669   3.016  1.00  0.00     0.260 C 
HETATM    4  C   UNL     1      40.296 -13.879   2.069  1.00  0.00     0.113 C 
HETATM    5  C   UNL     1      39.951 -13.190   0.756  1.00  0.00     0.054 C 
HETATM    6  C   UNL     1      40.877 -11.984   0.727  1.00  0.00     0.237 C 
ENDROOT
BRANCH   1   7
HETATM    7  C   UNL     1      42.430 -11.214   2.582  1.00  0.00     0.273 C 
BRANCH   7   8
HETATM    8  C   UNL     1      42.497 -10.830   4.038  1.00  0.00    -0.029 A 
HETATM    9  C   UNL     1      43.468 -11.415   4.872  1.00  0.00     0.019 A 
HETATM   10  C   UNL     1      43.503 -11.150   6.253  1.00  0.00    -0.018 A 
HETATM   11  C   UNL     1      42.529 -10.305   6.792  1.00  0.00     0.105 A 
HETATM   12  C   UNL     1      41.594  -9.682   5.966  1.00  0.00     0.102 A 
HETATM   13  C   UNL     1      41.561  -9.952   4.599  1.00  0.00     0.048 A 
BRANCH  10  14
HETATM   14  C   UNL     1      44.546 -11.816   7.122  1.00  0.00     0.068 C 
BRANCH  14  15
HETATM   15  C   UNL     1      45.850 -11.068   7.115  1.00  0.00    -0.032 C 
HETATM   16  C   UNL     1      46.097  -9.963   7.830  1.00  0.00     0.007 C 
ENDBRANCH  14  15
ENDBRANCH  10  14
BRANCH  11  17
HETATM   17  O   UNL     1      42.481 -10.121   8.145  1.00  0.00    -0.357 OA
HETATM   18  H   UNL     1      41.817  -9.429   8.317  1.00  0.00     0.218 HD
ENDBRANCH  11  17
BRANCH  12  19
HETATM   19  O   UNL     1      40.633  -8.855   6.486  1.00  0.00    -0.353 OA
HETATM   20  C   UNL     1      39.354  -9.501   6.478  1.00  0.00     0.210 C 
ENDBRANCH  12  19
ENDBRANCH   7   8
ENDBRANCH   1   7
BRANCH   4  21
HETATM   21  N   UNL     1      41.515 -14.682   1.925  1.00  0.00    -0.337 N 
HETATM   22  C   UNL     1      41.684 -15.790   2.744  1.00  0.00     0.321 C 
HETATM   23  N   UNL     1      42.750 -16.556   2.341  1.00  0.00    -0.309 N 
HETATM   24  O   UNL     1      40.952 -15.977   3.705  1.00  0.00    -0.247 OA
HETATM   25  H   UNL     1      43.299 -16.213   1.567  1.00  0.00     0.170 HD
HETATM   26  H   UNL     1      41.778 -14.888   0.968  1.00  0.00     0.164 HD
BRANCH  23  27
HETATM   27  C   UNL     1      43.190 -17.773   2.907  1.00  0.00     0.036 A 
HETATM   28  C   UNL     1      43.700 -17.893   4.204  1.00  0.00     0.032 A 
HETATM   29  C   UNL     1      44.109 -19.139   4.693  1.00  0.00     0.044 A 
HETATM   30  C   UNL     1      44.004 -20.264   3.886  1.00  0.00     0.116 A 
HETATM   31  F   UNL     1      44.394 -21.455   4.358  1.00  0.00    -0.206 F 
HETATM   32  C   UNL     1      43.498 -20.168   2.598  1.00  0.00     0.044 A 
HETATM   33  C   UNL     1      43.093 -18.923   2.108  1.00  0.00     0.032 A 
ENDBRANCH  23  27
ENDBRANCH   4  21
TORSDOF 8
ENDMDL
MODEL 8
REMARK VINA RESULT:      -7.9      4.320     10.094
REMARK  8 active torsions:
REMARK  status: ('A' for Active; 'I' for Inactive)
REMARK    1  A    between atoms: O_2  and  C_3 
REMARK    2  A    between atoms: C_4  and  O_5 
REMARK    3  A    between atoms: C_6  and  C_7 
REMARK    4  A    between atoms: C_7  and  C_8 
REMARK    5  A    between atoms: C_11  and  C_12 
REMARK    6  A    between atoms: C_12  and  N_13 
REMARK    7  A    between atoms: C_16  and  N_17 
REMARK       I    between atoms: N_17  and  C_18 
REMARK       I    between atoms: C_18  and  N_19 
REMARK    8  A    between atoms: N_19  and  C_20 
ROOT
HETATM    1  N   UNL     1      40.683 -11.190   4.782  1.00  0.00    -0.065 N 
HETATM    2  H   UNL     1      40.083 -10.427   5.122  1.00  0.00     0.280 HD
HETATM    3  C   UNL     1      40.415 -12.404   5.659  1.00  0.00     0.260 C 
HETATM    4  C   UNL     1      40.223 -13.571   4.672  1.00  0.00     0.113 C 
HETATM    5  C   UNL     1      39.493 -12.871   3.534  1.00  0.00     0.054 C 
HETATM    6  C   UNL     1      40.241 -11.555   3.382  1.00  0.00     0.237 C 
ENDROOT
BRANCH   1   7
HETATM    7  C   UNL     1      42.100 -10.680   4.874  1.00  0.00     0.273 C 
BRANCH   7   8
HETATM    8  C   UNL     1      42.507 -10.456   6.307  1.00  0.00    -0.029 A 
HETATM    9  C   UNL     1      41.695  -9.677   7.153  1.00  0.00     0.019 A 
HETATM   10  C   UNL     1      42.089  -9.372   8.469  1.00  0.00    -0.018 A 
HETATM   11  C   UNL     1      43.325  -9.840   8.918  1.00  0.00     0.105 A 
HETATM   12  C   UNL     1      44.114 -10.654   8.105  1.00  0.00     0.102 A 
HETATM   13  C   UNL     1      43.722 -10.950   6.800  1.00  0.00     0.048 A 
BRANCH  10  14
HETATM   14  C   UNL     1      41.201  -8.511   9.339  1.00  0.00     0.068 C 
BRANCH  14  15
HETATM   15  C   UNL     1      40.039  -9.283   9.901  1.00  0.00    -0.032 C 
HETATM   16  C   UNL     1      39.949  -9.709  11.168  1.00  0.00     0.007 C 
ENDBRANCH  14  15
ENDBRANCH  10  14
BRANCH  11  17
HETATM   17  O   UNL     1      43.772  -9.465  10.153  1.00  0.00    -0.357 OA
HETATM   18  H   UNL     1      43.156  -8.789  10.489  1.00  0.00     0.218 HD
ENDBRANCH  11  17
BRANCH  12  19
HETATM   19  O   UNL     1      45.331 -11.116   8.535  1.00  0.00    -0.353 OA
HETATM   20  C   UNL     1      46.394 -10.476   7.818  1.00  0.00     0.210 C 
ENDBRANCH  12  19
ENDBRANCH   7   8
ENDBRANCH   1   7
BRANCH   4  21
HETATM   21  N   UNL     1      41.453 -14.203   4.185  1.00  0.00    -0.337 N 
HETATM   22  C   UNL     1      41.602 -15.575   4.330  1.00  0.00     0.321 C 
HETATM   23  N   UNL     1      42.690 -16.041   3.634  1.00  0.00    -0.309 N 
HETATM   24  O   UNL     1      40.837 -16.217   5.034  1.00  0.00    -0.247 OA
HETATM   25  H   UNL     1      43.265 -15.358   3.163  1.00  0.00     0.170 HD
HETATM   26  H   UNL     1      41.755 -13.895   3.267  1.00  0.00     0.164 HD
BRANCH  23  27
HETATM   27  C   UNL     1      43.120 -17.381   3.516  1.00  0.00     0.036 A 
HETATM   28  C   UNL     1      43.853 -18.056   4.498  1.00  0.00     0.032 A 
HETATM   29  C   UNL     1      44.236 -19.388   4.307  1.00  0.00     0.044 A 
HETATM   30  C   UNL     1      43.881 -20.046   3.138  1.00  0.00     0.116 A 
HETATM   31  F   UNL     1      44.246 -21.322   2.959  1.00  0.00    -0.206 F 
HETATM   32  C   UNL     1      43.151 -19.397   2.152  1.00  0.00     0.044 A 
HETATM   33  C   UNL     1      42.772 -18.065   2.340  1.00  0.00     0.032 A 
ENDBRANCH  23  27
ENDBRANCH   4  21
TORSDOF 8
ENDMDL
MODEL 9
REMARK VINA RESULT:      -7.8      3.861     10.574
REMARK  8 active torsions:
REMARK  status: ('A' for Active; 'I' for Inactive)
REMARK    1  A    between atoms: O_2  and  C_3 
REMARK    2  A    between atoms: C_4  and  O_5 
REMARK    3  A    between atoms: C_6  and  C_7 
REMARK    4  A    between atoms: C_7  and  C_8 
REMARK    5  A    between atoms: C_11  and  C_12 
REMARK    6  A    between atoms: C_12  and  N_13 
REMARK    7  A    between atoms: C_16  and  N_17 
REMARK       I    between atoms: N_17  and  C_18 
REMARK       I    between atoms: C_18  and  N_19 
REMARK    8  A    between atoms: N_19  and  C_20 
ROOT
HETATM    1  N   UNL     1      44.264  -9.823   9.838  1.00  0.00    -0.065 N 
HETATM    2  H   UNL     1      44.555  -8.921  10.235  1.00  0.00     0.280 HD
HETATM    3  C   UNL     1      43.131  -9.546   8.861  1.00  0.00     0.260 C 
HETATM    4  C   UNL     1      43.500 -10.336   7.591  1.00  0.00     0.113 C 
HETATM    5  C   UNL     1      45.013 -10.169   7.576  1.00  0.00     0.054 C 
HETATM    6  C   UNL     1      45.414 -10.380   9.028  1.00  0.00     0.237 C 
ENDROOT
BRANCH   1   7
HETATM    7  C   UNL     1      43.854 -10.682  11.008  1.00  0.00     0.273 C 
BRANCH   7   8
HETATM    8  C   UNL     1      42.944  -9.931  11.945  1.00  0.00    -0.029 A 
HETATM    9  C   UNL     1      43.341  -8.680  12.454  1.00  0.00     0.019 A 
HETATM   10  C   UNL     1      42.559  -7.992  13.400  1.00  0.00    -0.018 A 
HETATM   11  C   UNL     1      41.380  -8.592  13.849  1.00  0.00     0.105 A 
HETATM   12  C   UNL     1      40.953  -9.807  13.313  1.00  0.00     0.102 A 
HETATM   13  C   UNL     1      41.734 -10.487  12.380  1.00  0.00     0.048 A 
BRANCH  10  14
HETATM   14  C   UNL     1      43.031  -6.662  13.943  1.00  0.00     0.068 C 
BRANCH  14  15
HETATM   15  C   UNL     1      42.352  -5.503  13.269  1.00  0.00    -0.032 C 
HETATM   16  C   UNL     1      41.985  -5.480  11.980  1.00  0.00     0.007 C 
ENDBRANCH  14  15
ENDBRANCH  10  14
BRANCH  11  17
HETATM   17  O   UNL     1      40.663  -7.991  14.844  1.00  0.00    -0.357 OA
HETATM   18  H   UNL     1      40.096  -8.676  15.243  1.00  0.00     0.218 HD
ENDBRANCH  11  17
BRANCH  12  19
HETATM   19  O   UNL     1      39.799 -10.405  13.749  1.00  0.00    -0.353 OA
HETATM   20  C   UNL     1      39.082 -10.977  12.649  1.00  0.00     0.210 C 
ENDBRANCH  12  19
ENDBRANCH   7   8
ENDBRANCH   1   7
BRANCH   4  21
HETATM   21  N   UNL     1      43.137 -11.757   7.597  1.00  0.00    -0.337 N 
HETATM   22  C   UNL     1      42.728 -12.346   6.409  1.00  0.00     0.321 C 
HETATM   23  N   UNL     1      42.641 -13.711   6.528  1.00  0.00    -0.309 N 
HETATM   24  O   UNL     1      42.465 -11.664   5.430  1.00  0.00    -0.247 OA
HETATM   25  H   UNL     1      42.821 -14.109   7.438  1.00  0.00     0.170 HD
HETATM   26  H   UNL     1      43.778 -12.357   8.105  1.00  0.00     0.164 HD
BRANCH  23  27
HETATM   27  C   UNL     1      42.300 -14.637   5.517  1.00  0.00     0.036 A 
HETATM   28  C   UNL     1      41.009 -14.793   5.002  1.00  0.00     0.032 A 
HETATM   29  C   UNL     1      40.755 -15.730   3.995  1.00  0.00     0.044 A 
HETATM   30  C   UNL     1      41.793 -16.507   3.500  1.00  0.00     0.116 A 
HETATM   31  F   UNL     1      41.548 -17.401   2.533  1.00  0.00    -0.206 F 
HETATM   32  C   UNL     1      43.082 -16.367   3.993  1.00  0.00     0.044 A 
HETATM   33  C   UNL     1      43.335 -15.434   5.003  1.00  0.00     0.032 A 
ENDBRANCH  23  27
ENDBRANCH   4  21
TORSDOF 8
ENDMDL
MODEL 10
REMARK VINA RESULT:      -7.8      6.647      9.947
REMARK  8 active torsions:
REMARK  status: ('A' for Active; 'I' for Inactive)
REMARK    1  A    between atoms: O_2  and  C_3 
REMARK    2  A    between atoms: C_4  and  O_5 
REMARK    3  A    between atoms: C_6  and  C_7 
REMARK    4  A    between atoms: C_7  and  C_8 
REMARK    5  A    between atoms: C_11  and  C_12 
REMARK    6  A    between atoms: C_12  and  N_13 
REMARK    7  A    between atoms: C_16  and  N_17 
REMARK       I    between atoms: N_17  and  C_18 
REMARK       I    between atoms: C_18  and  N_19 
REMARK    8  A    between atoms: N_19  and  C_20 
ROOT
HETATM    1  N   UNL     1      41.067 -15.107   2.341  1.00  0.00    -0.065 N 
HETATM    2  H   UNL     1      40.725 -15.775   3.044  1.00  0.00     0.280 HD
HETATM    3  C   UNL     1      40.228 -15.298   1.086  1.00  0.00     0.260 C 
HETATM    4  C   UNL     1      39.821 -13.875   0.660  1.00  0.00     0.113 C 
HETATM    5  C   UNL     1      39.613 -13.215   2.016  1.00  0.00     0.054 C 
HETATM    6  C   UNL     1      40.793 -13.706   2.841  1.00  0.00     0.237 C 
ENDROOT
BRANCH   1   7
HETATM    7  C   UNL     1      42.529 -15.422   2.142  1.00  0.00     0.273 C 
BRANCH   7   8
HETATM    8  C   UNL     1      42.938 -16.636   2.936  1.00  0.00    -0.029 A 
HETATM    9  C   UNL     1      42.958 -16.579   4.342  1.00  0.00     0.019 A 
HETATM   10  C   UNL     1      43.421 -17.661   5.113  1.00  0.00    -0.018 A 
HETATM   11  C   UNL     1      43.890 -18.797   4.449  1.00  0.00     0.105 A 
HETATM   12  C   UNL     1      43.829 -18.882   3.058  1.00  0.00     0.102 A 
HETATM   13  C   UNL     1      43.374 -17.805   2.299  1.00  0.00     0.048 A 
BRANCH  10  14
HETATM   14  C   UNL     1      43.450 -17.553   6.621  1.00  0.00     0.068 C 
BRANCH  14  15
HETATM   15  C   UNL     1      43.764 -16.158   7.083  1.00  0.00    -0.032 C 
HETATM   16  C   UNL     1      43.012 -15.451   7.938  1.00  0.00     0.007 C 
ENDBRANCH  14  15
ENDBRANCH  10  14
BRANCH  11  17
HETATM   17  O   UNL     1      44.443 -19.813   5.175  1.00  0.00    -0.357 OA
HETATM   18  H   UNL     1      44.358 -19.574   6.116  1.00  0.00     0.218 HD
ENDBRANCH  11  17
BRANCH  12  19
HETATM   19  O   UNL     1      44.290 -19.990   2.397  1.00  0.00    -0.353 OA
HETATM   20  C   UNL     1      43.295 -20.487   1.493  1.00  0.00     0.210 C 
ENDBRANCH  12  19
ENDBRANCH   7   8
ENDBRANCH   1   7
BRANCH   4  21
HETATM   21  N   UNL     1      40.816 -13.136  -0.125  1.00  0.00    -0.337 N 
HETATM   22  C   UNL     1      40.385 -12.102  -0.944  1.00  0.00     0.321 C 
HETATM   23  N   UNL     1      41.441 -11.373  -1.433  1.00  0.00    -0.309 N 
HETATM   24  O   UNL     1      39.196 -11.942  -1.178  1.00  0.00    -0.247 OA
HETATM   25  H   UNL     1      42.370 -11.692  -1.200  1.00  0.00     0.170 HD
HETATM   26  H   UNL     1      41.654 -12.879   0.384  1.00  0.00     0.164 HD
BRANCH  23  27
HETATM   27  C   UNL     1      41.380 -10.227  -2.257  1.00  0.00     0.036 A 
HETATM   28  C   UNL     1      40.878 -10.229  -3.563  1.00  0.00     0.032 A 
HETATM   29  C   UNL     1      40.846  -9.048  -4.312  1.00  0.00     0.044 A 
HETATM   30  C   UNL     1      41.313  -7.865  -3.754  1.00  0.00     0.116 A 
HETATM   31  F   UNL     1      41.279  -6.736  -4.472  1.00  0.00    -0.206 F 
HETATM   32  C   UNL     1      41.812  -7.840  -2.460  1.00  0.00     0.044 A 
HETATM   33  C   UNL     1      41.848  -9.021  -1.712  1.00  0.00     0.032 A 
ENDBRANCH  23  27
ENDBRANCH   4  21
TORSDOF 8
ENDMDL
