MODEL 1
REMARK VINA RESULT:      -8.6      0.000      0.000
REMARK  5 active torsions:
REMARK  status: ('A' for Active; 'I' for Inactive)
REMARK    1  A    between atoms: C_2  and  O_3 
REMARK    2  A    between atoms: O_3  and  C_4 
REMARK    3  A    between atoms: C_8  and  C_9 
REMARK    4  A    between atoms: C_9  and  N_10 
REMARK       I    between atoms: N_10  and  C_11 
REMARK       I    between atoms: C_11  and  N_12 
REMARK    5  A    between atoms: N_12  and  C_13 
ROOT
HETATM    1  N   UNL     1      41.937 -11.617   6.702  1.00  0.00    -0.339 N 
HETATM    2  C   UNL     1      43.222 -11.171   6.521  1.00  0.00     0.316 C 
HETATM    3  N   UNL     1      43.776 -10.739   7.700  1.00  0.00    -0.337 N 
HETATM    4  O   UNL     1      43.795 -11.150   5.439  1.00  0.00    -0.247 OA
HETATM    5  H   UNL     1      41.697 -11.939   7.627  1.00  0.00     0.164 HD
HETATM    6  H   UNL     1      43.153 -10.578   8.479  1.00  0.00     0.164 HD
ENDROOT
BRANCH   1   7
HETATM    7  C   UNL     1      41.167 -12.151   5.602  1.00  0.00     0.163 C 
BRANCH   7   8
HETATM    8  C   UNL     1      41.214 -13.654   5.575  1.00  0.00    -0.035 A 
HETATM    9  C   UNL     1      40.351 -14.411   6.369  1.00  0.00     0.028 A 
HETATM   10  C   UNL     1      40.436 -15.793   6.309  1.00  0.00     0.120 A 
HETATM   11  N   UNL     1      41.314 -16.461   5.532  1.00  0.00    -0.237 NA
HETATM   12  C   UNL     1      42.142 -15.717   4.777  1.00  0.00     0.165 A 
HETATM   13  C   UNL     1      42.117 -14.330   4.749  1.00  0.00     0.066 A 
BRANCH  12  14
HETATM   14  O   UNL     1      43.047 -16.317   3.932  1.00  0.00    -0.324 OA
BRANCH  14  15
HETATM   15  C   UNL     1      42.678 -16.569   2.564  1.00  0.00     0.058 C 
HETATM   16  C   UNL     1      43.507 -15.751   1.563  1.00  0.00     0.045 C 
HETATM   17  C   UNL     1      41.168 -16.424   2.322  1.00  0.00     0.045 C 
HETATM   18  C   UNL     1      43.040 -18.053   2.357  1.00  0.00     0.045 C 
ENDBRANCH  14  15
ENDBRANCH  12  14
ENDBRANCH   7   8
ENDBRANCH   1   7
BRANCH   3  19
HETATM   19  C   UNL     1      45.092 -10.179   7.782  1.00  0.00     0.100 A 
HETATM   20  C   UNL     1      45.323  -8.799   8.356  1.00  0.00     0.049 A 
HETATM   21  C   UNL     1      45.806 -10.034   9.103  1.00  0.00     0.024 A 
HETATM   22  C   UNL     1      44.334  -8.163   9.282  1.00  0.00    -0.045 A 
HETATM   23  C   UNL     1      45.100 -10.129  10.447  1.00  0.00     0.046 A 
HETATM   24  C   UNL     1      44.204  -8.912  10.468  1.00  0.00    -0.051 A 
HETATM   25  C   UNL     1      43.334  -8.532  11.478  1.00  0.00     0.007 A 
HETATM   26  C   UNL     1      42.576  -7.374  11.295  1.00  0.00     0.001 A 
HETATM   27  C   UNL     1      42.695  -6.621  10.117  1.00  0.00     0.001 A 
HETATM   28  C   UNL     1      43.576  -7.015   9.106  1.00  0.00     0.008 A 
ENDBRANCH   3  19
TORSDOF 5
ENDMDL
MODEL 2
REMARK VINA RESULT:      -8.3      2.074      8.923
REMARK  5 active torsions:
REMARK  status: ('A' for Active; 'I' for Inactive)
REMARK    1  A    between atoms: C_2  and  O_3 
REMARK    2  A    between atoms: O_3  and  C_4 
REMARK    3  A    between atoms: C_8  and  C_9 
REMARK    4  A    between atoms: C_9  and  N_10 
REMARK       I    between atoms: N_10  and  C_11 
REMARK       I    between atoms: C_11  and  N_12 
REMARK    5  A    between atoms: N_12  and  C_13 
ROOT
HETATM    1  N   UNL     1      42.748 -12.021   3.299  1.00  0.00    -0.339 N 
HETATM    2  C   UNL     1      41.585 -12.730   3.128  1.00  0.00     0.316 C 
HETATM    3  N   UNL     1      41.792 -13.867   2.390  1.00  0.00    -0.337 N 
HETATM    4  O   UNL     1      40.499 -12.381   3.572  1.00  0.00    -0.247 OA
HETATM    5  H   UNL     1      43.608 -12.544   3.237  1.00  0.00     0.164 HD
HETATM    6  H   UNL     1      42.661 -13.943   1.879  1.00  0.00     0.164 HD
ENDROOT
BRANCH   1   7
HETATM    7  C   UNL     1      42.776 -10.802   4.074  1.00  0.00     0.163 C 
BRANCH   7   8
HETATM    8  C   UNL     1      43.309 -11.043   5.460  1.00  0.00    -0.035 A 
HETATM    9  C   UNL     1      44.189 -12.098   5.714  1.00  0.00     0.028 A 
HETATM   10  C   UNL     1      44.650 -12.280   7.008  1.00  0.00     0.120 A 
HETATM   11  N   UNL     1      44.293 -11.500   8.052  1.00  0.00    -0.237 NA
HETATM   12  C   UNL     1      43.442 -10.493   7.791  1.00  0.00     0.165 A 
HETATM   13  C   UNL     1      42.945 -10.215   6.525  1.00  0.00     0.066 A 
BRANCH  12  14
HETATM   14  O   UNL     1      43.051  -9.631   8.790  1.00  0.00    -0.324 OA
BRANCH  14  15
HETATM   15  C   UNL     1      44.037  -8.808   9.441  1.00  0.00     0.058 C 
HETATM   16  C   UNL     1      45.274  -8.558   8.566  1.00  0.00     0.045 C 
HETATM   17  C   UNL     1      44.409  -9.326  10.838  1.00  0.00     0.045 C 
HETATM   18  C   UNL     1      43.319  -7.456   9.622  1.00  0.00     0.045 C 
ENDBRANCH  14  15
ENDBRANCH  12  14
ENDBRANCH   7   8
ENDBRANCH   1   7
BRANCH   3  19
HETATM   19  C   UNL     1      40.734 -14.762   2.025  1.00  0.00     0.100 A 
HETATM   20  C   UNL     1      40.959 -16.255   1.950  1.00  0.00     0.049 A 
HETATM   21  C   UNL     1      40.079 -15.663   3.042  1.00  0.00     0.024 A 
HETATM   22  C   UNL     1      42.082 -16.914   2.689  1.00  0.00    -0.045 A 
HETATM   23  C   UNL     1      40.684 -15.960   4.405  1.00  0.00     0.046 A 
HETATM   24  C   UNL     1      41.931 -16.750   4.080  1.00  0.00    -0.051 A 
HETATM   25  C   UNL     1      42.855 -17.261   4.977  1.00  0.00     0.007 A 
HETATM   26  C   UNL     1      43.957 -17.951   4.469  1.00  0.00     0.001 A 
HETATM   27  C   UNL     1      44.119 -18.119   3.085  1.00  0.00     0.001 A 
HETATM   28  C   UNL     1      43.180 -17.599   2.190  1.00  0.00     0.008 A 
ENDBRANCH   3  19
TORSDOF 5
ENDMDL
MODEL 3
REMARK VINA RESULT:      -8.3      2.111      9.005
REMARK  5 active torsions:
REMARK  status: ('A' for Active; 'I' for Inactive)
REMARK    1  A    between atoms: C_2  and  O_3 
REMARK    2  A    between atoms: O_3  and  C_4 
REMARK    3  A    between atoms: C_8  and  C_9 
REMARK    4  A    between atoms: C_9  and  N_10 
REMARK       I    between atoms: N_10  and  C_11 
REMARK       I    between atoms: C_11  and  N_12 
REMARK    5  A    between atoms: N_12  and  C_13 
ROOT
HETATM    1  N   UNL     1      44.075 -12.996   6.103  1.00  0.00    -0.339 N 
HETATM    2  C   UNL     1      43.257 -14.013   6.528  1.00  0.00     0.316 C 
HETATM    3  N   UNL     1      43.913 -15.219   6.529  1.00  0.00    -0.337 N 
HETATM    4  O   UNL     1      42.087 -13.862   6.854  1.00  0.00    -0.247 OA
HETATM    5  H   UNL     1      45.067 -13.136   6.218  1.00  0.00     0.164 HD
HETATM    6  H   UNL     1      44.787 -15.277   6.027  1.00  0.00     0.164 HD
ENDROOT
BRANCH   1   7
HETATM    7  C   UNL     1      43.607 -11.630   6.053  1.00  0.00     0.163 C 
BRANCH   7   8
HETATM    8  C   UNL     1      44.308 -10.770   7.069  1.00  0.00    -0.035 A 
HETATM    9  C   UNL     1      45.697 -10.624   7.046  1.00  0.00     0.028 A 
HETATM   10  C   UNL     1      46.295  -9.823   8.005  1.00  0.00     0.120 A 
HETATM   11  N   UNL     1      45.616  -9.175   8.976  1.00  0.00    -0.237 NA
HETATM   12  C   UNL     1      44.281  -9.330   8.987  1.00  0.00     0.165 A 
HETATM   13  C   UNL     1      43.588 -10.091   8.055  1.00  0.00     0.066 A 
BRANCH  12  14
HETATM   14  O   UNL     1      43.509  -8.680   9.922  1.00  0.00    -0.324 OA
BRANCH  14  15
HETATM   15  C   UNL     1      43.081  -9.387  11.101  1.00  0.00     0.058 C 
HETATM   16  C   UNL     1      43.866 -10.686  11.334  1.00  0.00     0.045 C 
HETATM   17  C   UNL     1      41.562  -9.612  11.136  1.00  0.00     0.045 C 
HETATM   18  C   UNL     1      43.434  -8.423  12.251  1.00  0.00     0.045 C 
ENDBRANCH  14  15
ENDBRANCH  12  14
ENDBRANCH   7   8
ENDBRANCH   1   7
BRANCH   3  19
HETATM   19  C   UNL     1      43.274 -16.451   6.883  1.00  0.00     0.100 A 
HETATM   20  C   UNL     1      42.202 -17.060   6.008  1.00  0.00     0.049 A 
HETATM   21  C   UNL     1      43.562 -17.731   6.139  1.00  0.00     0.024 A 
HETATM   22  C   UNL     1      42.091 -16.716   4.555  1.00  0.00    -0.045 A 
HETATM   23  C   UNL     1      44.247 -17.769   4.781  1.00  0.00     0.046 A 
HETATM   24  C   UNL     1      43.247 -17.115   3.856  1.00  0.00    -0.051 A 
HETATM   25  C   UNL     1      43.389 -16.891   2.496  1.00  0.00     0.007 A 
HETATM   26  C   UNL     1      42.348 -16.251   1.820  1.00  0.00     0.001 A 
HETATM   27  C   UNL     1      41.193 -15.847   2.506  1.00  0.00     0.001 A 
HETATM   28  C   UNL     1      41.062 -16.078   3.878  1.00  0.00     0.008 A 
ENDBRANCH   3  19
TORSDOF 5
ENDMDL
MODEL 4
REMARK VINA RESULT:      -7.9      1.467      2.190
REMARK  5 active torsions:
REMARK  status: ('A' for Active; 'I' for Inactive)
REMARK    1  A    between atoms: C_2  and  O_3 
REMARK    2  A    between atoms: O_3  and  C_4 
REMARK    3  A    between atoms: C_8  and  C_9 
REMARK    4  A    between atoms: C_9  and  N_10 
REMARK       I    between atoms: N_10  and  C_11 
REMARK       I    between atoms: C_11  and  N_12 
REMARK    5  A    between atoms: N_12  and  C_13 
ROOT
HETATM    1  N   UNL     1      42.323 -11.774   6.618  1.00  0.00    -0.339 N 
HETATM    2  C   UNL     1      43.533 -11.142   6.480  1.00  0.00     0.316 C 
HETATM    3  N   UNL     1      44.154 -10.974   7.692  1.00  0.00    -0.337 N 
HETATM    4  O   UNL     1      43.993 -10.765   5.410  1.00  0.00    -0.247 OA
HETATM    5  H   UNL     1      42.209 -12.357   7.433  1.00  0.00     0.164 HD
HETATM    6  H   UNL     1      43.598 -11.103   8.526  1.00  0.00     0.164 HD
ENDROOT
BRANCH   1   7
HETATM    7  C   UNL     1      41.506 -12.088   5.468  1.00  0.00     0.163 C 
BRANCH   7   8
HETATM    8  C   UNL     1      42.034 -13.286   4.728  1.00  0.00    -0.035 A 
HETATM    9  C   UNL     1      42.547 -13.159   3.435  1.00  0.00     0.028 A 
HETATM   10  C   UNL     1      43.019 -14.293   2.795  1.00  0.00     0.120 A 
HETATM   11  N   UNL     1      43.007 -15.528   3.342  1.00  0.00    -0.237 NA
HETATM   12  C   UNL     1      42.505 -15.634   4.584  1.00  0.00     0.165 A 
HETATM   13  C   UNL     1      42.032 -14.553   5.316  1.00  0.00     0.066 A 
BRANCH  12  14
HETATM   14  O   UNL     1      42.483 -16.849   5.229  1.00  0.00    -0.324 OA
BRANCH  14  15
HETATM   15  C   UNL     1      43.722 -17.445   5.657  1.00  0.00     0.058 C 
HETATM   16  C   UNL     1      44.678 -16.430   6.303  1.00  0.00     0.045 C 
HETATM   17  C   UNL     1      44.402 -18.259   4.546  1.00  0.00     0.045 C 
HETATM   18  C   UNL     1      43.287 -18.433   6.758  1.00  0.00     0.045 C 
ENDBRANCH  14  15
ENDBRANCH  12  14
ENDBRANCH   7   8
ENDBRANCH   1   7
BRANCH   3  19
HETATM   19  C   UNL     1      45.410 -10.298   7.836  1.00  0.00     0.100 A 
HETATM   20  C   UNL     1      45.482  -8.879   8.353  1.00  0.00     0.049 A 
HETATM   21  C   UNL     1      46.011 -10.032   9.194  1.00  0.00     0.024 A 
HETATM   22  C   UNL     1      44.378  -8.290   9.175  1.00  0.00    -0.045 A 
HETATM   23  C   UNL     1      45.219 -10.128  10.489  1.00  0.00     0.046 A 
HETATM   24  C   UNL     1      44.225  -8.994  10.386  1.00  0.00    -0.051 A 
HETATM   25  C   UNL     1      43.255  -8.645  11.313  1.00  0.00     0.007 A 
HETATM   26  C   UNL     1      42.419  -7.567  11.019  1.00  0.00     0.001 A 
HETATM   27  C   UNL     1      42.560  -6.860   9.815  1.00  0.00     0.001 A 
HETATM   28  C   UNL     1      43.542  -7.221   8.888  1.00  0.00     0.008 A 
ENDBRANCH   3  19
TORSDOF 5
ENDMDL
MODEL 5
REMARK VINA RESULT:      -7.8      2.260      8.311
REMARK  5 active torsions:
REMARK  status: ('A' for Active; 'I' for Inactive)
REMARK    1  A    between atoms: C_2  and  O_3 
REMARK    2  A    between atoms: O_3  and  C_4 
REMARK    3  A    between atoms: C_8  and  C_9 
REMARK    4  A    between atoms: C_9  and  N_10 
REMARK       I    between atoms: N_10  and  C_11 
REMARK       I    between atoms: C_11  and  N_12 
REMARK    5  A    between atoms: N_12  and  C_13 
ROOT
HETATM    1  N   UNL     1      43.098 -11.853   3.491  1.00  0.00    -0.339 N 
HETATM    2  C   UNL     1      42.586 -12.796   2.635  1.00  0.00     0.316 C 
HETATM    3  N   UNL     1      43.319 -13.955   2.666  1.00  0.00    -0.337 N 
HETATM    4  O   UNL     1      41.604 -12.617   1.926  1.00  0.00    -0.247 OA
HETATM    5  H   UNL     1      43.638 -12.197   4.271  1.00  0.00     0.164 HD
HETATM    6  H   UNL     1      44.231 -13.921   3.099  1.00  0.00     0.164 HD
ENDROOT
BRANCH   1   7
HETATM    7  C   UNL     1      42.466 -10.563   3.650  1.00  0.00     0.163 C 
BRANCH   7   8
HETATM    8  C   UNL     1      42.247 -10.232   5.100  1.00  0.00    -0.035 A 
HETATM    9  C   UNL     1      41.145  -9.474   5.502  1.00  0.00     0.028 A 
HETATM   10  C   UNL     1      40.988  -9.194   6.850  1.00  0.00     0.120 A 
HETATM   11  N   UNL     1      41.846  -9.603   7.809  1.00  0.00    -0.237 NA
HETATM   12  C   UNL     1      42.905 -10.327   7.406  1.00  0.00     0.165 A 
HETATM   13  C   UNL     1      43.134 -10.680   6.083  1.00  0.00     0.066 A 
BRANCH  12  14
HETATM   14  O   UNL     1      43.811 -10.811   8.320  1.00  0.00    -0.324 OA
BRANCH  14  15
HETATM   15  C   UNL     1      44.874  -9.957   8.783  1.00  0.00     0.058 C 
HETATM   16  C   UNL     1      45.181 -10.144  10.276  1.00  0.00     0.045 C 
HETATM   17  C   UNL     1      44.649  -8.482   8.416  1.00  0.00     0.045 C 
HETATM   18  C   UNL     1      46.104 -10.449   7.994  1.00  0.00     0.045 C 
ENDBRANCH  14  15
ENDBRANCH  12  14
ENDBRANCH   7   8
ENDBRANCH   1   7
BRANCH   3  19
HETATM   19  C   UNL     1      43.027 -15.083   1.831  1.00  0.00     0.100 A 
HETATM   20  C   UNL     1      43.189 -16.498   2.339  1.00  0.00     0.049 A 
HETATM   21  C   UNL     1      41.803 -15.934   2.057  1.00  0.00     0.024 A 
HETATM   22  C   UNL     1      43.176 -16.809   3.803  1.00  0.00    -0.045 A 
HETATM   23  C   UNL     1      40.991 -15.902   3.342  1.00  0.00     0.046 A 
HETATM   24  C   UNL     1      41.934 -16.473   4.377  1.00  0.00    -0.051 A 
HETATM   25  C   UNL     1      41.683 -16.656   5.727  1.00  0.00     0.007 A 
HETATM   26  C   UNL     1      42.700 -17.185   6.522  1.00  0.00     0.001 A 
HETATM   27  C   UNL     1      43.943 -17.521   5.963  1.00  0.00     0.001 A 
HETATM   28  C   UNL     1      44.184 -17.332   4.599  1.00  0.00     0.008 A 
ENDBRANCH   3  19
TORSDOF 5
ENDMDL
MODEL 6
REMARK VINA RESULT:      -7.7      2.315      8.800
REMARK  5 active torsions:
REMARK  status: ('A' for Active; 'I' for Inactive)
REMARK    1  A    between atoms: C_2  and  O_3 
REMARK    2  A    between atoms: O_3  and  C_4 
REMARK    3  A    between atoms: C_8  and  C_9 
REMARK    4  A    between atoms: C_9  and  N_10 
REMARK       I    between atoms: N_10  and  C_11 
REMARK       I    between atoms: C_11  and  N_12 
REMARK    5  A    between atoms: N_12  and  C_13 
ROOT
HETATM    1  N   UNL     1      41.356 -11.976   6.026  1.00  0.00    -0.339 N 
HETATM    2  C   UNL     1      40.703 -13.157   6.276  1.00  0.00     0.316 C 
HETATM    3  N   UNL     1      41.569 -14.221   6.277  1.00  0.00    -0.337 N 
HETATM    4  O   UNL     1      39.496 -13.247   6.463  1.00  0.00    -0.247 OA
HETATM    5  H   UNL     1      42.338 -11.946   6.255  1.00  0.00     0.164 HD
HETATM    6  H   UNL     1      42.489 -14.076   5.885  1.00  0.00     0.164 HD
ENDROOT
BRANCH   1   7
HETATM    7  C   UNL     1      40.648 -10.717   6.011  1.00  0.00     0.163 C 
BRANCH   7   8
HETATM    8  C   UNL     1      40.784  -9.992   7.322  1.00  0.00    -0.035 A 
HETATM    9  C   UNL     1      39.658  -9.671   8.082  1.00  0.00     0.028 A 
HETATM   10  C   UNL     1      39.836  -9.001   9.281  1.00  0.00     0.120 A 
HETATM   11  N   UNL     1      41.041  -8.627   9.764  1.00  0.00    -0.237 NA
HETATM   12  C   UNL     1      42.114  -8.940   9.019  1.00  0.00     0.165 A 
HETATM   13  C   UNL     1      42.040  -9.630   7.817  1.00  0.00     0.066 A 
BRANCH  12  14
HETATM   14  O   UNL     1      43.382  -8.625   9.451  1.00  0.00    -0.324 OA
BRANCH  14  15
HETATM   15  C   UNL     1      43.924  -9.296  10.603  1.00  0.00     0.058 C 
HETATM   16  C   UNL     1      43.450 -10.753  10.721  1.00  0.00     0.045 C 
HETATM   17  C   UNL     1      43.706  -8.508  11.904  1.00  0.00     0.045 C 
HETATM   18  C   UNL     1      45.440  -9.326  10.327  1.00  0.00     0.045 C 
ENDBRANCH  14  15
ENDBRANCH  12  14
ENDBRANCH   7   8
ENDBRANCH   1   7
BRANCH   3  19
HETATM   19  C   UNL     1      41.138 -15.575   6.464  1.00  0.00     0.100 A 
HETATM   20  C   UNL     1      40.725 -16.436   5.293  1.00  0.00     0.049 A 
HETATM   21  C   UNL     1      42.005 -16.741   6.059  1.00  0.00     0.024 A 
HETATM   22  C   UNL     1      41.185 -16.134   3.900  1.00  0.00    -0.045 A 
HETATM   23  C   UNL     1      43.203 -16.607   5.131  1.00  0.00     0.046 A 
HETATM   24  C   UNL     1      42.587 -16.228   3.804  1.00  0.00    -0.051 A 
HETATM   25  C   UNL     1      43.253 -15.978   2.614  1.00  0.00     0.007 A 
HETATM   26  C   UNL     1      42.496 -15.624   1.496  1.00  0.00     0.001 A 
HETATM   27  C   UNL     1      41.100 -15.524   1.581  1.00  0.00     0.001 A 
HETATM   28  C   UNL     1      40.439 -15.779   2.786  1.00  0.00     0.008 A 
ENDBRANCH   3  19
TORSDOF 5
ENDMDL
MODEL 7
REMARK VINA RESULT:      -7.7      1.860      2.326
REMARK  5 active torsions:
REMARK  status: ('A' for Active; 'I' for Inactive)
REMARK    1  A    between atoms: C_2  and  O_3 
REMARK    2  A    between atoms: O_3  and  C_4 
REMARK    3  A    between atoms: C_8  and  C_9 
REMARK    4  A    between atoms: C_9  and  N_10 
REMARK       I    between atoms: N_10  and  C_11 
REMARK       I    between atoms: C_11  and  N_12 
REMARK    5  A    between atoms: N_12  and  C_13 
ROOT
HETATM    1  N   UNL     1      43.207 -13.284   7.359  1.00  0.00    -0.339 N 
HETATM    2  C   UNL     1      44.023 -12.182   7.301  1.00  0.00     0.316 C 
HETATM    3  N   UNL     1      43.447 -11.097   7.912  1.00  0.00    -0.337 N 
HETATM    4  O   UNL     1      45.122 -12.170   6.761  1.00  0.00    -0.247 OA
HETATM    5  H   UNL     1      42.535 -13.309   8.111  1.00  0.00     0.164 HD
HETATM    6  H   UNL     1      42.459 -11.143   8.115  1.00  0.00     0.164 HD
ENDROOT
BRANCH   1   7
HETATM    7  C   UNL     1      43.623 -14.554   6.808  1.00  0.00     0.163 C 
BRANCH   7   8
HETATM    8  C   UNL     1      42.594 -15.106   5.860  1.00  0.00    -0.035 A 
HETATM    9  C   UNL     1      41.558 -15.920   6.322  1.00  0.00     0.028 A 
HETATM   10  C   UNL     1      40.637 -16.406   5.408  1.00  0.00     0.120 A 
HETATM   11  N   UNL     1      40.681 -16.145   4.084  1.00  0.00    -0.237 NA
HETATM   12  C   UNL     1      41.687 -15.364   3.654  1.00  0.00     0.165 A 
HETATM   13  C   UNL     1      42.643 -14.811   4.495  1.00  0.00     0.066 A 
BRANCH  12  14
HETATM   14  O   UNL     1      41.789 -15.023   2.325  1.00  0.00    -0.324 OA
BRANCH  14  15
HETATM   15  C   UNL     1      40.710 -14.310   1.692  1.00  0.00     0.058 C 
HETATM   16  C   UNL     1      41.201 -13.259   0.685  1.00  0.00     0.045 C 
HETATM   17  C   UNL     1      39.715 -13.723   2.705  1.00  0.00     0.045 C 
HETATM   18  C   UNL     1      39.971 -15.402   0.894  1.00  0.00     0.045 C 
ENDBRANCH  14  15
ENDBRANCH  12  14
ENDBRANCH   7   8
ENDBRANCH   1   7
BRANCH   3  19
HETATM   19  C   UNL     1      44.068  -9.806   7.950  1.00  0.00     0.100 A 
HETATM   20  C   UNL     1      43.616  -8.747   8.930  1.00  0.00     0.049 A 
HETATM   21  C   UNL     1      44.981  -9.404   9.082  1.00  0.00     0.024 A 
HETATM   22  C   UNL     1      42.885  -9.106  10.186  1.00  0.00    -0.045 A 
HETATM   23  C   UNL     1      45.047 -10.150  10.405  1.00  0.00     0.046 A 
HETATM   24  C   UNL     1      43.691  -9.901  11.025  1.00  0.00    -0.051 A 
HETATM   25  C   UNL     1      43.229 -10.372  12.244  1.00  0.00     0.007 A 
HETATM   26  C   UNL     1      41.929 -10.040  12.630  1.00  0.00     0.001 A 
HETATM   27  C   UNL     1      41.117  -9.251  11.802  1.00  0.00     0.001 A 
HETATM   28  C   UNL     1      41.594  -8.782  10.575  1.00  0.00     0.008 A 
ENDBRANCH   3  19
TORSDOF 5
ENDMDL
MODEL 8
REMARK VINA RESULT:      -7.7      1.736      2.737
REMARK  5 active torsions:
REMARK  status: ('A' for Active; 'I' for Inactive)
REMARK    1  A    between atoms: C_2  and  O_3 
REMARK    2  A    between atoms: O_3  and  C_4 
REMARK    3  A    between atoms: C_8  and  C_9 
REMARK    4  A    between atoms: C_9  and  N_10 
REMARK       I    between atoms: N_10  and  C_11 
REMARK       I    between atoms: C_11  and  N_12 
REMARK    5  A    between atoms: N_12  and  C_13 
ROOT
HETATM    1  N   UNL     1      43.418 -11.353   7.661  1.00  0.00    -0.339 N 
HETATM    2  C   UNL     1      44.168 -11.004   8.756  1.00  0.00     0.316 C 
HETATM    3  N   UNL     1      43.374 -10.666   9.823  1.00  0.00    -0.337 N 
HETATM    4  O   UNL     1      45.392 -10.987   8.773  1.00  0.00    -0.247 OA
HETATM    5  H   UNL     1      42.486 -11.691   7.842  1.00  0.00     0.164 HD
HETATM    6  H   UNL     1      42.397 -10.486   9.641  1.00  0.00     0.164 HD
ENDROOT
BRANCH   1   7
HETATM    7  C   UNL     1      44.043 -11.778   6.430  1.00  0.00     0.163 C 
BRANCH   7   8
HETATM    8  C   UNL     1      43.564 -13.141   6.012  1.00  0.00    -0.035 A 
HETATM    9  C   UNL     1      43.909 -14.278   6.747  1.00  0.00     0.028 A 
HETATM   10  C   UNL     1      43.445 -15.511   6.320  1.00  0.00     0.120 A 
HETATM   11  N   UNL     1      42.679 -15.688   5.221  1.00  0.00    -0.237 NA
HETATM   12  C   UNL     1      42.360 -14.586   4.522  1.00  0.00     0.165 A 
HETATM   13  C   UNL     1      42.757 -13.305   4.883  1.00  0.00     0.066 A 
BRANCH  12  14
HETATM   14  O   UNL     1      41.558 -14.672   3.407  1.00  0.00    -0.324 OA
BRANCH  14  15
HETATM   15  C   UNL     1      42.027 -15.392   2.252  1.00  0.00     0.058 C 
HETATM   16  C   UNL     1      41.852 -16.912   2.387  1.00  0.00     0.045 C 
HETATM   17  C   UNL     1      43.460 -15.006   1.856  1.00  0.00     0.045 C 
HETATM   18  C   UNL     1      41.089 -14.919   1.124  1.00  0.00     0.045 C 
ENDBRANCH  14  15
ENDBRANCH  12  14
ENDBRANCH   7   8
ENDBRANCH   1   7
BRANCH   3  19
HETATM   19  C   UNL     1      43.904 -10.217  11.076  1.00  0.00     0.100 A 
HETATM   20  C   UNL     1      43.824  -8.764  11.486  1.00  0.00     0.049 A 
HETATM   21  C   UNL     1      43.001  -9.816  12.216  1.00  0.00     0.024 A 
HETATM   22  C   UNL     1      42.808  -7.839  10.892  1.00  0.00    -0.045 A 
HETATM   23  C   UNL     1      41.519  -9.521  12.041  1.00  0.00     0.046 A 
HETATM   24  C   UNL     1      41.501  -8.264  11.202  1.00  0.00    -0.051 A 
HETATM   25  C   UNL     1      40.386  -7.576  10.751  1.00  0.00     0.007 A 
HETATM   26  C   UNL     1      40.585  -6.437   9.968  1.00  0.00     0.001 A 
HETATM   27  C   UNL     1      41.881  -6.006   9.650  1.00  0.00     0.001 A 
HETATM   28  C   UNL     1      42.998  -6.708  10.111  1.00  0.00     0.008 A 
ENDBRANCH   3  19
TORSDOF 5
ENDMDL
MODEL 9
REMARK VINA RESULT:      -7.6      3.863      9.925
REMARK  5 active torsions:
REMARK  status: ('A' for Active; 'I' for Inactive)
REMARK    1  A    between atoms: C_2  and  O_3 
REMARK    2  A    between atoms: O_3  and  C_4 
REMARK    3  A    between atoms: C_8  and  C_9 
REMARK    4  A    between atoms: C_9  and  N_10 
REMARK       I    between atoms: N_10  and  C_11 
REMARK       I    between atoms: C_11  and  N_12 
REMARK    5  A    between atoms: N_12  and  C_13 
ROOT
HETATM    1  N   UNL     1      43.107 -10.753  10.514  1.00  0.00    -0.339 N 
HETATM    2  C   UNL     1      44.119 -10.847   9.592  1.00  0.00     0.316 C 
HETATM    3  N   UNL     1      43.653 -11.277   8.375  1.00  0.00    -0.337 N 
HETATM    4  O   UNL     1      45.292 -10.590   9.832  1.00  0.00    -0.247 OA
HETATM    5  H   UNL     1      42.176 -10.618  10.149  1.00  0.00     0.164 HD
HETATM    6  H   UNL     1      42.728 -11.681   8.344  1.00  0.00     0.164 HD
ENDROOT
BRANCH   1   7
HETATM    7  C   UNL     1      43.359 -10.287  11.858  1.00  0.00     0.163 C 
BRANCH   7   8
HETATM    8  C   UNL     1      42.147  -9.617  12.445  1.00  0.00    -0.035 A 
HETATM    9  C   UNL     1      41.022  -9.357  11.659  1.00  0.00     0.028 A 
HETATM   10  C   UNL     1      39.932  -8.736  12.246  1.00  0.00     0.120 A 
HETATM   11  N   UNL     1      39.889  -8.353  13.540  1.00  0.00    -0.237 NA
HETATM   12  C   UNL     1      40.981  -8.606  14.282  1.00  0.00     0.165 A 
HETATM   13  C   UNL     1      42.111  -9.245  13.792  1.00  0.00     0.066 A 
BRANCH  12  14
HETATM   14  O   UNL     1      41.011  -8.278  15.618  1.00  0.00    -0.324 OA
BRANCH  14  15
HETATM   15  C   UNL     1      41.224  -6.908  16.005  1.00  0.00     0.058 C 
HETATM   16  C   UNL     1      41.712  -6.030  14.843  1.00  0.00     0.045 C 
HETATM   17  C   UNL     1      42.119  -6.777  17.247  1.00  0.00     0.045 C 
HETATM   18  C   UNL     1      39.815  -6.417  16.394  1.00  0.00     0.045 C 
ENDBRANCH  14  15
ENDBRANCH  12  14
ENDBRANCH   7   8
ENDBRANCH   1   7
BRANCH   3  19
HETATM   19  C   UNL     1      44.512 -11.507   7.251  1.00  0.00     0.100 A 
HETATM   20  C   UNL     1      44.508 -12.829   6.518  1.00  0.00     0.049 A 
HETATM   21  C   UNL     1      43.968 -11.575   5.845  1.00  0.00     0.024 A 
HETATM   22  C   UNL     1      43.333 -13.755   6.584  1.00  0.00    -0.045 A 
HETATM   23  C   UNL     1      42.491 -11.757   5.531  1.00  0.00     0.046 A 
HETATM   24  C   UNL     1      42.188 -13.153   6.026  1.00  0.00    -0.051 A 
HETATM   25  C   UNL     1      40.968 -13.809   5.984  1.00  0.00     0.007 A 
HETATM   26  C   UNL     1      40.893 -15.098   6.514  1.00  0.00     0.001 A 
HETATM   27  C   UNL     1      42.026 -15.707   7.074  1.00  0.00     0.001 A 
HETATM   28  C   UNL     1      43.251 -15.036   7.111  1.00  0.00     0.008 A 
ENDBRANCH   3  19
TORSDOF 5
ENDMDL
MODEL 10
REMARK VINA RESULT:      -7.6      2.261      3.727
REMARK  5 active torsions:
REMARK  status: ('A' for Active; 'I' for Inactive)
REMARK    1  A    between atoms: C_2  and  O_3 
REMARK    2  A    between atoms: O_3  and  C_4 
REMARK    3  A    between atoms: C_8  and  C_9 
REMARK    4  A    between atoms: C_9  and  N_10 
REMARK       I    between atoms: N_10  and  C_11 
REMARK       I    between atoms: C_11  and  N_12 
REMARK    5  A    between atoms: N_12  and  C_13 
ROOT
HETATM    1  N   UNL     1      39.867 -10.816   7.440  1.00  0.00    -0.339 N 
HETATM    2  C   UNL     1      39.741  -9.607   8.077  1.00  0.00     0.316 C 
HETATM    3  N   UNL     1      40.705  -9.442   9.040  1.00  0.00    -0.337 N 
HETATM    4  O   UNL     1      38.869  -8.785   7.824  1.00  0.00    -0.247 OA
HETATM    5  H   UNL     1      40.785 -11.234   7.444  1.00  0.00     0.164 HD
HETATM    6  H   UNL     1      41.222 -10.260   9.330  1.00  0.00     0.164 HD
ENDROOT
BRANCH   1   7
HETATM    7  C   UNL     1      38.979 -11.192   6.364  1.00  0.00     0.163 C 
BRANCH   7   8
HETATM    8  C   UNL     1      39.555 -12.311   5.541  1.00  0.00    -0.035 A 
HETATM    9  C   UNL     1      39.481 -12.284   4.146  1.00  0.00     0.028 A 
HETATM   10  C   UNL     1      40.025 -13.340   3.433  1.00  0.00     0.120 A 
HETATM   11  N   UNL     1      40.621 -14.409   4.005  1.00  0.00    -0.237 NA
HETATM   12  C   UNL     1      40.680 -14.421   5.348  1.00  0.00     0.165 A 
HETATM   13  C   UNL     1      40.186 -13.400   6.148  1.00  0.00     0.066 A 
BRANCH  12  14
HETATM   14  O   UNL     1      41.298 -15.457   6.011  1.00  0.00    -0.324 OA
BRANCH  14  15
HETATM   15  C   UNL     1      42.735 -15.500   6.072  1.00  0.00     0.058 C 
HETATM   16  C   UNL     1      43.373 -14.103   6.089  1.00  0.00     0.045 C 
HETATM   17  C   UNL     1      43.346 -16.403   4.990  1.00  0.00     0.045 C 
HETATM   18  C   UNL     1      43.021 -16.154   7.439  1.00  0.00     0.045 C 
ENDBRANCH  14  15
ENDBRANCH  12  14
ENDBRANCH   7   8
ENDBRANCH   1   7
BRANCH   3  19
HETATM   19  C   UNL     1      40.770  -8.287   9.886  1.00  0.00     0.100 A 
HETATM   20  C   UNL     1      42.005  -7.982  10.703  1.00  0.00     0.049 A 
HETATM   21  C   UNL     1      41.621  -7.095   9.527  1.00  0.00     0.024 A 
HETATM   22  C   UNL     1      43.345  -8.538  10.332  1.00  0.00    -0.045 A 
HETATM   23  C   UNL     1      42.716  -7.139   8.472  1.00  0.00     0.046 A 
HETATM   24  C   UNL     1      43.752  -8.064   9.069  1.00  0.00    -0.051 A 
HETATM   25  C   UNL     1      44.955  -8.450   8.500  1.00  0.00     0.007 A 
HETATM   26  C   UNL     1      45.769  -9.332   9.213  1.00  0.00     0.001 A 
HETATM   27  C   UNL     1      45.373  -9.813  10.470  1.00  0.00     0.001 A 
HETATM   28  C   UNL     1      44.157  -9.416  11.033  1.00  0.00     0.008 A 
ENDBRANCH   3  19
TORSDOF 5
ENDMDL
