MODEL 1
REMARK VINA RESULT:      -8.1      0.000      0.000
REMARK  10 active torsions:
REMARK  status: ('A' for Active; 'I' for Inactive)
REMARK    1  A    between atoms: C_3  and  C_4 
REMARK    2  A    between atoms: C_4  and  C_5 
REMARK       I    between atoms: C_5  and  N_6 
REMARK    3  A    between atoms: N_6  and  C_7 
REMARK    4  A    between atoms: C_7  and  C_8 
REMARK    5  A    between atoms: C_18  and  N_19 
REMARK    6  A    between atoms: N_19  and  C_20 
REMARK    7  A    between atoms: C_20  and  C_21 
REMARK    8  A    between atoms: C_26  and  C_27 
REMARK    9  A    between atoms: C_27  and  O_28 
REMARK   10  A    between atoms: C_30  and  O_31 
ROOT
HETATM    1  C   UNL     1      43.662 -14.612   2.037  1.00  0.00     0.016 C 
HETATM    2  C   UNL     1      42.348 -14.331   2.848  1.00  0.00    -0.030 C 
HETATM    3  C   UNL     1      42.757 -14.580   4.386  1.00  0.00     0.056 C 
HETATM    4  C   UNL     1      43.265 -13.306   5.014  1.00  0.00     0.056 A 
HETATM    5  C   UNL     1      43.290 -12.078   4.398  1.00  0.00     0.012 A 
HETATM    6  S   UNL     1      43.947 -10.900   5.438  1.00  0.00    -0.055 SA
HETATM    7  C   UNL     1      44.231 -12.120   6.623  1.00  0.00     0.167 A 
HETATM    8  N   UNL     1      43.824 -13.319   6.277  1.00  0.00    -0.228 NA
HETATM    9  C   UNL     1      42.866 -11.772   3.013  1.00  0.00     0.055 C 
HETATM   10  C   UNL     1      41.887 -12.847   2.473  1.00  0.00     0.012 C 
HETATM   11  C   UNL     1      40.358 -12.483   2.675  1.00  0.00     0.008 C 
HETATM   12  C   UNL     1      40.019 -11.207   1.843  1.00  0.00     0.020 C 
HETATM   13  C   UNL     1      39.481 -13.629   2.089  1.00  0.00     0.128 C 
HETATM   14  C   UNL     1      39.860 -15.012   2.600  1.00  0.00     0.033 C 
HETATM   15  C   UNL     1      41.312 -15.343   2.294  1.00  0.00     0.013 C 
ENDROOT
BRANCH   3  16
HETATM   16  C   UNL     1      41.725 -15.311   5.266  1.00  0.00     0.114 C 
BRANCH  16  17
HETATM   17  C   UNL     1      42.334 -16.112   6.403  1.00  0.00     0.218 C 
HETATM   18  N   UNL     1      43.485 -16.817   6.194  1.00  0.00    -0.357 N 
HETATM   19  H   UNL     1      43.863 -17.205   7.046  1.00  0.00     0.162 HD
HETATM   20  O   UNL     1      41.847 -16.081   7.534  1.00  0.00    -0.274 OA
BRANCH  18  21
HETATM   21  C   UNL     1      44.209 -16.980   4.949  1.00  0.00     0.162 C 
BRANCH  21  22
HETATM   22  C   UNL     1      44.013 -18.285   4.230  1.00  0.00    -0.023 A 
HETATM   23  C   UNL     1      44.218 -19.539   4.795  1.00  0.00     0.125 A 
HETATM   24  N   UNL     1      44.019 -20.715   4.149  1.00  0.00    -0.273 NA
HETATM   25  C   UNL     1      43.579 -20.642   2.877  1.00  0.00     0.116 A 
HETATM   26  C   UNL     1      43.336 -19.452   2.216  1.00  0.00     0.020 A 
HETATM   27  C   UNL     1      43.561 -18.263   2.903  1.00  0.00     0.012 A 
ENDBRANCH  21  22
ENDBRANCH  18  21
ENDBRANCH  16  17
ENDBRANCH   3  16
BRANCH  11  28
HETATM   28  C   UNL     1      39.994 -12.156   4.147  1.00  0.00     0.176 C 
BRANCH  28  29
HETATM   29  O   UNL     1      38.966 -11.176   4.267  1.00  0.00    -0.400 OA
HETATM   30  H   UNL     1      39.166 -10.483   3.600  1.00  0.00     0.209 HD
ENDBRANCH  28  29
ENDBRANCH  11  28
BRANCH   7  31
HETATM   31  N   UNL     1      44.824 -11.791   7.788  1.00  0.00    -0.366 N 
HETATM   32  H   UNL     1      44.320 -11.949   8.650  1.00  0.00     0.162 HD
BRANCH  31  33
HETATM   33  C   UNL     1      45.820 -10.747   7.841  1.00  0.00     0.148 C 
BRANCH  33  34
HETATM   34  C   UNL     1      45.591  -9.820   9.005  1.00  0.00    -0.018 C 
HETATM   35  C   UNL     1      44.982 -10.072  10.174  1.00  0.00     0.008 C 
ENDBRANCH  33  34
ENDBRANCH  31  33
ENDBRANCH   7  31
BRANCH  13  36
HETATM   36  O   UNL     1      38.099 -13.411   2.384  1.00  0.00    -0.395 OA
HETATM   37  H   UNL     1      37.864 -13.999   3.126  1.00  0.00     0.210 HD
ENDBRANCH  13  36
TORSDOF 10
ENDMDL
MODEL 2
REMARK VINA RESULT:      -7.9      3.169      5.963
REMARK  10 active torsions:
REMARK  status: ('A' for Active; 'I' for Inactive)
REMARK    1  A    between atoms: C_3  and  C_4 
REMARK    2  A    between atoms: C_4  and  C_5 
REMARK       I    between atoms: C_5  and  N_6 
REMARK    3  A    between atoms: N_6  and  C_7 
REMARK    4  A    between atoms: C_7  and  C_8 
REMARK    5  A    between atoms: C_18  and  N_19 
REMARK    6  A    between atoms: N_19  and  C_20 
REMARK    7  A    between atoms: C_20  and  C_21 
REMARK    8  A    between atoms: C_26  and  C_27 
REMARK    9  A    between atoms: C_27  and  O_28 
REMARK   10  A    between atoms: C_30  and  O_31 
ROOT
HETATM    1  C   UNL     1      40.316 -14.761   6.132  1.00  0.00     0.016 C 
HETATM    2  C   UNL     1      41.398 -13.784   5.550  1.00  0.00    -0.030 C 
HETATM    3  C   UNL     1      41.542 -14.210   4.003  1.00  0.00     0.056 C 
HETATM    4  C   UNL     1      40.570 -13.438   3.146  1.00  0.00     0.056 A 
HETATM    5  C   UNL     1      39.739 -12.441   3.597  1.00  0.00     0.012 A 
HETATM    6  S   UNL     1      38.790 -11.830   2.322  1.00  0.00    -0.055 SA
HETATM    7  C   UNL     1      39.491 -12.990   1.257  1.00  0.00     0.167 A 
HETATM    8  N   UNL     1      40.403 -13.755   1.812  1.00  0.00    -0.228 NA
HETATM    9  C   UNL     1      39.609 -11.958   4.992  1.00  0.00     0.055 C 
HETATM   10  C   UNL     1      40.871 -12.300   5.826  1.00  0.00     0.012 C 
HETATM   11  C   UNL     1      41.947 -11.138   5.868  1.00  0.00     0.008 C 
HETATM   12  C   UNL     1      41.337  -9.898   6.592  1.00  0.00     0.020 C 
HETATM   13  C   UNL     1      43.156 -11.596   6.737  1.00  0.00     0.128 C 
HETATM   14  C   UNL     1      43.723 -12.950   6.332  1.00  0.00     0.033 C 
HETATM   15  C   UNL     1      42.667 -14.042   6.401  1.00  0.00     0.013 C 
ENDROOT
BRANCH   3  16
HETATM   16  C   UNL     1      42.969 -14.228   3.421  1.00  0.00     0.114 C 
BRANCH  16  17
HETATM   17  C   UNL     1      43.245 -15.395   2.489  1.00  0.00     0.218 C 
HETATM   18  N   UNL     1      43.562 -16.617   3.010  1.00  0.00    -0.357 N 
HETATM   19  H   UNL     1      43.600 -17.341   2.307  1.00  0.00     0.162 HD
HETATM   20  O   UNL     1      43.117 -15.277   1.269  1.00  0.00    -0.274 OA
BRANCH  18  21
HETATM   21  C   UNL     1      43.759 -16.961   4.404  1.00  0.00     0.162 C 
BRANCH  21  22
HETATM   22  C   UNL     1      43.781 -18.429   4.730  1.00  0.00    -0.023 A 
HETATM   23  C   UNL     1      43.573 -18.961   5.998  1.00  0.00     0.125 A 
HETATM   24  N   UNL     1      43.572 -20.286   6.285  1.00  0.00    -0.273 NA
HETATM   25  C   UNL     1      43.775 -21.131   5.253  1.00  0.00     0.116 A 
HETATM   26  C   UNL     1      43.987 -20.714   3.952  1.00  0.00     0.020 A 
HETATM   27  C   UNL     1      43.993 -19.347   3.693  1.00  0.00     0.012 A 
ENDBRANCH  21  22
ENDBRANCH  18  21
ENDBRANCH  16  17
ENDBRANCH   3  16
BRANCH  11  28
HETATM   28  C   UNL     1      42.383 -10.654   4.461  1.00  0.00     0.176 C 
BRANCH  28  29
HETATM   29  O   UNL     1      41.948  -9.330   4.163  1.00  0.00    -0.400 OA
HETATM   30  H   UNL     1      42.691  -8.895   3.689  1.00  0.00     0.209 HD
ENDBRANCH  28  29
ENDBRANCH  11  28
BRANCH   7  31
HETATM   31  N   UNL     1      39.087 -13.044  -0.027  1.00  0.00    -0.366 N 
HETATM   32  H   UNL     1      38.181 -12.665  -0.266  1.00  0.00     0.162 HD
BRANCH  31  33
HETATM   33  C   UNL     1      39.577 -14.074  -0.913  1.00  0.00     0.148 C 
BRANCH  33  34
HETATM   34  C   UNL     1      39.111 -13.856  -2.328  1.00  0.00    -0.018 C 
HETATM   35  C   UNL     1      38.478 -14.710  -3.147  1.00  0.00     0.008 C 
ENDBRANCH  33  34
ENDBRANCH  31  33
ENDBRANCH   7  31
BRANCH  13  36
HETATM   36  O   UNL     1      44.215 -10.637   6.679  1.00  0.00    -0.395 OA
HETATM   37  H   UNL     1      44.474 -10.435   7.598  1.00  0.00     0.210 HD
ENDBRANCH  13  36
TORSDOF 10
ENDMDL
MODEL 3
REMARK VINA RESULT:      -7.9      2.489      2.884
REMARK  10 active torsions:
REMARK  status: ('A' for Active; 'I' for Inactive)
REMARK    1  A    between atoms: C_3  and  C_4 
REMARK    2  A    between atoms: C_4  and  C_5 
REMARK       I    between atoms: C_5  and  N_6 
REMARK    3  A    between atoms: N_6  and  C_7 
REMARK    4  A    between atoms: C_7  and  C_8 
REMARK    5  A    between atoms: C_18  and  N_19 
REMARK    6  A    between atoms: N_19  and  C_20 
REMARK    7  A    between atoms: C_20  and  C_21 
REMARK    8  A    between atoms: C_26  and  C_27 
REMARK    9  A    between atoms: C_27  and  O_28 
REMARK   10  A    between atoms: C_30  and  O_31 
ROOT
HETATM    1  C   UNL     1      43.693 -12.777   2.988  1.00  0.00     0.016 C 
HETATM    2  C   UNL     1      42.260 -13.380   2.775  1.00  0.00    -0.030 C 
HETATM    3  C   UNL     1      41.704 -13.650   4.262  1.00  0.00     0.056 C 
HETATM    4  C   UNL     1      40.976 -12.436   4.786  1.00  0.00     0.056 A 
HETATM    5  C   UNL     1      40.732 -11.291   4.068  1.00  0.00     0.012 A 
HETATM    6  S   UNL     1      39.895 -10.154   5.020  1.00  0.00    -0.055 SA
HETATM    7  C   UNL     1      39.977 -11.233   6.362  1.00  0.00     0.167 A 
HETATM    8  N   UNL     1      40.557 -12.381   6.101  1.00  0.00    -0.228 NA
HETATM    9  C   UNL     1      41.156 -11.010   2.677  1.00  0.00     0.055 C 
HETATM   10  C   UNL     1      41.443 -12.320   1.899  1.00  0.00     0.012 C 
HETATM   11  C   UNL     1      40.205 -12.858   1.068  1.00  0.00     0.008 C 
HETATM   12  C   UNL     1      39.846 -11.825  -0.045  1.00  0.00     0.020 C 
HETATM   13  C   UNL     1      40.618 -14.166   0.330  1.00  0.00     0.128 C 
HETATM   14  C   UNL     1      41.251 -15.209   1.241  1.00  0.00     0.033 C 
HETATM   15  C   UNL     1      42.488 -14.666   1.939  1.00  0.00     0.013 C 
ENDROOT
BRANCH   3  16
HETATM   16  C   UNL     1      40.921 -14.958   4.482  1.00  0.00     0.114 C 
BRANCH  16  17
HETATM   17  C   UNL     1      41.359 -15.747   5.704  1.00  0.00     0.218 C 
HETATM   18  N   UNL     1      42.536 -16.437   5.678  1.00  0.00    -0.357 N 
HETATM   19  H   UNL     1      42.784 -16.816   6.581  1.00  0.00     0.162 HD
HETATM   20  O   UNL     1      40.703 -15.716   6.747  1.00  0.00    -0.274 OA
BRANCH  18  21
HETATM   21  C   UNL     1      43.445 -16.596   4.560  1.00  0.00     0.162 C 
BRANCH  21  22
HETATM   22  C   UNL     1      43.576 -17.985   4.001  1.00  0.00    -0.023 A 
HETATM   23  C   UNL     1      44.046 -19.085   4.711  1.00  0.00     0.125 A 
HETATM   24  N   UNL     1      44.143 -20.340   4.209  1.00  0.00    -0.273 NA
HETATM   25  C   UNL     1      43.736 -20.518   2.936  1.00  0.00     0.116 A 
HETATM   26  C   UNL     1      43.248 -19.500   2.138  1.00  0.00     0.020 A 
HETATM   27  C   UNL     1      43.172 -18.220   2.679  1.00  0.00     0.012 A 
ENDBRANCH  21  22
ENDBRANCH  18  21
ENDBRANCH  16  17
ENDBRANCH   3  16
BRANCH  11  28
HETATM   28  C   UNL     1      38.925 -13.043   1.923  1.00  0.00     0.176 C 
BRANCH  28  29
HETATM   29  O   UNL     1      37.903 -12.099   1.616  1.00  0.00    -0.400 OA
HETATM   30  H   UNL     1      37.055 -12.507   1.897  1.00  0.00     0.209 HD
ENDBRANCH  28  29
ENDBRANCH  11  28
BRANCH   7  31
HETATM   31  N   UNL     1      39.463 -10.857   7.550  1.00  0.00    -0.366 N 
HETATM   32  H   UNL     1      38.525 -11.154   7.786  1.00  0.00     0.162 HD
BRANCH  31  33
HETATM   33  C   UNL     1      39.908  -9.647   8.199  1.00  0.00     0.148 C 
BRANCH  33  34
HETATM   34  C   UNL     1      39.185  -9.417   9.500  1.00  0.00    -0.018 C 
HETATM   35  C   UNL     1      38.742  -8.264  10.023  1.00  0.00     0.008 C 
ENDBRANCH  33  34
ENDBRANCH  31  33
ENDBRANCH   7  31
BRANCH  13  36
HETATM   36  O   UNL     1      39.489 -14.764  -0.311  1.00  0.00    -0.395 OA
HETATM   37  H   UNL     1      39.627 -14.687  -1.274  1.00  0.00     0.210 HD
ENDBRANCH  13  36
TORSDOF 10
ENDMDL
MODEL 4
REMARK VINA RESULT:      -7.9      2.412      7.294
REMARK  10 active torsions:
REMARK  status: ('A' for Active; 'I' for Inactive)
REMARK    1  A    between atoms: C_3  and  C_4 
REMARK    2  A    between atoms: C_4  and  C_5 
REMARK       I    between atoms: C_5  and  N_6 
REMARK    3  A    between atoms: N_6  and  C_7 
REMARK    4  A    between atoms: C_7  and  C_8 
REMARK    5  A    between atoms: C_18  and  N_19 
REMARK    6  A    between atoms: N_19  and  C_20 
REMARK    7  A    between atoms: C_20  and  C_21 
REMARK    8  A    between atoms: C_26  and  C_27 
REMARK    9  A    between atoms: C_27  and  O_28 
REMARK   10  A    between atoms: C_30  and  O_31 
ROOT
HETATM    1  C   UNL     1      39.456 -12.894   6.043  1.00  0.00     0.016 C 
HETATM    2  C   UNL     1      40.547 -12.204   5.150  1.00  0.00    -0.030 C 
HETATM    3  C   UNL     1      41.754 -13.268   5.086  1.00  0.00     0.056 C 
HETATM    4  C   UNL     1      41.574 -14.206   3.918  1.00  0.00     0.056 A 
HETATM    5  C   UNL     1      40.576 -14.116   2.978  1.00  0.00     0.012 A 
HETATM    6  S   UNL     1      40.716 -15.368   1.833  1.00  0.00    -0.055 SA
HETATM    7  C   UNL     1      42.058 -16.004   2.707  1.00  0.00     0.167 A 
HETATM    8  N   UNL     1      42.402 -15.302   3.762  1.00  0.00    -0.228 NA
HETATM    9  C   UNL     1      39.479 -13.121   2.944  1.00  0.00     0.055 C 
HETATM   10  C   UNL     1      39.843 -11.852   3.758  1.00  0.00     0.012 C 
HETATM   11  C   UNL     1      40.484 -10.693   2.887  1.00  0.00     0.008 C 
HETATM   12  C   UNL     1      39.434 -10.191   1.848  1.00  0.00     0.020 C 
HETATM   13  C   UNL     1      40.796  -9.478   3.810  1.00  0.00     0.128 C 
HETATM   14  C   UNL     1      41.606  -9.842   5.047  1.00  0.00     0.033 C 
HETATM   15  C   UNL     1      40.897 -10.889   5.892  1.00  0.00     0.013 C 
ENDROOT
BRANCH   3  16
HETATM   16  C   UNL     1      43.183 -12.700   5.182  1.00  0.00     0.114 C 
BRANCH  16  17
HETATM   17  C   UNL     1      43.964 -13.185   6.391  1.00  0.00     0.218 C 
HETATM   18  N   UNL     1      44.517 -12.278   7.248  1.00  0.00    -0.357 N 
HETATM   19  H   UNL     1      44.901 -12.710   8.076  1.00  0.00     0.162 HD
HETATM   20  O   UNL     1      44.047 -14.386   6.652  1.00  0.00    -0.274 OA
BRANCH  18  21
HETATM   21  C   UNL     1      44.530 -10.834   7.122  1.00  0.00     0.162 C 
BRANCH  21  22
HETATM   22  C   UNL     1      44.199 -10.053   8.363  1.00  0.00    -0.023 A 
HETATM   23  C   UNL     1      43.044  -9.299   8.541  1.00  0.00     0.125 A 
HETATM   24  N   UNL     1      42.739  -8.614   9.670  1.00  0.00    -0.273 NA
HETATM   25  C   UNL     1      43.622  -8.694  10.686  1.00  0.00     0.116 A 
HETATM   26  C   UNL     1      44.799  -9.417  10.624  1.00  0.00     0.020 A 
HETATM   27  C   UNL     1      45.088 -10.100   9.446  1.00  0.00     0.012 A 
ENDBRANCH  21  22
ENDBRANCH  18  21
ENDBRANCH  16  17
ENDBRANCH   3  16
BRANCH  11  28
HETATM   28  C   UNL     1      41.722 -11.149   2.073  1.00  0.00     0.176 C 
BRANCH  28  29
HETATM   29  O   UNL     1      42.150 -10.186   1.115  1.00  0.00    -0.400 OA
HETATM   30  H   UNL     1      41.561 -10.289   0.336  1.00  0.00     0.209 HD
ENDBRANCH  28  29
ENDBRANCH  11  28
BRANCH   7  31
HETATM   31  N   UNL     1      42.657 -17.133   2.279  1.00  0.00    -0.366 N 
HETATM   32  H   UNL     1      42.195 -17.687   1.571  1.00  0.00     0.162 HD
BRANCH  31  33
HETATM   33  C   UNL     1      43.564 -17.860   3.136  1.00  0.00     0.148 C 
BRANCH  33  34
HETATM   34  C   UNL     1      43.867 -19.230   2.588  1.00  0.00    -0.018 C 
HETATM   35  C   UNL     1      43.040 -20.094   1.981  1.00  0.00     0.008 C 
ENDBRANCH  33  34
ENDBRANCH  31  33
ENDBRANCH   7  31
BRANCH  13  36
HETATM   36  O   UNL     1      41.511  -8.468   3.094  1.00  0.00    -0.395 OA
HETATM   37  H   UNL     1      41.553  -8.749   2.161  1.00  0.00     0.210 HD
ENDBRANCH  13  36
TORSDOF 10
ENDMDL
MODEL 5
REMARK VINA RESULT:      -7.4      1.980      2.399
REMARK  10 active torsions:
REMARK  status: ('A' for Active; 'I' for Inactive)
REMARK    1  A    between atoms: C_3  and  C_4 
REMARK    2  A    between atoms: C_4  and  C_5 
REMARK       I    between atoms: C_5  and  N_6 
REMARK    3  A    between atoms: N_6  and  C_7 
REMARK    4  A    between atoms: C_7  and  C_8 
REMARK    5  A    between atoms: C_18  and  N_19 
REMARK    6  A    between atoms: N_19  and  C_20 
REMARK    7  A    between atoms: C_20  and  C_21 
REMARK    8  A    between atoms: C_26  and  C_27 
REMARK    9  A    between atoms: C_27  and  O_28 
REMARK   10  A    between atoms: C_30  and  O_31 
ROOT
HETATM    1  C   UNL     1      43.873 -11.738   3.222  1.00  0.00     0.016 C 
HETATM    2  C   UNL     1      42.500 -12.196   3.828  1.00  0.00    -0.030 C 
HETATM    3  C   UNL     1      42.734 -12.187   5.422  1.00  0.00     0.056 C 
HETATM    4  C   UNL     1      42.394 -10.836   6.002  1.00  0.00     0.056 A 
HETATM    5  C   UNL     1      41.867  -9.783   5.294  1.00  0.00     0.012 A 
HETATM    6  S   UNL     1      41.639  -8.435   6.309  1.00  0.00    -0.055 SA
HETATM    7  C   UNL     1      42.332  -9.315   7.619  1.00  0.00     0.167 A 
HETATM    8  N   UNL     1      42.673 -10.548   7.324  1.00  0.00    -0.228 NA
HETATM    9  C   UNL     1      41.567  -9.751   3.844  1.00  0.00     0.055 C 
HETATM   10  C   UNL     1      41.394 -11.183   3.273  1.00  0.00     0.012 C 
HETATM   11  C   UNL     1      39.892 -11.685   3.243  1.00  0.00     0.008 C 
HETATM   12  C   UNL     1      39.068 -10.785   2.270  1.00  0.00     0.020 C 
HETATM   13  C   UNL     1      39.849 -13.123   2.645  1.00  0.00     0.128 C 
HETATM   14  C   UNL     1      40.812 -14.093   3.316  1.00  0.00     0.033 C 
HETATM   15  C   UNL     1      42.249 -13.604   3.230  1.00  0.00     0.013 C 
ENDROOT
BRANCH   3  16
HETATM   16  C   UNL     1      42.116 -13.352   6.218  1.00  0.00     0.114 C 
BRANCH  16  17
HETATM   17  C   UNL     1      43.128 -14.188   6.982  1.00  0.00     0.218 C 
HETATM   18  N   UNL     1      43.195 -15.534   6.767  1.00  0.00    -0.357 N 
HETATM   19  H   UNL     1      43.982 -15.964   7.232  1.00  0.00     0.162 HD
HETATM   20  O   UNL     1      43.941 -13.661   7.743  1.00  0.00    -0.274 OA
BRANCH  18  21
HETATM   21  C   UNL     1      42.337 -16.340   5.920  1.00  0.00     0.162 C 
BRANCH  21  22
HETATM   22  C   UNL     1      43.030 -17.264   4.958  1.00  0.00    -0.023 A 
HETATM   23  C   UNL     1      43.819 -18.347   5.329  1.00  0.00     0.125 A 
HETATM   24  N   UNL     1      44.425 -19.191   4.458  1.00  0.00    -0.273 NA
HETATM   25  C   UNL     1      44.224 -18.956   3.145  1.00  0.00     0.116 A 
HETATM   26  C   UNL     1      43.455 -17.913   2.662  1.00  0.00     0.020 A 
HETATM   27  C   UNL     1      42.856 -17.058   3.582  1.00  0.00     0.012 A 
ENDBRANCH  21  22
ENDBRANCH  18  21
ENDBRANCH  16  17
ENDBRANCH   3  16
BRANCH  11  28
HETATM   28  C   UNL     1      39.187 -11.599   4.622  1.00  0.00     0.176 C 
BRANCH  28  29
HETATM   29  O   UNL     1      39.043 -12.865   5.259  1.00  0.00    -0.400 OA
HETATM   30  H   UNL     1      39.884 -13.031   5.738  1.00  0.00     0.209 HD
ENDBRANCH  28  29
ENDBRANCH  11  28
BRANCH   7  31
HETATM   31  N   UNL     1      42.476  -8.720   8.819  1.00  0.00    -0.366 N 
HETATM   32  H   UNL     1      43.166  -7.987   8.916  1.00  0.00     0.162 HD
BRANCH  31  33
HETATM   33  C   UNL     1      42.148  -9.423  10.037  1.00  0.00     0.148 C 
BRANCH  33  34
HETATM   34  C   UNL     1      43.385  -9.806  10.806  1.00  0.00    -0.018 C 
HETATM   35  C   UNL     1      43.513 -10.694  11.803  1.00  0.00     0.008 C 
ENDBRANCH  33  34
ENDBRANCH  31  33
ENDBRANCH   7  31
BRANCH  13  36
HETATM   36  O   UNL     1      38.531 -13.671   2.738  1.00  0.00    -0.395 OA
HETATM   37  H   UNL     1      37.905 -12.923   2.738  1.00  0.00     0.210 HD
ENDBRANCH  13  36
TORSDOF 10
ENDMDL
MODEL 6
REMARK VINA RESULT:      -7.1      4.489      8.780
REMARK  10 active torsions:
REMARK  status: ('A' for Active; 'I' for Inactive)
REMARK    1  A    between atoms: C_3  and  C_4 
REMARK    2  A    between atoms: C_4  and  C_5 
REMARK       I    between atoms: C_5  and  N_6 
REMARK    3  A    between atoms: N_6  and  C_7 
REMARK    4  A    between atoms: C_7  and  C_8 
REMARK    5  A    between atoms: C_18  and  N_19 
REMARK    6  A    between atoms: N_19  and  C_20 
REMARK    7  A    between atoms: C_20  and  C_21 
REMARK    8  A    between atoms: C_26  and  C_27 
REMARK    9  A    between atoms: C_27  and  O_28 
REMARK   10  A    between atoms: C_30  and  O_31 
ROOT
HETATM    1  C   UNL     1      42.749  -5.574  10.453  1.00  0.00     0.016 C 
HETATM    2  C   UNL     1      41.778  -6.806  10.508  1.00  0.00    -0.030 C 
HETATM    3  C   UNL     1      42.098  -7.637   9.166  1.00  0.00     0.056 C 
HETATM    4  C   UNL     1      43.189  -8.648   9.415  1.00  0.00     0.056 A 
HETATM    5  C   UNL     1      43.770  -8.900  10.634  1.00  0.00     0.012 A 
HETATM    6  S   UNL     1      44.968 -10.102  10.491  1.00  0.00    -0.055 SA
HETATM    7  C   UNL     1      44.692 -10.160   8.790  1.00  0.00     0.167 A 
HETATM    8  N   UNL     1      43.739  -9.361   8.367  1.00  0.00    -0.228 NA
HETATM    9  C   UNL     1      43.473  -8.218  11.915  1.00  0.00     0.055 C 
HETATM   10  C   UNL     1      42.070  -7.558  11.889  1.00  0.00     0.012 C 
HETATM   11  C   UNL     1      40.919  -8.471  12.482  1.00  0.00     0.008 C 
HETATM   12  C   UNL     1      41.192  -8.724  13.997  1.00  0.00     0.020 C 
HETATM   13  C   UNL     1      39.568  -7.698  12.408  1.00  0.00     0.128 C 
HETATM   14  C   UNL     1      39.261  -7.134  11.027  1.00  0.00     0.033 C 
HETATM   15  C   UNL     1      40.355  -6.192  10.552  1.00  0.00     0.013 C 
ENDROOT
BRANCH   3  16
HETATM   16  C   UNL     1      40.890  -8.233   8.417  1.00  0.00     0.114 C 
BRANCH  16  17
HETATM   17  C   UNL     1      40.580  -7.550   7.097  1.00  0.00     0.218 C 
HETATM   18  N   UNL     1      40.968  -8.133   5.925  1.00  0.00    -0.357 N 
HETATM   19  H   UNL     1      40.600  -7.658   5.114  1.00  0.00     0.162 HD
HETATM   20  O   UNL     1      39.919  -6.510   7.060  1.00  0.00    -0.274 OA
BRANCH  18  21
HETATM   21  C   UNL     1      41.745  -9.345   5.754  1.00  0.00     0.162 C 
BRANCH  21  22
HETATM   22  C   UNL     1      40.967 -10.603   5.484  1.00  0.00    -0.023 A 
HETATM   23  C   UNL     1      40.115 -11.218   6.394  1.00  0.00     0.125 A 
HETATM   24  N   UNL     1      39.399 -12.341   6.140  1.00  0.00    -0.273 NA
HETATM   25  C   UNL     1      39.523 -12.874   4.907  1.00  0.00     0.116 A 
HETATM   26  C   UNL     1      40.336 -12.344   3.921  1.00  0.00     0.020 A 
HETATM   27  C   UNL     1      41.067 -11.198   4.219  1.00  0.00     0.012 A 
ENDBRANCH  21  22
ENDBRANCH  18  21
ENDBRANCH  16  17
ENDBRANCH   3  16
BRANCH  11  28
HETATM   28  C   UNL     1      40.836  -9.867  11.812  1.00  0.00     0.176 C 
BRANCH  28  29
HETATM   29  O   UNL     1      40.217 -10.850  12.637  1.00  0.00    -0.400 OA
HETATM   30  H   UNL     1      40.946 -11.371  13.042  1.00  0.00     0.209 HD
ENDBRANCH  28  29
ENDBRANCH  11  28
BRANCH   7  31
HETATM   31  N   UNL     1      45.431 -10.985   8.023  1.00  0.00    -0.366 N 
HETATM   32  H   UNL     1      46.439 -10.908   8.061  1.00  0.00     0.162 HD
BRANCH  31  33
HETATM   33  C   UNL     1      44.901 -11.525   6.794  1.00  0.00     0.148 C 
BRANCH  33  34
HETATM   34  C   UNL     1      43.949 -12.663   7.053  1.00  0.00    -0.018 C 
HETATM   35  C   UNL     1      43.331 -13.461   6.169  1.00  0.00     0.008 C 
ENDBRANCH  33  34
ENDBRANCH  31  33
ENDBRANCH   7  31
BRANCH  13  36
HETATM   36  O   UNL     1      38.480  -8.542  12.794  1.00  0.00    -0.395 OA
HETATM   37  H   UNL     1      38.862  -9.385  13.102  1.00  0.00     0.210 HD
ENDBRANCH  13  36
TORSDOF 10
ENDMDL
MODEL 7
REMARK VINA RESULT:      -7.1     16.042     18.692
REMARK  10 active torsions:
REMARK  status: ('A' for Active; 'I' for Inactive)
REMARK    1  A    between atoms: C_3  and  C_4 
REMARK    2  A    between atoms: C_4  and  C_5 
REMARK       I    between atoms: C_5  and  N_6 
REMARK    3  A    between atoms: N_6  and  C_7 
REMARK    4  A    between atoms: C_7  and  C_8 
REMARK    5  A    between atoms: C_18  and  N_19 
REMARK    6  A    between atoms: N_19  and  C_20 
REMARK    7  A    between atoms: C_20  and  C_21 
REMARK    8  A    between atoms: C_26  and  C_27 
REMARK    9  A    between atoms: C_27  and  O_28 
REMARK   10  A    between atoms: C_30  and  O_31 
ROOT
HETATM    1  C   UNL     1      42.849 -29.226   0.646  1.00  0.00     0.016 C 
HETATM    2  C   UNL     1      44.215 -29.964   0.420  1.00  0.00    -0.030 C 
HETATM    3  C   UNL     1      43.987 -30.848  -0.907  1.00  0.00     0.056 C 
HETATM    4  C   UNL     1      44.354 -30.061  -2.140  1.00  0.00     0.056 A 
HETATM    5  C   UNL     1      44.898 -28.799  -2.139  1.00  0.00     0.012 A 
HETATM    6  S   UNL     1      45.155 -28.256  -3.732  1.00  0.00    -0.055 SA
HETATM    7  C   UNL     1      44.450 -29.711  -4.331  1.00  0.00     0.167 A 
HETATM    8  N   UNL     1      44.085 -30.561  -3.399  1.00  0.00    -0.228 NA
HETATM    9  C   UNL     1      45.194 -27.963  -0.953  1.00  0.00     0.055 C 
HETATM   10  C   UNL     1      45.338 -28.829   0.325  1.00  0.00     0.012 C 
HETATM   11  C   UNL     1      46.831 -29.249   0.652  1.00  0.00     0.008 C 
HETATM   12  C   UNL     1      47.668 -27.969   0.964  1.00  0.00     0.020 C 
HETATM   13  C   UNL     1      46.845 -30.104   1.955  1.00  0.00     0.128 C 
HETATM   14  C   UNL     1      45.865 -31.269   1.932  1.00  0.00     0.033 C 
HETATM   15  C   UNL     1      44.438 -30.796   1.708  1.00  0.00     0.013 C 
ENDROOT
BRANCH   3  16
HETATM   16  C   UNL     1      44.585 -32.268  -0.903  1.00  0.00     0.114 C 
BRANCH  16  17
HETATM   17  C   UNL     1      43.614 -33.352  -1.335  1.00  0.00     0.218 C 
HETATM   18  N   UNL     1      42.985 -34.113  -0.392  1.00  0.00    -0.357 N 
HETATM   19  H   UNL     1      42.273 -34.711  -0.786  1.00  0.00     0.162 HD
HETATM   20  O   UNL     1      43.327 -33.511  -2.523  1.00  0.00    -0.274 OA
BRANCH  18  21
HETATM   21  C   UNL     1      43.180 -34.083   1.044  1.00  0.00     0.162 C 
BRANCH  21  22
HETATM   22  C   UNL     1      42.158 -33.318   1.839  1.00  0.00    -0.023 A 
HETATM   23  C   UNL     1      42.065 -33.327   3.226  1.00  0.00     0.125 A 
HETATM   24  N   UNL     1      41.155 -32.620   3.941  1.00  0.00    -0.273 NA
HETATM   25  C   UNL     1      40.300 -31.849   3.239  1.00  0.00     0.116 A 
HETATM   26  C   UNL     1      40.303 -31.758   1.860  1.00  0.00     0.020 A 
HETATM   27  C   UNL     1      41.243 -32.506   1.155  1.00  0.00     0.012 A 
ENDBRANCH  21  22
ENDBRANCH  18  21
ENDBRANCH  16  17
ENDBRANCH   3  16
BRANCH  11  28
HETATM   28  C   UNL     1      47.541 -29.961  -0.527  1.00  0.00     0.176 C 
BRANCH  28  29
HETATM   29  O   UNL     1      48.940 -29.695  -0.584  1.00  0.00    -0.400 OA
HETATM   30  H   UNL     1      49.061 -28.997  -1.264  1.00  0.00     0.209 HD
ENDBRANCH  28  29
ENDBRANCH  11  28
BRANCH   7  31
HETATM   31  N   UNL     1      44.322 -29.890  -5.661  1.00  0.00    -0.366 N 
HETATM   32  H   UNL     1      43.839 -29.184  -6.200  1.00  0.00     0.162 HD
BRANCH  31  33
HETATM   33  C   UNL     1      44.306 -31.217  -6.229  1.00  0.00     0.148 C 
BRANCH  33  34
HETATM   34  C   UNL     1      43.969 -31.187  -7.697  1.00  0.00    -0.018 C 
HETATM   35  C   UNL     1      44.461 -31.947  -8.688  1.00  0.00     0.008 C 
ENDBRANCH  33  34
ENDBRANCH  31  33
ENDBRANCH   7  31
BRANCH  13  36
HETATM   36  O   UNL     1      48.151 -30.627   2.204  1.00  0.00    -0.395 OA
HETATM   37  H   UNL     1      48.572 -30.783   1.337  1.00  0.00     0.210 HD
ENDBRANCH  13  36
TORSDOF 10
ENDMDL
MODEL 8
REMARK VINA RESULT:      -7.0      3.570      6.783
REMARK  10 active torsions:
REMARK  status: ('A' for Active; 'I' for Inactive)
REMARK    1  A    between atoms: C_3  and  C_4 
REMARK    2  A    between atoms: C_4  and  C_5 
REMARK       I    between atoms: C_5  and  N_6 
REMARK    3  A    between atoms: N_6  and  C_7 
REMARK    4  A    between atoms: C_7  and  C_8 
REMARK    5  A    between atoms: C_18  and  N_19 
REMARK    6  A    between atoms: N_19  and  C_20 
REMARK    7  A    between atoms: C_20  and  C_21 
REMARK    8  A    between atoms: C_26  and  C_27 
REMARK    9  A    between atoms: C_27  and  O_28 
REMARK   10  A    between atoms: C_30  and  O_31 
ROOT
HETATM    1  C   UNL     1      39.918 -16.404   4.456  1.00  0.00     0.016 C 
HETATM    2  C   UNL     1      41.331 -15.740   4.615  1.00  0.00    -0.030 C 
HETATM    3  C   UNL     1      41.286 -14.450   3.653  1.00  0.00     0.056 C 
HETATM    4  C   UNL     1      40.778 -13.244   4.404  1.00  0.00     0.056 A 
HETATM    5  C   UNL     1      40.482 -13.217   5.746  1.00  0.00     0.012 A 
HETATM    6  S   UNL     1      39.926 -11.674   6.204  1.00  0.00    -0.055 SA
HETATM    7  C   UNL     1      40.041 -11.156   4.564  1.00  0.00     0.167 A 
HETATM    8  N   UNL     1      40.502 -12.066   3.738  1.00  0.00    -0.228 NA
HETATM    9  C   UNL     1      40.567 -14.350   6.695  1.00  0.00     0.055 C 
HETATM   10  C   UNL     1      41.528 -15.450   6.175  1.00  0.00     0.012 C 
HETATM   11  C   UNL     1      43.013 -15.312   6.711  1.00  0.00     0.008 C 
HETATM   12  C   UNL     1      43.020 -15.502   8.260  1.00  0.00     0.020 C 
HETATM   13  C   UNL     1      43.874 -16.472   6.128  1.00  0.00     0.128 C 
HETATM   14  C   UNL     1      43.773 -16.607   4.615  1.00  0.00     0.033 C 
HETATM   15  C   UNL     1      42.337 -16.832   4.168  1.00  0.00     0.013 C 
ENDROOT
BRANCH   3  16
HETATM   16  C   UNL     1      42.558 -14.152   2.835  1.00  0.00     0.114 C 
BRANCH  16  17
HETATM   17  C   UNL     1      42.598 -14.836   1.479  1.00  0.00     0.218 C 
HETATM   18  N   UNL     1      41.745 -14.433   0.492  1.00  0.00    -0.357 N 
HETATM   19  H   UNL     1      41.947 -14.868  -0.397  1.00  0.00     0.162 HD
HETATM   20  O   UNL     1      43.439 -15.702   1.230  1.00  0.00    -0.274 OA
BRANCH  18  21
HETATM   21  C   UNL     1      40.694 -13.439   0.581  1.00  0.00     0.162 C 
BRANCH  21  22
HETATM   22  C   UNL     1      39.657 -13.467  -0.507  1.00  0.00    -0.023 A 
HETATM   23  C   UNL     1      38.707 -12.474  -0.721  1.00  0.00     0.125 A 
HETATM   24  N   UNL     1      37.787 -12.493  -1.716  1.00  0.00    -0.273 NA
HETATM   25  C   UNL     1      37.821 -13.548  -2.555  1.00  0.00     0.116 A 
HETATM   26  C   UNL     1      38.724 -14.589  -2.441  1.00  0.00     0.020 A 
HETATM   27  C   UNL     1      39.648 -14.546  -1.402  1.00  0.00     0.012 A 
ENDBRANCH  21  22
ENDBRANCH  18  21
ENDBRANCH  16  17
ENDBRANCH   3  16
BRANCH  11  28
HETATM   28  C   UNL     1      43.638 -13.919   6.438  1.00  0.00     0.176 C 
BRANCH  28  29
HETATM   29  O   UNL     1      43.664 -13.080   7.588  1.00  0.00    -0.400 OA
HETATM   30  H   UNL     1      44.527 -13.239   8.028  1.00  0.00     0.209 HD
ENDBRANCH  28  29
ENDBRANCH  11  28
BRANCH   7  31
HETATM   31  N   UNL     1      39.671  -9.902   4.235  1.00  0.00    -0.366 N 
HETATM   32  H   UNL     1      40.111  -9.127   4.713  1.00  0.00     0.162 HD
BRANCH  31  33
HETATM   33  C   UNL     1      38.354  -9.634   3.709  1.00  0.00     0.148 C 
BRANCH  33  34
HETATM   34  C   UNL     1      38.364  -9.557   2.204  1.00  0.00    -0.018 C 
HETATM   35  C   UNL     1      37.343  -9.715   1.348  1.00  0.00     0.008 C 
ENDBRANCH  33  34
ENDBRANCH  31  33
ENDBRANCH   7  31
BRANCH  13  36
HETATM   36  O   UNL     1      45.252 -16.300   6.467  1.00  0.00    -0.395 OA
HETATM   37  H   UNL     1      45.693 -15.896   5.695  1.00  0.00     0.210 HD
ENDBRANCH  13  36
TORSDOF 10
ENDMDL
MODEL 9
REMARK VINA RESULT:      -6.9      3.351      6.565
REMARK  10 active torsions:
REMARK  status: ('A' for Active; 'I' for Inactive)
REMARK    1  A    between atoms: C_3  and  C_4 
REMARK    2  A    between atoms: C_4  and  C_5 
REMARK       I    between atoms: C_5  and  N_6 
REMARK    3  A    between atoms: N_6  and  C_7 
REMARK    4  A    between atoms: C_7  and  C_8 
REMARK    5  A    between atoms: C_18  and  N_19 
REMARK    6  A    between atoms: N_19  and  C_20 
REMARK    7  A    between atoms: C_20  and  C_21 
REMARK    8  A    between atoms: C_26  and  C_27 
REMARK    9  A    between atoms: C_27  and  O_28 
REMARK   10  A    between atoms: C_30  and  O_31 
ROOT
HETATM    1  C   UNL     1      36.733 -10.884   1.147  1.00  0.00     0.016 C 
HETATM    2  C   UNL     1      38.234 -10.432   1.204  1.00  0.00    -0.030 C 
HETATM    3  C   UNL     1      38.939 -11.481   2.201  1.00  0.00     0.056 C 
HETATM    4  C   UNL     1      39.460 -12.673   1.437  1.00  0.00     0.056 A 
HETATM    5  C   UNL     1      39.428 -12.810   0.070  1.00  0.00     0.012 A 
HETATM    6  S   UNL     1      40.102 -14.302  -0.397  1.00  0.00    -0.055 SA
HETATM    7  C   UNL     1      40.326 -14.711   1.262  1.00  0.00     0.167 A 
HETATM    8  N   UNL     1      39.957 -13.775   2.106  1.00  0.00    -0.228 NA
HETATM    9  C   UNL     1      38.856 -11.852  -0.903  1.00  0.00     0.055 C 
HETATM   10  C   UNL     1      38.768 -10.425  -0.303  1.00  0.00     0.012 C 
HETATM   11  C   UNL     1      40.020  -9.511  -0.632  1.00  0.00     0.008 C 
HETATM   12  C   UNL     1      40.092  -9.273  -2.172  1.00  0.00     0.020 C 
HETATM   13  C   UNL     1      39.810  -8.109   0.015  1.00  0.00     0.128 C 
HETATM   14  C   UNL     1      39.456  -8.165   1.495  1.00  0.00     0.033 C 
HETATM   15  C   UNL     1      38.194  -8.977   1.738  1.00  0.00     0.013 C 
ENDROOT
BRANCH   3  16
HETATM   16  C   UNL     1      39.971 -10.909   3.192  1.00  0.00     0.114 C 
BRANCH  16  17
HETATM   17  C   UNL     1      39.538 -10.972   4.646  1.00  0.00     0.218 C 
HETATM   18  N   UNL     1      40.346 -11.570   5.569  1.00  0.00    -0.357 N 
HETATM   19  H   UNL     1      40.018 -11.442   6.515  1.00  0.00     0.162 HD
HETATM   20  O   UNL     1      38.498 -10.427   5.023  1.00  0.00    -0.274 OA
BRANCH  18  21
HETATM   21  C   UNL     1      41.599 -12.261   5.333  1.00  0.00     0.162 C 
BRANCH  21  22
HETATM   22  C   UNL     1      41.672 -13.687   5.804  1.00  0.00    -0.023 A 
HETATM   23  C   UNL     1      42.851 -14.396   6.000  1.00  0.00     0.125 A 
HETATM   24  N   UNL     1      42.914 -15.675   6.445  1.00  0.00    -0.273 NA
HETATM   25  C   UNL     1      41.741 -16.279   6.725  1.00  0.00     0.116 A 
HETATM   26  C   UNL     1      40.510 -15.670   6.573  1.00  0.00     0.020 A 
HETATM   27  C   UNL     1      40.479 -14.360   6.103  1.00  0.00     0.012 A 
ENDBRANCH  21  22
ENDBRANCH  18  21
ENDBRANCH  16  17
ENDBRANCH   3  16
BRANCH  11  28
HETATM   28  C   UNL     1      41.372 -10.152  -0.224  1.00  0.00     0.176 C 
BRANCH  28  29
HETATM   29  O   UNL     1      42.478  -9.653  -0.971  1.00  0.00    -0.400 OA
HETATM   30  H   UNL     1      42.100  -9.206  -1.760  1.00  0.00     0.209 HD
ENDBRANCH  28  29
ENDBRANCH  11  28
BRANCH   7  31
HETATM   31  N   UNL     1      40.846 -15.911   1.588  1.00  0.00    -0.366 N 
HETATM   32  H   UNL     1      40.543 -16.726   1.073  1.00  0.00     0.162 HD
BRANCH  31  33
HETATM   33  C   UNL     1      41.324 -16.170   2.926  1.00  0.00     0.148 C 
BRANCH  33  34
HETATM   34  C   UNL     1      42.742 -16.678   2.920  1.00  0.00    -0.018 C 
HETATM   35  C   UNL     1      43.188 -17.921   2.684  1.00  0.00     0.008 C 
ENDBRANCH  33  34
ENDBRANCH  31  33
ENDBRANCH   7  31
BRANCH  13  36
HETATM   36  O   UNL     1      40.982  -7.303  -0.131  1.00  0.00    -0.395 OA
HETATM   37  H   UNL     1      41.280  -7.389  -1.056  1.00  0.00     0.210 HD
ENDBRANCH  13  36
TORSDOF 10
ENDMDL
MODEL 10
REMARK VINA RESULT:      -6.9     16.149     18.167
REMARK  10 active torsions:
REMARK  status: ('A' for Active; 'I' for Inactive)
REMARK    1  A    between atoms: C_3  and  C_4 
REMARK    2  A    between atoms: C_4  and  C_5 
REMARK       I    between atoms: C_5  and  N_6 
REMARK    3  A    between atoms: N_6  and  C_7 
REMARK    4  A    between atoms: C_7  and  C_8 
REMARK    5  A    between atoms: C_18  and  N_19 
REMARK    6  A    between atoms: N_19  and  C_20 
REMARK    7  A    between atoms: C_20  and  C_21 
REMARK    8  A    between atoms: C_26  and  C_27 
REMARK    9  A    between atoms: C_27  and  O_28 
REMARK   10  A    between atoms: C_30  and  O_31 
ROOT
HETATM    1  C   UNL     1      47.181 -27.806  -0.983  1.00  0.00     0.016 C 
HETATM    2  C   UNL     1      46.750 -29.285  -1.281  1.00  0.00    -0.030 C 
HETATM    3  C   UNL     1      46.640 -29.978   0.169  1.00  0.00     0.056 C 
HETATM    4  C   UNL     1      45.248 -29.820   0.729  1.00  0.00     0.056 A 
HETATM    5  C   UNL     1      44.189 -29.252   0.064  1.00  0.00     0.012 A 
HETATM    6  S   UNL     1      42.796 -29.254   1.043  1.00  0.00    -0.055 SA
HETATM    7  C   UNL     1      43.713 -29.945   2.329  1.00  0.00     0.167 A 
HETATM    8  N   UNL     1      44.967 -30.194   2.029  1.00  0.00    -0.228 NA
HETATM    9  C   UNL     1      44.209 -28.660  -1.294  1.00  0.00     0.055 C 
HETATM   10  C   UNL     1      45.396 -29.206  -2.128  1.00  0.00     0.012 C 
HETATM   11  C   UNL     1      45.026 -30.455  -3.032  1.00  0.00     0.008 C 
HETATM   12  C   UNL     1      43.976 -30.021  -4.101  1.00  0.00     0.020 C 
HETATM   13  C   UNL     1      46.291 -30.904  -3.822  1.00  0.00     0.128 C 
HETATM   14  C   UNL     1      47.517 -31.117  -2.945  1.00  0.00     0.033 C 
HETATM   15  C   UNL     1      47.880 -29.858  -2.175  1.00  0.00     0.013 C 
ENDROOT
BRANCH   3  16
HETATM   16  C   UNL     1      47.175 -31.418   0.290  1.00  0.00     0.114 C 
BRANCH  16  17
HETATM   17  C   UNL     1      48.090 -31.643   1.481  1.00  0.00     0.218 C 
HETATM   18  N   UNL     1      49.344 -31.104   1.482  1.00  0.00    -0.357 N 
HETATM   19  H   UNL     1      49.812 -31.210   2.371  1.00  0.00     0.162 HD
HETATM   20  O   UNL     1      47.694 -32.245   2.480  1.00  0.00    -0.274 OA
BRANCH  18  21
HETATM   21  C   UNL     1      49.992 -30.366   0.416  1.00  0.00     0.162 C 
BRANCH  21  22
HETATM   22  C   UNL     1      51.068 -31.096  -0.340  1.00  0.00    -0.023 A 
HETATM   23  C   UNL     1      51.783 -32.183   0.151  1.00  0.00     0.125 A 
HETATM   24  N   UNL     1      52.737 -32.852  -0.542  1.00  0.00    -0.273 NA
HETATM   25  C   UNL     1      52.985 -32.428  -1.798  1.00  0.00     0.116 A 
HETATM   26  C   UNL     1      52.333 -31.362  -2.390  1.00  0.00     0.020 A 
HETATM   27  C   UNL     1      51.366 -30.689  -1.648  1.00  0.00     0.012 A 
ENDBRANCH  21  22
ENDBRANCH  18  21
ENDBRANCH  16  17
ENDBRANCH   3  16
BRANCH  11  28
HETATM   28  C   UNL     1      44.384 -31.620  -2.235  1.00  0.00     0.176 C 
BRANCH  28  29
HETATM   29  O   UNL     1      43.781 -32.605  -3.069  1.00  0.00    -0.400 OA
HETATM   30  H   UNL     1      43.538 -32.149  -3.905  1.00  0.00     0.209 HD
ENDBRANCH  28  29
ENDBRANCH  11  28
BRANCH   7  31
HETATM   31  N   UNL     1      43.120 -30.186   3.515  1.00  0.00    -0.366 N 
HETATM   32  H   UNL     1      43.608 -30.756   4.193  1.00  0.00     0.162 HD
BRANCH  31  33
HETATM   33  C   UNL     1      41.682 -30.177   3.638  1.00  0.00     0.148 C 
BRANCH  33  34
HETATM   34  C   UNL     1      41.095 -31.540   3.375  1.00  0.00    -0.018 C 
HETATM   35  C   UNL     1      40.272 -31.924   2.388  1.00  0.00     0.008 C 
ENDBRANCH  33  34
ENDBRANCH  31  33
ENDBRANCH   7  31
BRANCH  13  36
HETATM   36  O   UNL     1      46.039 -32.117  -4.535  1.00  0.00    -0.395 OA
HETATM   37  H   UNL     1      46.816 -32.290  -5.098  1.00  0.00     0.210 HD
ENDBRANCH  13  36
TORSDOF 10
ENDMDL
