MODEL 1
REMARK VINA RESULT:      -9.5      0.000      0.000
REMARK  6 active torsions:
REMARK  status: ('A' for Active; 'I' for Inactive)
REMARK    1  A    between atoms: O_2  and  C_3 
REMARK    2  A    between atoms: C_3  and  C_4 
REMARK       I    between atoms: C_4  and  N_6 
REMARK    3  A    between atoms: N_6  and  C_7 
REMARK    4  A    between atoms: C_12  and  C_13 
REMARK    5  A    between atoms: C_15  and  N_16 
REMARK    6  A    between atoms: N_16  and  C_17 
ROOT
HETATM    1  C   UNL     1      40.561 -13.789   1.016  1.00  0.00     0.164 A 
HETATM    2  N   UNL     1      41.734 -14.381   1.297  1.00  0.00    -0.210 NA
HETATM    3  C   UNL     1      42.113 -14.447   2.587  1.00  0.00     0.143 A 
HETATM    4  C   UNL     1      41.343 -13.884   3.621  1.00  0.00     0.039 A 
HETATM    5  C   UNL     1      41.669 -13.916   5.002  1.00  0.00     0.018 A 
HETATM    6  C   UNL     1      40.845 -13.307   5.946  1.00  0.00     0.001 A 
HETATM    7  C   UNL     1      39.687 -12.669   5.527  1.00  0.00     0.002 A 
HETATM    8  C   UNL     1      39.356 -12.656   4.169  1.00  0.00     0.032 A 
HETATM    9  C   UNL     1      40.161 -13.258   3.210  1.00  0.00     0.073 A 
HETATM   10  N   UNL     1      39.768 -13.217   1.935  1.00  0.00    -0.228 NA
ENDROOT
BRANCH   1  11
HETATM   11  C   UNL     1      40.112 -13.780  -0.395  1.00  0.00     0.039 A 
HETATM   12  C   UNL     1      40.277 -12.668  -1.270  1.00  0.00     0.049 A 
HETATM   13  C   UNL     1      39.806 -12.754  -2.590  1.00  0.00     0.030 A 
HETATM   14  C   UNL     1      39.183 -13.910  -3.064  1.00  0.00     0.002 A 
HETATM   15  C   UNL     1      39.014 -15.000  -2.226  1.00  0.00     0.001 A 
HETATM   16  C   UNL     1      39.470 -14.931  -0.910  1.00  0.00     0.018 A 
BRANCH  12  17
HETATM   17  N   UNL     1      40.918 -11.494  -0.790  1.00  0.00    -0.324 N 
HETATM   18  C   UNL     1      40.342 -10.336  -0.293  1.00  0.00     0.245 C 
HETATM   19  O   UNL     1      39.138 -10.133  -0.157  1.00  0.00    -0.271 OA
HETATM   20  H   UNL     1      41.937 -11.529  -0.828  1.00  0.00     0.169 HD
BRANCH  18  21
HETATM   21  C   UNL     1      41.378  -9.284   0.154  1.00  0.00     0.270 C 
BRANCH  21  22
HETATM   22  O   UNL     1      42.614  -9.262  -0.546  1.00  0.00    -0.387 OA
HETATM   23  C   UNL     1      42.659  -8.277  -1.568  1.00  0.00     0.202 C 
ENDBRANCH  21  22
ENDBRANCH  18  21
ENDBRANCH  12  17
ENDBRANCH   1  11
BRANCH   3  24
HETATM   24  N   UNL     1      43.332 -15.103   2.906  1.00  0.00    -0.340 N 
HETATM   25  H   UNL     1      44.066 -14.780   2.285  1.00  0.00     0.167 HD
BRANCH  24  26
HETATM   26  C   UNL     1      43.515 -16.454   3.287  1.00  0.00     0.034 A 
HETATM   27  C   UNL     1      43.898 -16.818   4.586  1.00  0.00     0.032 A 
HETATM   28  C   UNL     1      44.069 -18.155   4.969  1.00  0.00     0.034 A 
HETATM   29  C   UNL     1      43.876 -19.123   3.984  1.00  0.00     0.062 A 
HETATM   30  N   UNL     1      43.933 -20.491   4.025  1.00  0.00    -0.278 N 
HETATM   31  C   UNL     1      43.556 -18.809   2.670  1.00  0.00     0.013 A 
HETATM   32  H   UNL     1      44.114 -21.077   4.832  1.00  0.00     0.189 HD
HETATM   33  N   UNL     1      43.730 -21.085   2.834  1.00  0.00    -0.186 NA
HETATM   34  C   UNL     1      43.487 -20.058   2.015  1.00  0.00     0.152 A 
HETATM   35  C   UNL     1      43.386 -17.458   2.309  1.00  0.00     0.044 A 
ENDBRANCH  24  26
ENDBRANCH   3  24
TORSDOF 6
ENDMDL
MODEL 2
REMARK VINA RESULT:      -9.0      3.152      7.384
REMARK  6 active torsions:
REMARK  status: ('A' for Active; 'I' for Inactive)
REMARK    1  A    between atoms: O_2  and  C_3 
REMARK    2  A    between atoms: C_3  and  C_4 
REMARK       I    between atoms: C_4  and  N_6 
REMARK    3  A    between atoms: N_6  and  C_7 
REMARK    4  A    between atoms: C_12  and  C_13 
REMARK    5  A    between atoms: C_15  and  N_16 
REMARK    6  A    between atoms: N_16  and  C_17 
ROOT
HETATM    1  C   UNL     1      42.089 -15.932   3.105  1.00  0.00     0.164 A 
HETATM    2  N   UNL     1      42.144 -15.209   1.974  1.00  0.00    -0.210 NA
HETATM    3  C   UNL     1      41.570 -13.991   1.976  1.00  0.00     0.143 A 
HETATM    4  C   UNL     1      40.893 -13.487   3.101  1.00  0.00     0.039 A 
HETATM    5  C   UNL     1      40.270 -12.214   3.185  1.00  0.00     0.018 A 
HETATM    6  C   UNL     1      39.605 -11.819   4.344  1.00  0.00     0.001 A 
HETATM    7  C   UNL     1      39.561 -12.680   5.431  1.00  0.00     0.002 A 
HETATM    8  C   UNL     1      40.193 -13.924   5.354  1.00  0.00     0.032 A 
HETATM    9  C   UNL     1      40.864 -14.340   4.211  1.00  0.00     0.073 A 
HETATM   10  N   UNL     1      41.457 -15.536   4.221  1.00  0.00    -0.228 NA
ENDROOT
BRANCH   1  11
HETATM   11  C   UNL     1      42.780 -17.241   3.124  1.00  0.00     0.039 A 
HETATM   12  C   UNL     1      43.708 -17.630   4.131  1.00  0.00     0.049 A 
HETATM   13  C   UNL     1      44.319 -18.893   4.055  1.00  0.00     0.030 A 
HETATM   14  C   UNL     1      44.031 -19.776   3.013  1.00  0.00     0.002 A 
HETATM   15  C   UNL     1      43.131 -19.412   2.025  1.00  0.00     0.001 A 
HETATM   16  C   UNL     1      42.518 -18.161   2.081  1.00  0.00     0.018 A 
BRANCH  12  17
HETATM   17  N   UNL     1      43.997 -16.734   5.196  1.00  0.00    -0.324 N 
HETATM   18  C   UNL     1      43.571 -16.792   6.513  1.00  0.00     0.245 C 
HETATM   19  O   UNL     1      42.868 -17.672   7.005  1.00  0.00    -0.271 OA
HETATM   20  H   UNL     1      44.596 -15.952   4.933  1.00  0.00     0.169 HD
BRANCH  18  21
HETATM   21  C   UNL     1      44.121 -15.641   7.381  1.00  0.00     0.270 C 
BRANCH  21  22
HETATM   22  O   UNL     1      43.262 -14.528   7.591  1.00  0.00    -0.387 OA
HETATM   23  C   UNL     1      43.573 -13.419   6.760  1.00  0.00     0.202 C 
ENDBRANCH  21  22
ENDBRANCH  18  21
ENDBRANCH  12  17
ENDBRANCH   1  11
BRANCH   3  24
HETATM   24  N   UNL     1      41.652 -13.198   0.800  1.00  0.00    -0.340 N 
HETATM   25  H   UNL     1      42.037 -12.288   1.028  1.00  0.00     0.167 HD
BRANCH  24  26
HETATM   26  C   UNL     1      40.723 -13.130  -0.266  1.00  0.00     0.034 A 
HETATM   27  C   UNL     1      40.179 -11.914  -0.706  1.00  0.00     0.032 A 
HETATM   28  C   UNL     1      39.268 -11.843  -1.768  1.00  0.00     0.034 A 
HETATM   29  C   UNL     1      38.888 -13.049  -2.356  1.00  0.00     0.062 A 
HETATM   30  N   UNL     1      38.058 -13.330  -3.408  1.00  0.00    -0.278 N 
HETATM   31  C   UNL     1      39.352 -14.281  -1.916  1.00  0.00     0.013 A 
HETATM   32  H   UNL     1      37.561 -12.669  -3.996  1.00  0.00     0.189 HD
HETATM   33  N   UNL     1      37.904 -14.645  -3.650  1.00  0.00    -0.186 NA
HETATM   34  C   UNL     1      38.704 -15.220  -2.749  1.00  0.00     0.152 A 
HETATM   35  C   UNL     1      40.270 -14.329  -0.849  1.00  0.00     0.044 A 
ENDBRANCH  24  26
ENDBRANCH   3  24
TORSDOF 6
ENDMDL
MODEL 3
REMARK VINA RESULT:      -8.9      3.556      7.525
REMARK  6 active torsions:
REMARK  status: ('A' for Active; 'I' for Inactive)
REMARK    1  A    between atoms: O_2  and  C_3 
REMARK    2  A    between atoms: C_3  and  C_4 
REMARK       I    between atoms: C_4  and  N_6 
REMARK    3  A    between atoms: N_6  and  C_7 
REMARK    4  A    between atoms: C_12  and  C_13 
REMARK    5  A    between atoms: C_15  and  N_16 
REMARK    6  A    between atoms: N_16  and  C_17 
ROOT
HETATM    1  C   UNL     1      42.701 -16.000   2.581  1.00  0.00     0.164 A 
HETATM    2  N   UNL     1      43.292 -14.880   3.026  1.00  0.00    -0.210 NA
HETATM    3  C   UNL     1      42.833 -13.700   2.567  1.00  0.00     0.143 A 
HETATM    4  C   UNL     1      41.794 -13.620   1.621  1.00  0.00     0.039 A 
HETATM    5  C   UNL     1      41.250 -12.420   1.095  1.00  0.00     0.018 A 
HETATM    6  C   UNL     1      40.234 -12.453   0.142  1.00  0.00     0.001 A 
HETATM    7  C   UNL     1      39.745 -13.677  -0.288  1.00  0.00     0.002 A 
HETATM    8  C   UNL     1      40.267 -14.858   0.246  1.00  0.00     0.032 A 
HETATM    9  C   UNL     1      41.279 -14.851   1.198  1.00  0.00     0.073 A 
HETATM   10  N   UNL     1      41.713 -16.021   1.673  1.00  0.00    -0.228 NA
ENDROOT
BRANCH   1  11
HETATM   11  C   UNL     1      43.160 -17.293   3.139  1.00  0.00     0.039 A 
HETATM   12  C   UNL     1      43.198 -17.585   4.532  1.00  0.00     0.049 A 
HETATM   13  C   UNL     1      43.660 -18.839   4.961  1.00  0.00     0.030 A 
HETATM   14  C   UNL     1      44.079 -19.809   4.049  1.00  0.00     0.002 A 
HETATM   15  C   UNL     1      44.049 -19.541   2.690  1.00  0.00     0.001 A 
HETATM   16  C   UNL     1      43.598 -18.299   2.244  1.00  0.00     0.018 A 
BRANCH  12  17
HETATM   17  N   UNL     1      42.765 -16.601   5.461  1.00  0.00    -0.324 N 
HETATM   18  C   UNL     1      43.514 -15.906   6.397  1.00  0.00     0.245 C 
HETATM   19  O   UNL     1      44.726 -16.012   6.570  1.00  0.00    -0.271 OA
HETATM   20  H   UNL     1      41.766 -16.395   5.417  1.00  0.00     0.169 HD
BRANCH  18  21
HETATM   21  C   UNL     1      42.682 -14.894   7.213  1.00  0.00     0.270 C 
BRANCH  21  22
HETATM   22  O   UNL     1      41.792 -14.060   6.485  1.00  0.00    -0.387 OA
HETATM   23  C   UNL     1      40.454 -14.538   6.483  1.00  0.00     0.202 C 
ENDBRANCH  21  22
ENDBRANCH  18  21
ENDBRANCH  12  17
ENDBRANCH   1  11
BRANCH   3  24
HETATM   24  N   UNL     1      43.422 -12.503   3.056  1.00  0.00    -0.340 N 
HETATM   25  H   UNL     1      44.395 -12.462   2.773  1.00  0.00     0.167 HD
BRANCH  24  26
HETATM   26  C   UNL     1      43.205 -11.879   4.308  1.00  0.00     0.034 A 
HETATM   27  C   UNL     1      42.033 -11.162   4.592  1.00  0.00     0.032 A 
HETATM   28  C   UNL     1      41.811 -10.553   5.834  1.00  0.00     0.034 A 
HETATM   29  C   UNL     1      42.831 -10.657   6.779  1.00  0.00     0.062 A 
HETATM   30  N   UNL     1      42.926 -10.214   8.072  1.00  0.00    -0.278 N 
HETATM   31  C   UNL     1      44.032 -11.305   6.524  1.00  0.00     0.013 A 
HETATM   32  H   UNL     1      42.221  -9.722   8.609  1.00  0.00     0.189 HD
HETATM   33  N   UNL     1      44.111 -10.473   8.655  1.00  0.00    -0.186 NA
HETATM   34  C   UNL     1      44.776 -11.150   7.715  1.00  0.00     0.152 A 
HETATM   35  C   UNL     1      44.232 -11.913   5.270  1.00  0.00     0.044 A 
ENDBRANCH  24  26
ENDBRANCH   3  24
TORSDOF 6
ENDMDL
MODEL 4
REMARK VINA RESULT:      -8.6      3.450      6.321
REMARK  6 active torsions:
REMARK  status: ('A' for Active; 'I' for Inactive)
REMARK    1  A    between atoms: O_2  and  C_3 
REMARK    2  A    between atoms: C_3  and  C_4 
REMARK       I    between atoms: C_4  and  N_6 
REMARK    3  A    between atoms: N_6  and  C_7 
REMARK    4  A    between atoms: C_12  and  C_13 
REMARK    5  A    between atoms: C_15  and  N_16 
REMARK    6  A    between atoms: N_16  and  C_17 
ROOT
HETATM    1  C   UNL     1      43.132 -11.834   4.963  1.00  0.00     0.164 A 
HETATM    2  N   UNL     1      42.666 -13.092   5.027  1.00  0.00    -0.210 NA
HETATM    3  C   UNL     1      41.996 -13.571   3.962  1.00  0.00     0.143 A 
HETATM    4  C   UNL     1      41.744 -12.784   2.824  1.00  0.00     0.039 A 
HETATM    5  C   UNL     1      41.053 -13.215   1.661  1.00  0.00     0.018 A 
HETATM    6  C   UNL     1      40.837 -12.346   0.594  1.00  0.00     0.001 A 
HETATM    7  C   UNL     1      41.312 -11.045   0.669  1.00  0.00     0.002 A 
HETATM    8  C   UNL     1      42.011 -10.628   1.806  1.00  0.00     0.032 A 
HETATM    9  C   UNL     1      42.240 -11.477   2.881  1.00  0.00     0.073 A 
HETATM   10  N   UNL     1      42.930 -11.009   3.924  1.00  0.00    -0.228 NA
ENDROOT
BRANCH   1  11
HETATM   11  C   UNL     1      43.929 -11.332   6.106  1.00  0.00     0.039 A 
HETATM   12  C   UNL     1      43.356 -10.814   7.302  1.00  0.00     0.049 A 
HETATM   13  C   UNL     1      44.199 -10.352   8.326  1.00  0.00     0.030 A 
HETATM   14  C   UNL     1      45.588 -10.395   8.197  1.00  0.00     0.002 A 
HETATM   15  C   UNL     1      46.161 -10.895   7.039  1.00  0.00     0.001 A 
HETATM   16  C   UNL     1      45.341 -11.354   6.009  1.00  0.00     0.018 A 
BRANCH  12  17
HETATM   17  N   UNL     1      41.942 -10.776   7.437  1.00  0.00    -0.324 N 
HETATM   18  C   UNL     1      41.064  -9.771   7.066  1.00  0.00     0.245 C 
HETATM   19  O   UNL     1      41.370  -8.716   6.515  1.00  0.00    -0.271 OA
HETATM   20  H   UNL     1      41.541 -11.609   7.870  1.00  0.00     0.169 HD
BRANCH  18  21
HETATM   21  C   UNL     1      39.588 -10.114   7.356  1.00  0.00     0.270 C 
BRANCH  21  22
HETATM   22  O   UNL     1      39.160 -11.431   7.042  1.00  0.00    -0.387 OA
HETATM   23  C   UNL     1      39.196 -11.713   5.650  1.00  0.00     0.202 C 
ENDBRANCH  21  22
ENDBRANCH  18  21
ENDBRANCH  12  17
ENDBRANCH   1  11
BRANCH   3  24
HETATM   24  N   UNL     1      41.529 -14.913   3.998  1.00  0.00    -0.340 N 
HETATM   25  H   UNL     1      40.728 -14.978   4.616  1.00  0.00     0.167 HD
BRANCH  24  26
HETATM   26  C   UNL     1      42.302 -16.098   4.001  1.00  0.00     0.034 A 
HETATM   27  C   UNL     1      43.236 -16.379   5.010  1.00  0.00     0.032 A 
HETATM   28  C   UNL     1      43.994 -17.557   5.022  1.00  0.00     0.034 A 
HETATM   29  C   UNL     1      43.808 -18.437   3.956  1.00  0.00     0.062 A 
HETATM   30  N   UNL     1      44.354 -19.663   3.679  1.00  0.00    -0.278 N 
HETATM   31  C   UNL     1      42.940 -18.176   2.905  1.00  0.00     0.013 A 
HETATM   32  H   UNL     1      45.011 -20.188   4.245  1.00  0.00     0.189 HD
HETATM   33  N   UNL     1      43.951 -20.190   2.508  1.00  0.00    -0.186 NA
HETATM   34  C   UNL     1      43.080 -19.289   2.047  1.00  0.00     0.152 A 
HETATM   35  C   UNL     1      42.186 -16.987   2.916  1.00  0.00     0.044 A 
ENDBRANCH  24  26
ENDBRANCH   3  24
TORSDOF 6
ENDMDL
MODEL 5
REMARK VINA RESULT:      -8.6      3.413      7.344
REMARK  6 active torsions:
REMARK  status: ('A' for Active; 'I' for Inactive)
REMARK    1  A    between atoms: O_2  and  C_3 
REMARK    2  A    between atoms: C_3  and  C_4 
REMARK       I    between atoms: C_4  and  N_6 
REMARK    3  A    between atoms: N_6  and  C_7 
REMARK    4  A    between atoms: C_12  and  C_13 
REMARK    5  A    between atoms: C_15  and  N_16 
REMARK    6  A    between atoms: N_16  and  C_17 
ROOT
HETATM    1  C   UNL     1      41.421 -13.270   5.279  1.00  0.00     0.164 A 
HETATM    2  N   UNL     1      40.849 -13.629   4.118  1.00  0.00    -0.210 NA
HETATM    3  C   UNL     1      41.256 -14.776   3.543  1.00  0.00     0.143 A 
HETATM    4  C   UNL     1      42.274 -15.570   4.100  1.00  0.00     0.039 A 
HETATM    5  C   UNL     1      42.755 -16.792   3.561  1.00  0.00     0.018 A 
HETATM    6  C   UNL     1      43.786 -17.492   4.183  1.00  0.00     0.001 A 
HETATM    7  C   UNL     1      44.344 -16.988   5.349  1.00  0.00     0.002 A 
HETATM    8  C   UNL     1      43.856 -15.795   5.890  1.00  0.00     0.032 A 
HETATM    9  C   UNL     1      42.827 -15.081   5.290  1.00  0.00     0.073 A 
HETATM   10  N   UNL     1      42.405 -13.959   5.877  1.00  0.00    -0.228 NA
ENDROOT
BRANCH   1  11
HETATM   11  C   UNL     1      40.924 -12.045   5.946  1.00  0.00     0.039 A 
HETATM   12  C   UNL     1      41.772 -11.004   6.420  1.00  0.00     0.049 A 
HETATM   13  C   UNL     1      41.203  -9.884   7.049  1.00  0.00     0.030 A 
HETATM   14  C   UNL     1      39.822  -9.770   7.216  1.00  0.00     0.002 A 
HETATM   15  C   UNL     1      38.983 -10.775   6.762  1.00  0.00     0.001 A 
HETATM   16  C   UNL     1      39.530 -11.896   6.139  1.00  0.00     0.018 A 
BRANCH  12  17
HETATM   17  N   UNL     1      43.178 -11.116   6.244  1.00  0.00    -0.324 N 
HETATM   18  C   UNL     1      44.138 -11.492   7.169  1.00  0.00     0.245 C 
HETATM   19  O   UNL     1      43.924 -11.827   8.332  1.00  0.00    -0.271 OA
HETATM   20  H   UNL     1      43.501 -10.882   5.304  1.00  0.00     0.169 HD
BRANCH  18  21
HETATM   21  C   UNL     1      45.567 -11.518   6.588  1.00  0.00     0.270 C 
BRANCH  21  22
HETATM   22  O   UNL     1      46.575 -10.849   7.332  1.00  0.00    -0.387 OA
HETATM   23  C   UNL     1      46.156  -9.589   7.834  1.00  0.00     0.202 C 
ENDBRANCH  21  22
ENDBRANCH  18  21
ENDBRANCH  12  17
ENDBRANCH   1  11
BRANCH   3  24
HETATM   24  N   UNL     1      40.634 -15.190   2.334  1.00  0.00    -0.340 N 
HETATM   25  H   UNL     1      40.799 -16.180   2.187  1.00  0.00     0.167 HD
BRANCH  24  26
HETATM   26  C   UNL     1      40.553 -14.477   1.114  1.00  0.00     0.034 A 
HETATM   27  C   UNL     1      41.104 -13.196   0.959  1.00  0.00     0.032 A 
HETATM   28  C   UNL     1      41.036 -12.493  -0.251  1.00  0.00     0.034 A 
HETATM   29  C   UNL     1      40.356 -13.110  -1.301  1.00  0.00     0.062 A 
HETATM   30  N   UNL     1      40.133 -12.722  -2.596  1.00  0.00    -0.278 N 
HETATM   31  C   UNL     1      39.743 -14.349  -1.178  1.00  0.00     0.013 A 
HETATM   32  H   UNL     1      40.461 -11.879  -3.053  1.00  0.00     0.189 HD
HETATM   33  N   UNL     1      39.379 -13.584  -3.304  1.00  0.00    -0.186 NA
HETATM   34  C   UNL     1      39.156 -14.579  -2.442  1.00  0.00     0.152 A 
HETATM   35  C   UNL     1      39.828 -15.039   0.046  1.00  0.00     0.044 A 
ENDBRANCH  24  26
ENDBRANCH   3  24
TORSDOF 6
ENDMDL
MODEL 6
REMARK VINA RESULT:      -8.5      3.747      7.703
REMARK  6 active torsions:
REMARK  status: ('A' for Active; 'I' for Inactive)
REMARK    1  A    between atoms: O_2  and  C_3 
REMARK    2  A    between atoms: C_3  and  C_4 
REMARK       I    between atoms: C_4  and  N_6 
REMARK    3  A    between atoms: N_6  and  C_7 
REMARK    4  A    between atoms: C_12  and  C_13 
REMARK    5  A    between atoms: C_15  and  N_16 
REMARK    6  A    between atoms: N_16  and  C_17 
ROOT
HETATM    1  C   UNL     1      43.790 -12.248   6.426  1.00  0.00     0.164 A 
HETATM    2  N   UNL     1      43.721 -12.188   5.086  1.00  0.00    -0.210 NA
HETATM    3  C   UNL     1      43.288 -13.280   4.428  1.00  0.00     0.143 A 
HETATM    4  C   UNL     1      42.952 -14.471   5.098  1.00  0.00     0.039 A 
HETATM    5  C   UNL     1      42.483 -15.659   4.480  1.00  0.00     0.018 A 
HETATM    6  C   UNL     1      42.197 -16.794   5.236  1.00  0.00     0.001 A 
HETATM    7  C   UNL     1      42.368 -16.755   6.612  1.00  0.00     0.002 A 
HETATM    8  C   UNL     1      42.810 -15.577   7.222  1.00  0.00     0.032 A 
HETATM    9  C   UNL     1      43.099 -14.433   6.489  1.00  0.00     0.073 A 
HETATM   10  N   UNL     1      43.500 -13.342   7.147  1.00  0.00    -0.228 NA
ENDROOT
BRANCH   1  11
HETATM   11  C   UNL     1      44.200 -11.025   7.153  1.00  0.00     0.039 A 
HETATM   12  C   UNL     1      43.282 -10.068   7.670  1.00  0.00     0.049 A 
HETATM   13  C   UNL     1      43.771  -8.933   8.338  1.00  0.00     0.030 A 
HETATM   14  C   UNL     1      45.141  -8.727   8.509  1.00  0.00     0.002 A 
HETATM   15  C   UNL     1      46.048  -9.648   8.011  1.00  0.00     0.001 A 
HETATM   16  C   UNL     1      45.581 -10.779   7.341  1.00  0.00     0.018 A 
BRANCH  12  17
HETATM   17  N   UNL     1      41.886 -10.280   7.503  1.00  0.00    -0.324 N 
HETATM   18  C   UNL     1      41.094  -9.993   6.403  1.00  0.00     0.245 C 
HETATM   19  O   UNL     1      41.483  -9.512   5.342  1.00  0.00    -0.271 OA
HETATM   20  H   UNL     1      41.427 -10.698   8.312  1.00  0.00     0.169 HD
BRANCH  18  21
HETATM   21  C   UNL     1      39.617 -10.396   6.595  1.00  0.00     0.270 C 
BRANCH  21  22
HETATM   22  O   UNL     1      39.358 -11.756   6.914  1.00  0.00    -0.387 OA
HETATM   23  C   UNL     1      39.767 -12.656   5.894  1.00  0.00     0.202 C 
ENDBRANCH  21  22
ENDBRANCH  18  21
ENDBRANCH  12  17
ENDBRANCH   1  11
BRANCH   3  24
HETATM   24  N   UNL     1      43.173 -13.222   3.013  1.00  0.00    -0.340 N 
HETATM   25  H   UNL     1      43.978 -12.741   2.625  1.00  0.00     0.167 HD
BRANCH  24  26
HETATM   26  C   UNL     1      42.003 -13.002   2.248  1.00  0.00     0.034 A 
HETATM   27  C   UNL     1      41.076 -12.000   2.571  1.00  0.00     0.032 A 
HETATM   28  C   UNL     1      39.922 -11.773   1.809  1.00  0.00     0.034 A 
HETATM   29  C   UNL     1      39.709 -12.619   0.721  1.00  0.00     0.062 A 
HETATM   30  N   UNL     1      38.721 -12.655  -0.227  1.00  0.00    -0.278 N 
HETATM   31  C   UNL     1      40.566 -13.662   0.397  1.00  0.00     0.013 A 
HETATM   32  H   UNL     1      37.936 -12.021  -0.325  1.00  0.00     0.189 HD
HETATM   33  N   UNL     1      38.839 -13.669  -1.105  1.00  0.00    -0.186 NA
HETATM   34  C   UNL     1      39.970 -14.270  -0.730  1.00  0.00     0.152 A 
HETATM   35  C   UNL     1      41.721 -13.869   1.175  1.00  0.00     0.044 A 
ENDBRANCH  24  26
ENDBRANCH   3  24
TORSDOF 6
ENDMDL
MODEL 7
REMARK VINA RESULT:      -8.4     15.394     17.902
REMARK  6 active torsions:
REMARK  status: ('A' for Active; 'I' for Inactive)
REMARK    1  A    between atoms: O_2  and  C_3 
REMARK    2  A    between atoms: C_3  and  C_4 
REMARK       I    between atoms: C_4  and  N_6 
REMARK    3  A    between atoms: N_6  and  C_7 
REMARK    4  A    between atoms: C_12  and  C_13 
REMARK    5  A    between atoms: C_15  and  N_16 
REMARK    6  A    between atoms: N_16  and  C_17 
ROOT
HETATM    1  C   UNL     1      46.770 -30.011   2.096  1.00  0.00     0.164 A 
HETATM    2  N   UNL     1      46.468 -29.274   1.014  1.00  0.00    -0.210 NA
HETATM    3  C   UNL     1      45.168 -29.112   0.705  1.00  0.00     0.143 A 
HETATM    4  C   UNL     1      44.142 -29.719   1.452  1.00  0.00     0.039 A 
HETATM    5  C   UNL     1      42.752 -29.593   1.196  1.00  0.00     0.018 A 
HETATM    6  C   UNL     1      41.816 -30.256   1.986  1.00  0.00     0.001 A 
HETATM    7  C   UNL     1      42.252 -31.043   3.042  1.00  0.00     0.002 A 
HETATM    8  C   UNL     1      43.621 -31.150   3.306  1.00  0.00     0.032 A 
HETATM    9  C   UNL     1      44.573 -30.496   2.533  1.00  0.00     0.073 A 
HETATM   10  N   UNL     1      45.860 -30.635   2.859  1.00  0.00    -0.228 NA
ENDROOT
BRANCH   1  11
HETATM   11  C   UNL     1      48.197 -30.131   2.476  1.00  0.00     0.039 A 
HETATM   12  C   UNL     1      49.209 -30.620   1.602  1.00  0.00     0.049 A 
HETATM   13  C   UNL     1      50.533 -30.705   2.061  1.00  0.00     0.030 A 
HETATM   14  C   UNL     1      50.879 -30.314   3.356  1.00  0.00     0.002 A 
HETATM   15  C   UNL     1      49.906 -29.836   4.219  1.00  0.00     0.001 A 
HETATM   16  C   UNL     1      48.584 -29.749   3.783  1.00  0.00     0.018 A 
BRANCH  12  17
HETATM   17  N   UNL     1      48.859 -31.011   0.281  1.00  0.00    -0.324 N 
HETATM   18  C   UNL     1      49.329 -30.510  -0.922  1.00  0.00     0.245 C 
HETATM   19  O   UNL     1      50.174 -29.627  -1.052  1.00  0.00    -0.271 OA
HETATM   20  H   UNL     1      48.168 -31.761   0.237  1.00  0.00     0.169 HD
BRANCH  18  21
HETATM   21  C   UNL     1      48.724 -31.216  -2.153  1.00  0.00     0.270 C 
BRANCH  21  22
HETATM   22  O   UNL     1      47.368 -31.628  -2.056  1.00  0.00    -0.387 OA
HETATM   23  C   UNL     1      47.182 -33.007  -2.339  1.00  0.00     0.202 C 
ENDBRANCH  21  22
ENDBRANCH  18  21
ENDBRANCH  12  17
ENDBRANCH   1  11
BRANCH   3  24
HETATM   24  N   UNL     1      44.830 -28.304  -0.414  1.00  0.00    -0.340 N 
HETATM   25  H   UNL     1      44.040 -27.711  -0.180  1.00  0.00     0.167 HD
BRANCH  24  26
HETATM   26  C   UNL     1      44.832 -28.672  -1.780  1.00  0.00     0.034 A 
HETATM   27  C   UNL     1      45.165 -27.764  -2.797  1.00  0.00     0.032 A 
HETATM   28  C   UNL     1      45.180 -28.129  -4.150  1.00  0.00     0.034 A 
HETATM   29  C   UNL     1      44.809 -29.438  -4.455  1.00  0.00     0.062 A 
HETATM   30  N   UNL     1      44.743 -30.114  -5.644  1.00  0.00    -0.278 N 
HETATM   31  C   UNL     1      44.414 -30.354  -3.490  1.00  0.00     0.013 A 
HETATM   32  H   UNL     1      44.989 -29.769  -6.565  1.00  0.00     0.189 HD
HETATM   33  N   UNL     1      44.286 -31.376  -5.533  1.00  0.00    -0.186 NA
HETATM   34  C   UNL     1      44.101 -31.522  -4.219  1.00  0.00     0.152 A 
HETATM   35  C   UNL     1      44.411 -29.967  -2.136  1.00  0.00     0.044 A 
ENDBRANCH  24  26
ENDBRANCH   3  24
TORSDOF 6
ENDMDL
MODEL 8
REMARK VINA RESULT:      -8.3      8.258     11.710
REMARK  6 active torsions:
REMARK  status: ('A' for Active; 'I' for Inactive)
REMARK    1  A    between atoms: O_2  and  C_3 
REMARK    2  A    between atoms: C_3  and  C_4 
REMARK       I    between atoms: C_4  and  N_6 
REMARK    3  A    between atoms: N_6  and  C_7 
REMARK    4  A    between atoms: C_12  and  C_13 
REMARK    5  A    between atoms: C_15  and  N_16 
REMARK    6  A    between atoms: N_16  and  C_17 
ROOT
HETATM    1  C   UNL     1      42.837  -9.551   8.882  1.00  0.00     0.164 A 
HETATM    2  N   UNL     1      42.782  -9.777  10.205  1.00  0.00    -0.210 NA
HETATM    3  C   UNL     1      41.692  -9.354  10.873  1.00  0.00     0.143 A 
HETATM    4  C   UNL     1      40.649  -8.659  10.234  1.00  0.00     0.039 A 
HETATM    5  C   UNL     1      39.468  -8.186  10.863  1.00  0.00     0.018 A 
HETATM    6  C   UNL     1      38.503  -7.488  10.141  1.00  0.00     0.001 A 
HETATM    7  C   UNL     1      38.700  -7.259   8.787  1.00  0.00     0.002 A 
HETATM    8  C   UNL     1      39.854  -7.742   8.164  1.00  0.00     0.032 A 
HETATM    9  C   UNL     1      40.829  -8.444   8.862  1.00  0.00     0.073 A 
HETATM   10  N   UNL     1      41.895  -8.888   8.193  1.00  0.00    -0.228 NA
ENDROOT
BRANCH   1  11
HETATM   11  C   UNL     1      44.003 -10.077   8.137  1.00  0.00     0.039 A 
HETATM   12  C   UNL     1      43.925 -11.149   7.203  1.00  0.00     0.049 A 
HETATM   13  C   UNL     1      45.093 -11.583   6.554  1.00  0.00     0.030 A 
HETATM   14  C   UNL     1      46.327 -10.982   6.802  1.00  0.00     0.002 A 
HETATM   15  C   UNL     1      46.420  -9.938   7.709  1.00  0.00     0.001 A 
HETATM   16  C   UNL     1      45.273  -9.496   8.367  1.00  0.00     0.018 A 
BRANCH  12  17
HETATM   17  N   UNL     1      42.667 -11.758   6.944  1.00  0.00    -0.324 N 
HETATM   18  C   UNL     1      41.831 -11.583   5.854  1.00  0.00     0.245 C 
HETATM   19  O   UNL     1      42.055 -10.864   4.883  1.00  0.00    -0.271 OA
HETATM   20  H   UNL     1      42.358 -12.404   7.670  1.00  0.00     0.169 HD
BRANCH  18  21
HETATM   21  C   UNL     1      40.553 -12.445   5.923  1.00  0.00     0.270 C 
BRANCH  21  22
HETATM   22  O   UNL     1      40.041 -12.935   4.691  1.00  0.00    -0.387 OA
HETATM   23  C   UNL     1      40.708 -14.103   4.234  1.00  0.00     0.202 C 
ENDBRANCH  21  22
ENDBRANCH  18  21
ENDBRANCH  12  17
ENDBRANCH   1  11
BRANCH   3  24
HETATM   24  N   UNL     1      41.601  -9.619  12.265  1.00  0.00    -0.340 N 
HETATM   25  H   UNL     1      40.771 -10.170  12.454  1.00  0.00     0.167 HD
BRANCH  24  26
HETATM   26  C   UNL     1      41.915  -8.748  13.335  1.00  0.00     0.034 A 
HETATM   27  C   UNL     1      43.020  -7.883  13.295  1.00  0.00     0.032 A 
HETATM   28  C   UNL     1      43.327  -7.011  14.348  1.00  0.00     0.034 A 
HETATM   29  C   UNL     1      42.501  -7.063  15.471  1.00  0.00     0.062 A 
HETATM   30  N   UNL     1      42.501  -6.345  16.637  1.00  0.00    -0.278 N 
HETATM   31  C   UNL     1      41.433  -7.943  15.582  1.00  0.00     0.013 A 
HETATM   32  H   UNL     1      43.125  -5.589  16.896  1.00  0.00     0.189 HD
HETATM   33  N   UNL     1      41.555  -6.726  17.516  1.00  0.00    -0.186 NA
HETATM   34  C   UNL     1      40.899  -7.689  16.864  1.00  0.00     0.152 A 
HETATM   35  C   UNL     1      41.141  -8.808  14.509  1.00  0.00     0.044 A 
ENDBRANCH  24  26
ENDBRANCH   3  24
TORSDOF 6
ENDMDL
MODEL 9
REMARK VINA RESULT:      -8.3      4.316      6.869
REMARK  6 active torsions:
REMARK  status: ('A' for Active; 'I' for Inactive)
REMARK    1  A    between atoms: O_2  and  C_3 
REMARK    2  A    between atoms: C_3  and  C_4 
REMARK       I    between atoms: C_4  and  N_6 
REMARK    3  A    between atoms: N_6  and  C_7 
REMARK    4  A    between atoms: C_12  and  C_13 
REMARK    5  A    between atoms: C_15  and  N_16 
REMARK    6  A    between atoms: N_16  and  C_17 
ROOT
HETATM    1  C   UNL     1      42.774 -11.401   6.171  1.00  0.00     0.164 A 
HETATM    2  N   UNL     1      42.522 -12.687   6.464  1.00  0.00    -0.210 NA
HETATM    3  C   UNL     1      41.604 -13.335   5.720  1.00  0.00     0.143 A 
HETATM    4  C   UNL     1      40.891 -12.693   4.692  1.00  0.00     0.039 A 
HETATM    5  C   UNL     1      39.915 -13.305   3.861  1.00  0.00     0.018 A 
HETATM    6  C   UNL     1      39.249 -12.571   2.882  1.00  0.00     0.001 A 
HETATM    7  C   UNL     1      39.551 -11.228   2.714  1.00  0.00     0.002 A 
HETATM    8  C   UNL     1      40.526 -10.632   3.519  1.00  0.00     0.032 A 
HETATM    9  C   UNL     1      41.205 -11.343   4.500  1.00  0.00     0.073 A 
HETATM   10  N   UNL     1      42.135 -10.707   5.216  1.00  0.00    -0.228 NA
ENDROOT
BRANCH   1  11
HETATM   11  C   UNL     1      43.832 -10.711   6.943  1.00  0.00     0.039 A 
HETATM   12  C   UNL     1      43.614  -9.522   7.696  1.00  0.00     0.049 A 
HETATM   13  C   UNL     1      44.687  -8.937   8.387  1.00  0.00     0.030 A 
HETATM   14  C   UNL     1      45.964  -9.500   8.355  1.00  0.00     0.002 A 
HETATM   15  C   UNL     1      46.194 -10.656   7.627  1.00  0.00     0.001 A 
HETATM   16  C   UNL     1      45.142 -11.249   6.930  1.00  0.00     0.018 A 
BRANCH  12  17
HETATM   17  N   UNL     1      42.313  -8.952   7.735  1.00  0.00    -0.324 N 
HETATM   18  C   UNL     1      41.400  -8.952   8.778  1.00  0.00     0.245 C 
HETATM   19  O   UNL     1      41.578  -9.443   9.890  1.00  0.00    -0.271 OA
HETATM   20  H   UNL     1      42.033  -8.488   6.871  1.00  0.00     0.169 HD
BRANCH  18  21
HETATM   21  C   UNL     1      40.093  -8.203   8.443  1.00  0.00     0.270 C 
BRANCH  21  22
HETATM   22  O   UNL     1      39.074  -8.948   7.791  1.00  0.00    -0.387 OA
HETATM   23  C   UNL     1      39.046  -8.746   6.385  1.00  0.00     0.202 C 
ENDBRANCH  21  22
ENDBRANCH  18  21
ENDBRANCH  12  17
ENDBRANCH   1  11
BRANCH   3  24
HETATM   24  N   UNL     1      41.353 -14.706   5.992  1.00  0.00    -0.340 N 
HETATM   25  H   UNL     1      40.961 -14.804   6.922  1.00  0.00     0.167 HD
BRANCH  24  26
HETATM   26  C   UNL     1      42.147 -15.821   5.630  1.00  0.00     0.034 A 
HETATM   27  C   UNL     1      42.843 -16.582   6.580  1.00  0.00     0.032 A 
HETATM   28  C   UNL     1      43.620 -17.693   6.227  1.00  0.00     0.034 A 
HETATM   29  C   UNL     1      43.707 -17.994   4.868  1.00  0.00     0.062 A 
HETATM   30  N   UNL     1      44.344 -19.004   4.196  1.00  0.00    -0.278 N 
HETATM   31  C   UNL     1      43.086 -17.235   3.886  1.00  0.00     0.013 A 
HETATM   32  H   UNL     1      44.877 -19.769   4.594  1.00  0.00     0.189 HD
HETATM   33  N   UNL     1      44.231 -18.929   2.857  1.00  0.00    -0.186 NA
HETATM   34  C   UNL     1      43.453 -17.860   2.673  1.00  0.00     0.152 A 
HETATM   35  C   UNL     1      42.306 -16.126   4.265  1.00  0.00     0.044 A 
ENDBRANCH  24  26
ENDBRANCH   3  24
TORSDOF 6
ENDMDL
MODEL 10
REMARK VINA RESULT:      -8.2     15.934     17.957
REMARK  6 active torsions:
REMARK  status: ('A' for Active; 'I' for Inactive)
REMARK    1  A    between atoms: O_2  and  C_3 
REMARK    2  A    between atoms: C_3  and  C_4 
REMARK       I    between atoms: C_4  and  N_6 
REMARK    3  A    between atoms: N_6  and  C_7 
REMARK    4  A    between atoms: C_12  and  C_13 
REMARK    5  A    between atoms: C_15  and  N_16 
REMARK    6  A    between atoms: N_16  and  C_17 
ROOT
HETATM    1  C   UNL     1      46.793 -29.711   0.878  1.00  0.00     0.164 A 
HETATM    2  N   UNL     1      45.673 -30.426   1.074  1.00  0.00    -0.210 NA
HETATM    3  C   UNL     1      44.742 -30.418   0.100  1.00  0.00     0.143 A 
HETATM    4  C   UNL     1      44.897 -29.661  -1.075  1.00  0.00     0.039 A 
HETATM    5  C   UNL     1      43.969 -29.604  -2.147  1.00  0.00     0.018 A 
HETATM    6  C   UNL     1      44.210 -28.803  -3.260  1.00  0.00     0.001 A 
HETATM    7  C   UNL     1      45.378 -28.057  -3.322  1.00  0.00     0.002 A 
HETATM    8  C   UNL     1      46.301 -28.129  -2.275  1.00  0.00     0.032 A 
HETATM    9  C   UNL     1      46.084 -28.923  -1.156  1.00  0.00     0.073 A 
HETATM   10  N   UNL     1      47.021 -28.952  -0.205  1.00  0.00    -0.228 NA
ENDROOT
BRANCH   1  11
HETATM   11  C   UNL     1      47.846 -29.775   1.917  1.00  0.00     0.039 A 
HETATM   12  C   UNL     1      49.239 -29.816   1.628  1.00  0.00     0.049 A 
HETATM   13  C   UNL     1      50.160 -29.886   2.686  1.00  0.00     0.030 A 
HETATM   14  C   UNL     1      49.737 -29.912   4.016  1.00  0.00     0.002 A 
HETATM   15  C   UNL     1      48.384 -29.874   4.314  1.00  0.00     0.001 A 
HETATM   16  C   UNL     1      47.454 -29.809   3.277  1.00  0.00     0.018 A 
BRANCH  12  17
HETATM   17  N   UNL     1      49.672 -29.782   0.275  1.00  0.00    -0.324 N 
HETATM   18  C   UNL     1      50.021 -30.840  -0.548  1.00  0.00     0.245 C 
HETATM   19  O   UNL     1      49.992 -32.030  -0.241  1.00  0.00    -0.271 OA
HETATM   20  H   UNL     1      49.727 -28.844  -0.123  1.00  0.00     0.169 HD
BRANCH  18  21
HETATM   21  C   UNL     1      50.417 -30.399  -1.972  1.00  0.00     0.270 C 
BRANCH  21  22
HETATM   22  O   UNL     1      51.802 -30.209  -2.224  1.00  0.00    -0.387 OA
HETATM   23  C   UNL     1      52.459 -31.392  -2.655  1.00  0.00     0.202 C 
ENDBRANCH  21  22
ENDBRANCH  18  21
ENDBRANCH  12  17
ENDBRANCH   1  11
BRANCH   3  24
HETATM   24  N   UNL     1      43.568 -31.199   0.275  1.00  0.00    -0.340 N 
HETATM   25  H   UNL     1      43.091 -31.302  -0.614  1.00  0.00     0.167 HD
BRANCH  24  26
HETATM   26  C   UNL     1      42.664 -31.173   1.363  1.00  0.00     0.034 A 
HETATM   27  C   UNL     1      42.610 -30.099   2.264  1.00  0.00     0.032 A 
HETATM   28  C   UNL     1      41.708 -30.064   3.336  1.00  0.00     0.034 A 
HETATM   29  C   UNL     1      40.879 -31.174   3.497  1.00  0.00     0.062 A 
HETATM   30  N   UNL     1      39.887 -31.448   4.402  1.00  0.00    -0.278 N 
HETATM   31  C   UNL     1      40.936 -32.286   2.668  1.00  0.00     0.013 A 
HETATM   32  H   UNL     1      39.545 -30.847   5.143  1.00  0.00     0.189 HD
HETATM   33  N   UNL     1      39.337 -32.668   4.260  1.00  0.00    -0.186 NA
HETATM   34  C   UNL     1      39.968 -33.169   3.195  1.00  0.00     0.152 A 
HETATM   35  C   UNL     1      41.848 -32.296   1.595  1.00  0.00     0.044 A 
ENDBRANCH  24  26
ENDBRANCH   3  24
TORSDOF 6
ENDMDL
