MODEL 1
REMARK VINA RESULT:      -8.1      0.000      0.000
REMARK  10 active torsions:
REMARK  status: ('A' for Active; 'I' for Inactive)
REMARK    1  A    between atoms: C_2  and  O_3 
REMARK    2  A    between atoms: O_3  and  C_4 
REMARK    3  A    between atoms: C_7  and  C_8 
REMARK    4  A    between atoms: C_8  and  C_9 
REMARK    5  A    between atoms: C_10  and  C_11 
REMARK    6  A    between atoms: C_13  and  N_14 
REMARK    7  A    between atoms: N_20  and  C_21 
REMARK    8  A    between atoms: C_21  and  C_22 
REMARK    9  A    between atoms: C_22  and  N_23 
REMARK   10  A    between atoms: C_34  and  O_35 
ROOT
HETATM    1  C   UNL     1      42.012 -11.560   2.693  1.00  0.00     0.059 C 
HETATM    2  C   UNL     1      41.366 -11.279   1.372  1.00  0.00     0.161 C 
HETATM    3  N   UNL     1      40.340 -10.314   1.764  1.00  0.00    -0.332 N 
HETATM    4  C   UNL     1      40.231 -10.229   3.136  1.00  0.00     0.278 C 
HETATM    5  O   UNL     1      39.377  -9.594   3.731  1.00  0.00    -0.265 OA
HETATM    6  C   UNL     1      41.356 -10.985   3.714  1.00  0.00     0.146 C 
ENDROOT
BRANCH   1   7
HETATM    7  C   UNL     1      43.188 -12.407   2.972  1.00  0.00     0.193 C 
HETATM    8  O   UNL     1      44.264 -11.864   3.217  1.00  0.00    -0.287 OA
BRANCH   7   9
HETATM    9  C   UNL     1      43.093 -13.882   3.020  1.00  0.00     0.015 A 
HETATM   10  C   UNL     1      42.558 -14.578   4.107  1.00  0.00     0.018 A 
HETATM   11  C   UNL     1      42.471 -15.979   4.075  1.00  0.00     0.038 A 
HETATM   12  C   UNL     1      42.868 -16.683   2.939  1.00  0.00     0.069 A 
HETATM   13  C   UNL     1      43.380 -15.978   1.847  1.00  0.00     0.038 A 
HETATM   14  C   UNL     1      43.491 -14.587   1.881  1.00  0.00     0.018 A 
BRANCH  12  15
HETATM   15  O   UNL     1      42.803 -18.030   2.742  1.00  0.00    -0.347 OA
BRANCH  15  16
HETATM   16  C   UNL     1      43.989 -18.828   2.774  1.00  0.00     0.120 C 
HETATM   17  C   UNL     1      43.681 -20.186   2.153  1.00  0.00     0.040 C 
HETATM   18  C   UNL     1      44.384 -18.986   4.240  1.00  0.00     0.040 C 
ENDBRANCH  15  16
ENDBRANCH  12  15
ENDBRANCH   7   9
ENDBRANCH   1   7
BRANCH   2  19
HETATM   19  C   UNL     1      40.774 -12.487   0.669  1.00  0.00    -0.028 A 
HETATM   20  C   UNL     1      40.788 -12.538  -0.735  1.00  0.00     0.045 A 
HETATM   21  C   UNL     1      40.235 -13.638  -1.414  1.00  0.00     0.103 A 
HETATM   22  C   UNL     1      39.672 -14.703  -0.708  1.00  0.00     0.036 A 
HETATM   23  C   UNL     1      39.652 -14.657   0.686  1.00  0.00     0.003 A 
HETATM   24  C   UNL     1      40.187 -13.558   1.367  1.00  0.00     0.010 A 
BRANCH  21  25
HETATM   25  N   UNL     1      40.219 -13.641  -2.883  1.00  0.00    -0.116 N 
HETATM   26  O   UNL     1      41.287 -13.377  -3.456  1.00  0.00    -0.532 OA
HETATM   27  O   UNL     1      39.144 -13.865  -3.450  1.00  0.00    -0.532 OA
ENDBRANCH  21  25
ENDBRANCH   2  19
BRANCH   6  28
HETATM   28  O   UNL     1      41.616 -11.038   5.051  1.00  0.00    -0.355 OA
HETATM   29  H   UNL     1      42.408 -10.477   5.224  1.00  0.00     0.218 HD
ENDBRANCH   6  28
BRANCH   3  30
HETATM   30  C   UNL     1      39.406  -9.689   0.837  1.00  0.00     0.155 C 
BRANCH  30  31
HETATM   31  C   UNL     1      40.102  -9.022  -0.385  1.00  0.00     0.254 C 
BRANCH  31  32
HETATM   32  N   UNL     1      39.124  -8.619  -1.500  1.00  0.00    -0.066 N 
HETATM   33  H   UNL     1      38.899  -7.629  -1.306  1.00  0.00     0.280 HD
HETATM   34  C   UNL     1      37.787  -9.369  -1.420  1.00  0.00     0.262 C 
HETATM   35  C   UNL     1      37.865 -10.789  -2.035  1.00  0.00     0.260 C 
HETATM   36  N   UNL     1      38.403 -10.742  -3.441  1.00  0.00    -0.072 N 
HETATM   37  H   UNL     1      37.727 -10.313  -4.093  1.00  0.00     0.277 HD
HETATM   38  H   UNL     1      38.509 -11.711  -3.791  1.00  0.00     0.277 HD
HETATM   39  C   UNL     1      39.752 -10.066  -3.539  1.00  0.00     0.260 C 
HETATM   40  C   UNL     1      39.706  -8.643  -2.925  1.00  0.00     0.262 C 
ENDBRANCH  31  32
ENDBRANCH  30  31
ENDBRANCH   3  30
TORSDOF 10
ENDMDL
MODEL 2
REMARK VINA RESULT:      -8.1      4.649      7.645
REMARK  10 active torsions:
REMARK  status: ('A' for Active; 'I' for Inactive)
REMARK    1  A    between atoms: C_2  and  O_3 
REMARK    2  A    between atoms: O_3  and  C_4 
REMARK    3  A    between atoms: C_7  and  C_8 
REMARK    4  A    between atoms: C_8  and  C_9 
REMARK    5  A    between atoms: C_10  and  C_11 
REMARK    6  A    between atoms: C_13  and  N_14 
REMARK    7  A    between atoms: N_20  and  C_21 
REMARK    8  A    between atoms: C_21  and  C_22 
REMARK    9  A    between atoms: C_22  and  N_23 
REMARK   10  A    between atoms: C_34  and  O_35 
ROOT
HETATM    1  C   UNL     1      42.787 -12.181   4.049  1.00  0.00     0.059 C 
HETATM    2  C   UNL     1      42.027 -12.182   5.338  1.00  0.00     0.161 C 
HETATM    3  N   UNL     1      42.919 -11.393   6.187  1.00  0.00    -0.332 N 
HETATM    4  C   UNL     1      44.133 -11.174   5.570  1.00  0.00     0.278 C 
HETATM    5  O   UNL     1      45.099 -10.651   6.097  1.00  0.00    -0.265 OA
HETATM    6  C   UNL     1      44.005 -11.630   4.174  1.00  0.00     0.146 C 
ENDROOT
BRANCH   1   7
HETATM    7  C   UNL     1      42.379 -12.750   2.749  1.00  0.00     0.193 C 
HETATM    8  O   UNL     1      41.994 -11.987   1.864  1.00  0.00    -0.287 OA
BRANCH   7   9
HETATM    9  C   UNL     1      42.475 -14.198   2.467  1.00  0.00     0.015 A 
HETATM   10  C   UNL     1      43.570 -14.781   1.823  1.00  0.00     0.018 A 
HETATM   11  C   UNL     1      43.610 -16.168   1.613  1.00  0.00     0.038 A 
HETATM   12  C   UNL     1      42.583 -16.982   2.090  1.00  0.00     0.069 A 
HETATM   13  C   UNL     1      41.503 -16.395   2.754  1.00  0.00     0.038 A 
HETATM   14  C   UNL     1      41.446 -15.014   2.947  1.00  0.00     0.018 A 
BRANCH  12  15
HETATM   15  O   UNL     1      42.503 -18.339   2.003  1.00  0.00    -0.347 OA
BRANCH  15  16
HETATM   16  C   UNL     1      43.643 -19.155   2.289  1.00  0.00     0.120 C 
HETATM   17  C   UNL     1      43.345 -20.582   1.842  1.00  0.00     0.040 C 
HETATM   18  C   UNL     1      43.864 -19.102   3.798  1.00  0.00     0.040 C 
ENDBRANCH  15  16
ENDBRANCH  12  15
ENDBRANCH   7   9
ENDBRANCH   1   7
BRANCH   2  19
HETATM   19  C   UNL     1      41.746 -13.554   5.925  1.00  0.00    -0.028 A 
HETATM   20  C   UNL     1      42.815 -14.441   6.137  1.00  0.00     0.045 A 
HETATM   21  C   UNL     1      42.584 -15.722   6.666  1.00  0.00     0.103 A 
HETATM   22  C   UNL     1      41.292 -16.133   7.002  1.00  0.00     0.036 A 
HETATM   23  C   UNL     1      40.227 -15.258   6.793  1.00  0.00     0.003 A 
HETATM   24  C   UNL     1      40.448 -13.987   6.251  1.00  0.00     0.010 A 
BRANCH  21  25
HETATM   25  N   UNL     1      43.714 -16.647   6.830  1.00  0.00    -0.116 N 
HETATM   26  O   UNL     1      43.449 -17.791   7.229  1.00  0.00    -0.532 OA
HETATM   27  O   UNL     1      44.850 -16.219   6.600  1.00  0.00    -0.532 OA
ENDBRANCH  21  25
ENDBRANCH   2  19
BRANCH   6  28
HETATM   28  O   UNL     1      44.989 -11.479   3.243  1.00  0.00    -0.355 OA
HETATM   29  H   UNL     1      45.834 -11.320   3.727  1.00  0.00     0.218 HD
ENDBRANCH   6  28
BRANCH   3  30
HETATM   30  C   UNL     1      42.648 -11.069   7.582  1.00  0.00     0.155 C 
BRANCH  30  31
HETATM   31  C   UNL     1      42.592  -9.539   7.860  1.00  0.00     0.254 C 
BRANCH  31  32
HETATM   32  N   UNL     1      43.859  -8.995   8.539  1.00  0.00    -0.066 N 
HETATM   33  H   UNL     1      44.539  -8.878   7.769  1.00  0.00     0.280 HD
HETATM   34  C   UNL     1      44.499 -10.004   9.504  1.00  0.00     0.262 C 
HETATM   35  C   UNL     1      43.799 -10.030  10.885  1.00  0.00     0.260 C 
HETATM   36  N   UNL     1      43.725  -8.649  11.481  1.00  0.00    -0.072 N 
HETATM   37  H   UNL     1      44.656  -8.308  11.770  1.00  0.00     0.277 HD
HETATM   38  H   UNL     1      43.189  -8.694  12.366  1.00  0.00     0.277 HD
HETATM   39  C   UNL     1      43.040  -7.648  10.579  1.00  0.00     0.260 C 
HETATM   40  C   UNL     1      43.715  -7.605   9.184  1.00  0.00     0.262 C 
ENDBRANCH  31  32
ENDBRANCH  30  31
ENDBRANCH   3  30
TORSDOF 10
ENDMDL
MODEL 3
REMARK VINA RESULT:      -8.0      1.155      1.780
REMARK  10 active torsions:
REMARK  status: ('A' for Active; 'I' for Inactive)
REMARK    1  A    between atoms: C_2  and  O_3 
REMARK    2  A    between atoms: O_3  and  C_4 
REMARK    3  A    between atoms: C_7  and  C_8 
REMARK    4  A    between atoms: C_8  and  C_9 
REMARK    5  A    between atoms: C_10  and  C_11 
REMARK    6  A    between atoms: C_13  and  N_14 
REMARK    7  A    between atoms: N_20  and  C_21 
REMARK    8  A    between atoms: C_21  and  C_22 
REMARK    9  A    between atoms: C_22  and  N_23 
REMARK   10  A    between atoms: C_34  and  O_35 
ROOT
HETATM    1  C   UNL     1      42.115 -11.459   2.720  1.00  0.00     0.059 C 
HETATM    2  C   UNL     1      41.501 -11.138   1.393  1.00  0.00     0.161 C 
HETATM    3  N   UNL     1      40.508 -10.137   1.781  1.00  0.00    -0.332 N 
HETATM    4  C   UNL     1      40.382 -10.063   3.152  1.00  0.00     0.278 C 
HETATM    5  O   UNL     1      39.545  -9.401   3.741  1.00  0.00    -0.265 OA
HETATM    6  C   UNL     1      41.468 -10.870   3.738  1.00  0.00     0.146 C 
ENDROOT
BRANCH   1   7
HETATM    7  C   UNL     1      43.253 -12.355   3.005  1.00  0.00     0.193 C 
HETATM    8  O   UNL     1      44.343 -11.858   3.283  1.00  0.00    -0.287 OA
BRANCH   7   9
HETATM    9  C   UNL     1      43.101 -13.826   3.023  1.00  0.00     0.015 A 
HETATM   10  C   UNL     1      42.517 -14.522   4.086  1.00  0.00     0.018 A 
HETATM   11  C   UNL     1      42.378 -15.917   4.024  1.00  0.00     0.038 A 
HETATM   12  C   UNL     1      42.773 -16.615   2.883  1.00  0.00     0.069 A 
HETATM   13  C   UNL     1      43.335 -15.910   1.816  1.00  0.00     0.038 A 
HETATM   14  C   UNL     1      43.496 -14.524   1.879  1.00  0.00     0.018 A 
BRANCH  12  15
HETATM   15  O   UNL     1      42.662 -17.954   2.660  1.00  0.00    -0.347 OA
BRANCH  15  16
HETATM   16  C   UNL     1      43.818 -18.795   2.689  1.00  0.00     0.120 C 
HETATM   17  C   UNL     1      43.453 -20.148   2.087  1.00  0.00     0.040 C 
HETATM   18  C   UNL     1      44.222 -18.951   4.153  1.00  0.00     0.040 C 
ENDBRANCH  15  16
ENDBRANCH  12  15
ENDBRANCH   7   9
ENDBRANCH   1   7
BRANCH   2  19
HETATM   19  C   UNL     1      40.873 -12.314   0.667  1.00  0.00    -0.028 A 
HETATM   20  C   UNL     1      40.904 -12.349  -0.737  1.00  0.00     0.045 A 
HETATM   21  C   UNL     1      40.318 -13.418  -1.437  1.00  0.00     0.103 A 
HETATM   22  C   UNL     1      39.704 -14.468  -0.752  1.00  0.00     0.036 A 
HETATM   23  C   UNL     1      39.667 -14.438   0.642  1.00  0.00     0.003 A 
HETATM   24  C   UNL     1      40.235 -13.368   1.344  1.00  0.00     0.010 A 
BRANCH  21  25
HETATM   25  N   UNL     1      40.323 -13.404  -2.906  1.00  0.00    -0.116 N 
HETATM   26  O   UNL     1      41.290 -12.859  -3.458  1.00  0.00    -0.532 OA
HETATM   27  O   UNL     1      39.353 -13.895  -3.493  1.00  0.00    -0.532 OA
ENDBRANCH  21  25
ENDBRANCH   2  19
BRANCH   6  28
HETATM   28  O   UNL     1      41.704 -10.948   5.078  1.00  0.00    -0.355 OA
HETATM   29  H   UNL     1      40.841 -11.122   5.523  1.00  0.00     0.218 HD
ENDBRANCH   6  28
BRANCH   3  30
HETATM   30  C   UNL     1      39.613  -9.466   0.847  1.00  0.00     0.155 C 
BRANCH  30  31
HETATM   31  C   UNL     1      40.289  -8.291   0.082  1.00  0.00     0.254 C 
BRANCH  31  32
HETATM   32  N   UNL     1      40.755  -8.671  -1.332  1.00  0.00    -0.066 N 
HETATM   33  H   UNL     1      40.299  -9.579  -1.522  1.00  0.00     0.280 HD
HETATM   34  C   UNL     1      42.264  -8.945  -1.409  1.00  0.00     0.262 C 
HETATM   35  C   UNL     1      43.098  -7.644  -1.511  1.00  0.00     0.260 C 
HETATM   36  N   UNL     1      42.622  -6.782  -2.651  1.00  0.00    -0.072 N 
HETATM   37  H   UNL     1      42.851  -7.201  -3.566  1.00  0.00     0.277 HD
HETATM   38  H   UNL     1      43.153  -5.893  -2.642  1.00  0.00     0.277 HD
HETATM   39  C   UNL     1      41.151  -6.442  -2.565  1.00  0.00     0.260 C 
HETATM   40  C   UNL     1      40.290  -7.727  -2.455  1.00  0.00     0.262 C 
ENDBRANCH  31  32
ENDBRANCH  30  31
ENDBRANCH   3  30
TORSDOF 10
ENDMDL
MODEL 4
REMARK VINA RESULT:      -8.0      3.709      7.523
REMARK  10 active torsions:
REMARK  status: ('A' for Active; 'I' for Inactive)
REMARK    1  A    between atoms: C_2  and  O_3 
REMARK    2  A    between atoms: O_3  and  C_4 
REMARK    3  A    between atoms: C_7  and  C_8 
REMARK    4  A    between atoms: C_8  and  C_9 
REMARK    5  A    between atoms: C_10  and  C_11 
REMARK    6  A    between atoms: C_13  and  N_14 
REMARK    7  A    between atoms: N_20  and  C_21 
REMARK    8  A    between atoms: C_21  and  C_22 
REMARK    9  A    between atoms: C_22  and  N_23 
REMARK   10  A    between atoms: C_34  and  O_35 
ROOT
HETATM    1  C   UNL     1      43.120 -15.538   5.208  1.00  0.00     0.059 C 
HETATM    2  C   UNL     1      43.191 -14.049   5.341  1.00  0.00     0.161 C 
HETATM    3  N   UNL     1      43.386 -13.907   6.783  1.00  0.00    -0.332 N 
HETATM    4  C   UNL     1      43.206 -15.110   7.433  1.00  0.00     0.278 C 
HETATM    5  O   UNL     1      43.190 -15.254   8.643  1.00  0.00    -0.265 OA
HETATM    6  C   UNL     1      43.102 -16.156   6.400  1.00  0.00     0.146 C 
ENDROOT
BRANCH   1   7
HETATM    7  C   UNL     1      43.010 -16.340   3.974  1.00  0.00     0.193 C 
HETATM    8  O   UNL     1      43.691 -17.359   3.867  1.00  0.00    -0.287 OA
BRANCH   7   9
HETATM    9  C   UNL     1      42.066 -15.983   2.893  1.00  0.00     0.015 A 
HETATM   10  C   UNL     1      40.685 -16.174   2.991  1.00  0.00     0.018 A 
HETATM   11  C   UNL     1      39.842 -15.784   1.938  1.00  0.00     0.038 A 
HETATM   12  C   UNL     1      40.369 -15.157   0.809  1.00  0.00     0.069 A 
HETATM   13  C   UNL     1      41.748 -14.948   0.730  1.00  0.00     0.038 A 
HETATM   14  C   UNL     1      42.595 -15.352   1.764  1.00  0.00     0.018 A 
BRANCH  12  15
HETATM   15  O   UNL     1      39.678 -14.686  -0.266  1.00  0.00    -0.347 OA
BRANCH  15  16
HETATM   16  C   UNL     1      40.154 -13.551  -0.996  1.00  0.00     0.120 C 
HETATM   17  C   UNL     1      39.297 -12.344  -0.634  1.00  0.00     0.040 C 
HETATM   18  C   UNL     1      40.014 -13.883  -2.480  1.00  0.00     0.040 C 
ENDBRANCH  15  16
ENDBRANCH  12  15
ENDBRANCH   7   9
ENDBRANCH   1   7
BRANCH   2  19
HETATM   19  C   UNL     1      41.968 -13.294   4.854  1.00  0.00    -0.028 A 
HETATM   20  C   UNL     1      42.104 -12.372   3.802  1.00  0.00     0.045 A 
HETATM   21  C   UNL     1      40.992 -11.649   3.339  1.00  0.00     0.103 A 
HETATM   22  C   UNL     1      39.730 -11.840   3.907  1.00  0.00     0.036 A 
HETATM   23  C   UNL     1      39.588 -12.752   4.952  1.00  0.00     0.003 A 
HETATM   24  C   UNL     1      40.695 -13.463   5.428  1.00  0.00     0.010 A 
BRANCH  21  25
HETATM   25  N   UNL     1      41.174 -10.656   2.272  1.00  0.00    -0.116 N 
HETATM   26  O   UNL     1      40.211  -9.914   2.027  1.00  0.00    -0.532 OA
HETATM   27  O   UNL     1      42.250 -10.648   1.666  1.00  0.00    -0.532 OA
ENDBRANCH  21  25
ENDBRANCH   2  19
BRANCH   6  28
HETATM   28  O   UNL     1      43.009 -17.486   6.687  1.00  0.00    -0.355 OA
HETATM   29  H   UNL     1      42.403 -17.892   6.023  1.00  0.00     0.218 HD
ENDBRANCH   6  28
BRANCH   3  30
HETATM   30  C   UNL     1      43.533 -12.630   7.469  1.00  0.00     0.155 C 
BRANCH  30  31
HETATM   31  C   UNL     1      44.865 -11.899   7.134  1.00  0.00     0.254 C 
BRANCH  31  32
HETATM   32  N   UNL     1      44.734 -10.368   7.118  1.00  0.00    -0.066 N 
HETATM   33  H   UNL     1      44.865 -10.104   6.127  1.00  0.00     0.280 HD
HETATM   34  C   UNL     1      45.864  -9.664   7.884  1.00  0.00     0.262 C 
HETATM   35  C   UNL     1      45.621  -9.645   9.413  1.00  0.00     0.260 C 
HETATM   36  N   UNL     1      44.271  -9.064   9.741  1.00  0.00    -0.072 N 
HETATM   37  H   UNL     1      44.237  -8.049   9.552  1.00  0.00     0.277 HD
HETATM   38  H   UNL     1      44.116  -9.134  10.762  1.00  0.00     0.277 HD
HETATM   39  C   UNL     1      43.132  -9.780   9.051  1.00  0.00     0.260 C 
HETATM   40  C   UNL     1      43.351  -9.821   7.517  1.00  0.00     0.262 C 
ENDBRANCH  31  32
ENDBRANCH  30  31
ENDBRANCH   3  30
TORSDOF 10
ENDMDL
MODEL 5
REMARK VINA RESULT:      -7.9      2.413      5.389
REMARK  10 active torsions:
REMARK  status: ('A' for Active; 'I' for Inactive)
REMARK    1  A    between atoms: C_2  and  O_3 
REMARK    2  A    between atoms: O_3  and  C_4 
REMARK    3  A    between atoms: C_7  and  C_8 
REMARK    4  A    between atoms: C_8  and  C_9 
REMARK    5  A    between atoms: C_10  and  C_11 
REMARK    6  A    between atoms: C_13  and  N_14 
REMARK    7  A    between atoms: N_20  and  C_21 
REMARK    8  A    between atoms: C_21  and  C_22 
REMARK    9  A    between atoms: C_22  and  N_23 
REMARK   10  A    between atoms: C_34  and  O_35 
ROOT
HETATM    1  C   UNL     1      40.565 -12.756   0.177  1.00  0.00     0.059 C 
HETATM    2  C   UNL     1      40.264 -11.883   1.355  1.00  0.00     0.161 C 
HETATM    3  N   UNL     1      40.485 -10.556   0.781  1.00  0.00    -0.332 N 
HETATM    4  C   UNL     1      41.069 -10.641  -0.466  1.00  0.00     0.278 C 
HETATM    5  O   UNL     1      41.471  -9.691  -1.114  1.00  0.00    -0.265 OA
HETATM    6  C   UNL     1      41.051 -12.060  -0.863  1.00  0.00     0.146 C 
ENDROOT
BRANCH   1   7
HETATM    7  C   UNL     1      40.448 -14.224   0.077  1.00  0.00     0.193 C 
HETATM    8  O   UNL     1      39.735 -14.702  -0.805  1.00  0.00    -0.287 OA
BRANCH   7   9
HETATM    9  C   UNL     1      41.206 -15.130   0.966  1.00  0.00     0.015 A 
HETATM   10  C   UNL     1      42.602 -15.209   0.967  1.00  0.00     0.018 A 
HETATM   11  C   UNL     1      43.260 -16.070   1.860  1.00  0.00     0.038 A 
HETATM   12  C   UNL     1      42.531 -16.814   2.787  1.00  0.00     0.069 A 
HETATM   13  C   UNL     1      41.138 -16.712   2.795  1.00  0.00     0.038 A 
HETATM   14  C   UNL     1      40.475 -15.874   1.896  1.00  0.00     0.018 A 
BRANCH  12  15
HETATM   15  O   UNL     1      43.027 -17.652   3.739  1.00  0.00    -0.347 OA
BRANCH  15  16
HETATM   16  C   UNL     1      43.982 -18.660   3.395  1.00  0.00     0.120 C 
HETATM   17  C   UNL     1      43.382 -19.554   2.316  1.00  0.00     0.040 C 
HETATM   18  C   UNL     1      44.263 -19.462   4.663  1.00  0.00     0.040 C 
ENDBRANCH  15  16
ENDBRANCH  12  15
ENDBRANCH   7   9
ENDBRANCH   1   7
BRANCH   2  19
HETATM   19  C   UNL     1      41.126 -12.125   2.581  1.00  0.00    -0.028 A 
HETATM   20  C   UNL     1      40.537 -12.661   3.739  1.00  0.00     0.045 A 
HETATM   21  C   UNL     1      41.307 -12.883   4.893  1.00  0.00     0.103 A 
HETATM   22  C   UNL     1      42.672 -12.586   4.908  1.00  0.00     0.036 A 
HETATM   23  C   UNL     1      43.262 -12.052   3.763  1.00  0.00     0.003 A 
HETATM   24  C   UNL     1      42.497 -11.813   2.615  1.00  0.00     0.010 A 
BRANCH  21  25
HETATM   25  N   UNL     1      40.655 -13.397   6.104  1.00  0.00    -0.116 N 
HETATM   26  O   UNL     1      41.129 -14.429   6.601  1.00  0.00    -0.532 OA
HETATM   27  O   UNL     1      39.660 -12.797   6.525  1.00  0.00    -0.532 OA
ENDBRANCH  21  25
ENDBRANCH   2  19
BRANCH   6  28
HETATM   28  O   UNL     1      41.468 -12.501  -2.084  1.00  0.00    -0.355 OA
HETATM   29  H   UNL     1      42.440 -12.663  -2.027  1.00  0.00     0.218 HD
ENDBRANCH   6  28
BRANCH   3  30
HETATM   30  C   UNL     1      40.317  -9.308   1.514  1.00  0.00     0.155 C 
BRANCH  30  31
HETATM   31  C   UNL     1      38.972  -9.226   2.292  1.00  0.00     0.254 C 
BRANCH  31  32
HETATM   32  N   UNL     1      39.026  -8.286   3.507  1.00  0.00    -0.066 N 
HETATM   33  H   UNL     1      38.766  -7.359   3.133  1.00  0.00     0.280 HD
HETATM   34  C   UNL     1      40.445  -8.120   4.070  1.00  0.00     0.262 C 
HETATM   35  C   UNL     1      40.860  -9.295   4.990  1.00  0.00     0.260 C 
HETATM   36  N   UNL     1      39.844  -9.515   6.080  1.00  0.00    -0.072 N 
HETATM   37  H   UNL     1      39.854  -8.748   6.770  1.00  0.00     0.277 HD
HETATM   38  H   UNL     1      40.117 -10.350   6.628  1.00  0.00     0.277 HD
HETATM   39  C   UNL     1      38.446  -9.748   5.551  1.00  0.00     0.260 C 
HETATM   40  C   UNL     1      38.005  -8.589   4.620  1.00  0.00     0.262 C 
ENDBRANCH  31  32
ENDBRANCH  30  31
ENDBRANCH   3  30
TORSDOF 10
ENDMDL
MODEL 6
REMARK VINA RESULT:      -7.8      3.839      6.675
REMARK  10 active torsions:
REMARK  status: ('A' for Active; 'I' for Inactive)
REMARK    1  A    between atoms: C_2  and  O_3 
REMARK    2  A    between atoms: O_3  and  C_4 
REMARK    3  A    between atoms: C_7  and  C_8 
REMARK    4  A    between atoms: C_8  and  C_9 
REMARK    5  A    between atoms: C_10  and  C_11 
REMARK    6  A    between atoms: C_13  and  N_14 
REMARK    7  A    between atoms: N_20  and  C_21 
REMARK    8  A    between atoms: C_21  and  C_22 
REMARK    9  A    between atoms: C_22  and  N_23 
REMARK   10  A    between atoms: C_34  and  O_35 
ROOT
HETATM    1  C   UNL     1      42.845 -11.846   3.685  1.00  0.00     0.059 C 
HETATM    2  C   UNL     1      42.363 -13.222   3.348  1.00  0.00     0.161 C 
HETATM    3  N   UNL     1      41.140 -12.914   2.608  1.00  0.00    -0.332 N 
HETATM    4  C   UNL     1      40.817 -11.577   2.709  1.00  0.00     0.278 C 
HETATM    5  O   UNL     1      39.788 -11.074   2.291  1.00  0.00    -0.265 OA
HETATM    6  C   UNL     1      41.957 -10.896   3.348  1.00  0.00     0.146 C 
ENDROOT
BRANCH   1   7
HETATM    7  C   UNL     1      44.095 -11.459   4.369  1.00  0.00     0.193 C 
HETATM    8  O   UNL     1      45.116 -11.314   3.698  1.00  0.00    -0.287 OA
BRANCH   7   9
HETATM    9  C   UNL     1      44.138 -11.187   5.821  1.00  0.00     0.015 A 
HETATM   10  C   UNL     1      42.993 -10.965   6.592  1.00  0.00     0.018 A 
HETATM   11  C   UNL     1      43.104 -10.742   7.974  1.00  0.00     0.038 A 
HETATM   12  C   UNL     1      44.350 -10.791   8.597  1.00  0.00     0.069 A 
HETATM   13  C   UNL     1      45.487 -11.037   7.824  1.00  0.00     0.038 A 
HETATM   14  C   UNL     1      45.387 -11.238   6.446  1.00  0.00     0.018 A 
BRANCH  12  15
HETATM   15  O   UNL     1      44.610 -10.640   9.925  1.00  0.00    -0.347 OA
BRANCH  15  16
HETATM   16  C   UNL     1      43.593 -10.176  10.818  1.00  0.00     0.120 C 
HETATM   17  C   UNL     1      43.958  -8.772  11.286  1.00  0.00     0.040 C 
HETATM   18  C   UNL     1      43.559 -11.143  11.999  1.00  0.00     0.040 C 
ENDBRANCH  15  16
ENDBRANCH  12  15
ENDBRANCH   7   9
ENDBRANCH   1   7
BRANCH   2  19
HETATM   19  C   UNL     1      42.098 -14.127   4.537  1.00  0.00    -0.028 A 
HETATM   20  C   UNL     1      42.896 -15.269   4.721  1.00  0.00     0.045 A 
HETATM   21  C   UNL     1      42.665 -16.133   5.806  1.00  0.00     0.103 A 
HETATM   22  C   UNL     1      41.646 -15.868   6.724  1.00  0.00     0.036 A 
HETATM   23  C   UNL     1      40.849 -14.738   6.546  1.00  0.00     0.003 A 
HETATM   24  C   UNL     1      41.064 -13.882   5.459  1.00  0.00     0.010 A 
BRANCH  21  25
HETATM   25  N   UNL     1      43.482 -17.345   5.945  1.00  0.00    -0.116 N 
HETATM   26  O   UNL     1      44.210 -17.644   4.987  1.00  0.00    -0.532 OA
HETATM   27  O   UNL     1      43.364 -18.006   6.982  1.00  0.00    -0.532 OA
ENDBRANCH  21  25
ENDBRANCH   2  19
BRANCH   6  28
HETATM   28  O   UNL     1      42.021  -9.546   3.524  1.00  0.00    -0.355 OA
HETATM   29  H   UNL     1      42.941  -9.261   3.310  1.00  0.00     0.218 HD
ENDBRANCH   6  28
BRANCH   3  30
HETATM   30  C   UNL     1      40.259 -13.919   2.025  1.00  0.00     0.155 C 
BRANCH  30  31
HETATM   31  C   UNL     1      40.479 -14.121   0.498  1.00  0.00     0.254 C 
BRANCH  31  32
HETATM   32  N   UNL     1      39.218 -13.860  -0.340  1.00  0.00    -0.066 N 
HETATM   33  H   UNL     1      38.446 -14.264   0.216  1.00  0.00     0.280 HD
HETATM   34  C   UNL     1      39.215 -14.629  -1.669  1.00  0.00     0.262 C 
HETATM   35  C   UNL     1      40.057 -13.925  -2.763  1.00  0.00     0.260 C 
HETATM   36  N   UNL     1      39.629 -12.492  -2.939  1.00  0.00    -0.072 N 
HETATM   37  H   UNL     1      38.695 -12.424  -3.375  1.00  0.00     0.277 HD
HETATM   38  H   UNL     1      40.259 -12.036  -3.623  1.00  0.00     0.277 HD
HETATM   39  C   UNL     1      39.685 -11.693  -1.656  1.00  0.00     0.260 C 
HETATM   40  C   UNL     1      38.855 -12.377  -0.539  1.00  0.00     0.262 C 
ENDBRANCH  31  32
ENDBRANCH  30  31
ENDBRANCH   3  30
TORSDOF 10
ENDMDL
MODEL 7
REMARK VINA RESULT:      -7.8      3.788      7.822
REMARK  10 active torsions:
REMARK  status: ('A' for Active; 'I' for Inactive)
REMARK    1  A    between atoms: C_2  and  O_3 
REMARK    2  A    between atoms: O_3  and  C_4 
REMARK    3  A    between atoms: C_7  and  C_8 
REMARK    4  A    between atoms: C_8  and  C_9 
REMARK    5  A    between atoms: C_10  and  C_11 
REMARK    6  A    between atoms: C_13  and  N_14 
REMARK    7  A    between atoms: N_20  and  C_21 
REMARK    8  A    between atoms: C_21  and  C_22 
REMARK    9  A    between atoms: C_22  and  N_23 
REMARK   10  A    between atoms: C_34  and  O_35 
ROOT
HETATM    1  C   UNL     1      41.687 -11.817   4.321  1.00  0.00     0.059 C 
HETATM    2  C   UNL     1      42.115 -12.450   5.607  1.00  0.00     0.161 C 
HETATM    3  N   UNL     1      43.523 -12.057   5.655  1.00  0.00    -0.332 N 
HETATM    4  C   UNL     1      43.926 -11.494   4.462  1.00  0.00     0.278 C 
HETATM    5  O   UNL     1      45.074 -11.190   4.187  1.00  0.00    -0.265 OA
HETATM    6  C   UNL     1      42.719 -11.288   3.643  1.00  0.00     0.146 C 
ENDROOT
BRANCH   1   7
HETATM    7  C   UNL     1      40.334 -11.775   3.731  1.00  0.00     0.193 C 
HETATM    8  O   UNL     1      39.457 -11.132   4.305  1.00  0.00    -0.287 OA
BRANCH   7   9
HETATM    9  C   UNL     1      40.024 -12.436   2.445  1.00  0.00     0.015 A 
HETATM   10  C   UNL     1      39.489 -11.758   1.347  1.00  0.00     0.018 A 
HETATM   11  C   UNL     1      39.246 -12.441   0.144  1.00  0.00     0.038 A 
HETATM   12  C   UNL     1      39.584 -13.788   0.019  1.00  0.00     0.069 A 
HETATM   13  C   UNL     1      40.140 -14.453   1.115  1.00  0.00     0.038 A 
HETATM   14  C   UNL     1      40.365 -13.786   2.320  1.00  0.00     0.018 A 
BRANCH  12  15
HETATM   15  O   UNL     1      39.450 -14.569  -1.089  1.00  0.00    -0.347 OA
BRANCH  15  16
HETATM   16  C   UNL     1      39.203 -13.980  -2.368  1.00  0.00     0.120 C 
HETATM   17  C   UNL     1      38.451 -14.986  -3.232  1.00  0.00     0.040 C 
HETATM   18  C   UNL     1      40.563 -13.657  -2.983  1.00  0.00     0.040 C 
ENDBRANCH  15  16
ENDBRANCH  12  15
ENDBRANCH   7   9
ENDBRANCH   1   7
BRANCH   2  19
HETATM   19  C   UNL     1      41.941 -13.956   5.680  1.00  0.00    -0.028 A 
HETATM   20  C   UNL     1      42.781 -14.781   4.914  1.00  0.00     0.045 A 
HETATM   21  C   UNL     1      42.635 -16.179   4.950  1.00  0.00     0.103 A 
HETATM   22  C   UNL     1      41.660 -16.773   5.755  1.00  0.00     0.036 A 
HETATM   23  C   UNL     1      40.821 -15.959   6.517  1.00  0.00     0.003 A 
HETATM   24  C   UNL     1      40.952 -14.566   6.472  1.00  0.00     0.010 A 
BRANCH  21  25
HETATM   25  N   UNL     1      43.494 -17.014   4.101  1.00  0.00    -0.116 N 
HETATM   26  O   UNL     1      44.239 -17.819   4.678  1.00  0.00    -0.532 OA
HETATM   27  O   UNL     1      43.449 -16.835   2.879  1.00  0.00    -0.532 OA
ENDBRANCH  21  25
ENDBRANCH   2  19
BRANCH   6  28
HETATM   28  O   UNL     1      42.732 -10.665   2.431  1.00  0.00    -0.355 OA
HETATM   29  H   UNL     1      42.549 -11.347   1.743  1.00  0.00     0.218 HD
ENDBRANCH   6  28
BRANCH   3  30
HETATM   30  C   UNL     1      44.437 -12.410   6.734  1.00  0.00     0.155 C 
BRANCH  30  31
HETATM   31  C   UNL     1      44.750 -11.223   7.691  1.00  0.00     0.254 C 
BRANCH  31  32
HETATM   32  N   UNL     1      43.541 -10.782   8.532  1.00  0.00    -0.066 N 
HETATM   33  H   UNL     1      42.848 -11.540   8.411  1.00  0.00     0.280 HD
HETATM   34  C   UNL     1      42.866  -9.515   7.988  1.00  0.00     0.262 C 
HETATM   35  C   UNL     1      43.603  -8.221   8.414  1.00  0.00     0.260 C 
HETATM   36  N   UNL     1      43.784  -8.166   9.908  1.00  0.00    -0.072 N 
HETATM   37  H   UNL     1      42.886  -8.018  10.395  1.00  0.00     0.277 HD
HETATM   38  H   UNL     1      44.341  -7.327  10.147  1.00  0.00     0.277 HD
HETATM   39  C   UNL     1      44.506  -9.373  10.463  1.00  0.00     0.260 C 
HETATM   40  C   UNL     1      43.794 -10.686  10.048  1.00  0.00     0.262 C 
ENDBRANCH  31  32
ENDBRANCH  30  31
ENDBRANCH   3  30
TORSDOF 10
ENDMDL
MODEL 8
REMARK VINA RESULT:      -7.7      5.750      9.829
REMARK  10 active torsions:
REMARK  status: ('A' for Active; 'I' for Inactive)
REMARK    1  A    between atoms: C_2  and  O_3 
REMARK    2  A    between atoms: O_3  and  C_4 
REMARK    3  A    between atoms: C_7  and  C_8 
REMARK    4  A    between atoms: C_8  and  C_9 
REMARK    5  A    between atoms: C_10  and  C_11 
REMARK    6  A    between atoms: C_13  and  N_14 
REMARK    7  A    between atoms: N_20  and  C_21 
REMARK    8  A    between atoms: C_21  and  C_22 
REMARK    9  A    between atoms: C_22  and  N_23 
REMARK   10  A    between atoms: C_34  and  O_35 
ROOT
HETATM    1  C   UNL     1      44.179 -11.024   6.715  1.00  0.00     0.059 C 
HETATM    2  C   UNL     1      42.706 -11.283   6.665  1.00  0.00     0.161 C 
HETATM    3  N   UNL     1      42.572 -11.865   5.330  1.00  0.00    -0.332 N 
HETATM    4  C   UNL     1      43.740 -11.737   4.609  1.00  0.00     0.278 C 
HETATM    5  O   UNL     1      43.869 -12.025   3.431  1.00  0.00    -0.265 OA
HETATM    6  C   UNL     1      44.779 -11.255   5.536  1.00  0.00     0.146 C 
ENDROOT
BRANCH   1   7
HETATM    7  C   UNL     1      44.976 -10.509   7.846  1.00  0.00     0.193 C 
HETATM    8  O   UNL     1      46.192 -10.693   7.846  1.00  0.00    -0.287 OA
BRANCH   7   9
HETATM    9  C   UNL     1      44.362  -9.731   8.944  1.00  0.00     0.015 A 
HETATM   10  C   UNL     1      44.102  -8.361   8.858  1.00  0.00     0.018 A 
HETATM   11  C   UNL     1      43.488  -7.690   9.927  1.00  0.00     0.038 A 
HETATM   12  C   UNL     1      43.087  -8.393  11.062  1.00  0.00     0.069 A 
HETATM   13  C   UNL     1      43.328  -9.767  11.131  1.00  0.00     0.038 A 
HETATM   14  C   UNL     1      43.958 -10.437  10.080  1.00  0.00     0.018 A 
BRANCH  12  15
HETATM   15  O   UNL     1      42.445  -7.892  12.154  1.00  0.00    -0.347 OA
BRANCH  15  16
HETATM   16  C   UNL     1      42.836  -8.286  13.472  1.00  0.00     0.120 C 
HETATM   17  C   UNL     1      41.634  -8.907  14.174  1.00  0.00     0.040 C 
HETATM   18  C   UNL     1      43.288  -7.023  14.201  1.00  0.00     0.040 C 
ENDBRANCH  15  16
ENDBRANCH  12  15
ENDBRANCH   7   9
ENDBRANCH   1   7
BRANCH   2  19
HETATM   19  C   UNL     1      41.824 -10.061   6.846  1.00  0.00    -0.028 A 
HETATM   20  C   UNL     1      40.908 -10.027   7.911  1.00  0.00     0.045 A 
HETATM   21  C   UNL     1      40.070  -8.915   8.096  1.00  0.00     0.103 A 
HETATM   22  C   UNL     1      40.137  -7.819   7.232  1.00  0.00     0.036 A 
HETATM   23  C   UNL     1      41.042  -7.847   6.172  1.00  0.00     0.003 A 
HETATM   24  C   UNL     1      41.869  -8.959   5.973  1.00  0.00     0.010 A 
BRANCH  21  25
HETATM   25  N   UNL     1      39.088  -8.929   9.188  1.00  0.00    -0.116 N 
HETATM   26  O   UNL     1      39.074  -9.932   9.917  1.00  0.00    -0.532 OA
HETATM   27  O   UNL     1      38.318  -7.967   9.287  1.00  0.00    -0.532 OA
ENDBRANCH  21  25
ENDBRANCH   2  19
BRANCH   6  28
HETATM   28  O   UNL     1      46.086 -11.102   5.183  1.00  0.00    -0.355 OA
HETATM   29  H   UNL     1      46.462 -10.377   5.737  1.00  0.00     0.218 HD
ENDBRANCH   6  28
BRANCH   3  30
HETATM   30  C   UNL     1      41.311 -12.320   4.757  1.00  0.00     0.155 C 
BRANCH  30  31
HETATM   31  C   UNL     1      40.492 -13.233   5.715  1.00  0.00     0.254 C 
BRANCH  31  32
HETATM   32  N   UNL     1      40.373 -14.684   5.222  1.00  0.00    -0.066 N 
HETATM   33  H   UNL     1      39.446 -14.730   4.769  1.00  0.00     0.280 HD
HETATM   34  C   UNL     1      40.322 -15.702   6.370  1.00  0.00     0.262 C 
HETATM   35  C   UNL     1      41.728 -16.035   6.930  1.00  0.00     0.260 C 
HETATM   36  N   UNL     1      42.661 -16.469   5.832  1.00  0.00    -0.072 N 
HETATM   37  H   UNL     1      42.405 -17.397   5.459  1.00  0.00     0.277 HD
HETATM   38  H   UNL     1      43.606 -16.612   6.232  1.00  0.00     0.277 HD
HETATM   39  C   UNL     1      42.782 -15.454   4.717  1.00  0.00     0.260 C 
HETATM   40  C   UNL     1      41.388 -15.097   4.140  1.00  0.00     0.262 C 
ENDBRANCH  31  32
ENDBRANCH  30  31
ENDBRANCH   3  30
TORSDOF 10
ENDMDL
MODEL 9
REMARK VINA RESULT:      -7.6      3.039      6.131
REMARK  10 active torsions:
REMARK  status: ('A' for Active; 'I' for Inactive)
REMARK    1  A    between atoms: C_2  and  O_3 
REMARK    2  A    between atoms: O_3  and  C_4 
REMARK    3  A    between atoms: C_7  and  C_8 
REMARK    4  A    between atoms: C_8  and  C_9 
REMARK    5  A    between atoms: C_10  and  C_11 
REMARK    6  A    between atoms: C_13  and  N_14 
REMARK    7  A    between atoms: N_20  and  C_21 
REMARK    8  A    between atoms: C_21  and  C_22 
REMARK    9  A    between atoms: C_22  and  N_23 
REMARK   10  A    between atoms: C_34  and  O_35 
ROOT
HETATM    1  C   UNL     1      39.899 -12.994   1.525  1.00  0.00     0.059 C 
HETATM    2  C   UNL     1      39.600 -12.805   2.979  1.00  0.00     0.161 C 
HETATM    3  N   UNL     1      39.232 -11.389   3.006  1.00  0.00    -0.332 N 
HETATM    4  C   UNL     1      39.514 -10.777   1.802  1.00  0.00     0.278 C 
HETATM    5  O   UNL     1      39.419  -9.580   1.589  1.00  0.00    -0.265 OA
HETATM    6  C   UNL     1      39.879 -11.836   0.845  1.00  0.00     0.146 C 
ENDROOT
BRANCH   1   7
HETATM    7  C   UNL     1      40.257 -14.241   0.823  1.00  0.00     0.193 C 
HETATM    8  O   UNL     1      39.717 -14.490  -0.254  1.00  0.00    -0.287 OA
BRANCH   7   9
HETATM    9  C   UNL     1      41.284 -15.166   1.349  1.00  0.00     0.015 A 
HETATM   10  C   UNL     1      42.656 -14.918   1.256  1.00  0.00     0.018 A 
HETATM   11  C   UNL     1      43.577 -15.825   1.804  1.00  0.00     0.038 A 
HETATM   12  C   UNL     1      43.130 -16.954   2.489  1.00  0.00     0.069 A 
HETATM   13  C   UNL     1      41.756 -17.184   2.598  1.00  0.00     0.038 A 
HETATM   14  C   UNL     1      40.835 -16.297   2.037  1.00  0.00     0.018 A 
BRANCH  12  15
HETATM   15  O   UNL     1      43.895 -17.895   3.108  1.00  0.00    -0.347 OA
BRANCH  15  16
HETATM   16  C   UNL     1      43.709 -18.187   4.496  1.00  0.00     0.120 C 
HETATM   17  C   UNL     1      44.449 -17.137   5.318  1.00  0.00     0.040 C 
HETATM   18  C   UNL     1      44.296 -19.574   4.745  1.00  0.00     0.040 C 
ENDBRANCH  15  16
ENDBRANCH  12  15
ENDBRANCH   7   9
ENDBRANCH   1   7
BRANCH   2  19
HETATM   19  C   UNL     1      40.747 -13.113   3.925  1.00  0.00    -0.028 A 
HETATM   20  C   UNL     1      40.579 -14.105   4.906  1.00  0.00     0.045 A 
HETATM   21  C   UNL     1      41.618 -14.403   5.804  1.00  0.00     0.103 A 
HETATM   22  C   UNL     1      42.839 -13.728   5.731  1.00  0.00     0.036 A 
HETATM   23  C   UNL     1      43.012 -12.742   4.761  1.00  0.00     0.003 A 
HETATM   24  C   UNL     1      41.974 -12.429   3.874  1.00  0.00     0.010 A 
BRANCH  21  25
HETATM   25  N   UNL     1      41.397 -15.409   6.851  1.00  0.00    -0.116 N 
HETATM   26  O   UNL     1      40.263 -15.905   6.921  1.00  0.00    -0.532 OA
HETATM   27  O   UNL     1      42.334 -15.666   7.614  1.00  0.00    -0.532 OA
ENDBRANCH  21  25
ENDBRANCH   2  19
BRANCH   6  28
HETATM   28  O   UNL     1      40.131 -11.600  -0.474  1.00  0.00    -0.355 OA
HETATM   29  H   UNL     1      40.263 -10.628  -0.583  1.00  0.00     0.218 HD
ENDBRANCH   6  28
BRANCH   3  30
HETATM   30  C   UNL     1      38.829 -10.669   4.207  1.00  0.00     0.155 C 
BRANCH  30  31
HETATM   31  C   UNL     1      39.832  -9.555   4.624  1.00  0.00     0.254 C 
BRANCH  31  32
HETATM   32  N   UNL     1      39.843  -9.278   6.136  1.00  0.00    -0.066 N 
HETATM   33  H   UNL     1      38.875  -9.472   6.444  1.00  0.00     0.280 HD
HETATM   34  C   UNL     1      40.093  -7.801   6.471  1.00  0.00     0.262 C 
HETATM   35  C   UNL     1      41.596  -7.427   6.417  1.00  0.00     0.260 C 
HETATM   36  N   UNL     1      42.415  -8.349   7.282  1.00  0.00    -0.072 N 
HETATM   37  H   UNL     1      42.237  -8.187   8.286  1.00  0.00     0.277 HD
HETATM   38  H   UNL     1      43.417  -8.116   7.164  1.00  0.00     0.277 HD
HETATM   39  C   UNL     1      42.237  -9.809   6.930  1.00  0.00     0.260 C 
HETATM   40  C   UNL     1      40.740 -10.211   6.970  1.00  0.00     0.262 C 
ENDBRANCH  31  32
ENDBRANCH  30  31
ENDBRANCH   3  30
TORSDOF 10
ENDMDL
MODEL 10
REMARK VINA RESULT:      -7.6      5.587      9.297
REMARK  10 active torsions:
REMARK  status: ('A' for Active; 'I' for Inactive)
REMARK    1  A    between atoms: C_2  and  O_3 
REMARK    2  A    between atoms: O_3  and  C_4 
REMARK    3  A    between atoms: C_7  and  C_8 
REMARK    4  A    between atoms: C_8  and  C_9 
REMARK    5  A    between atoms: C_10  and  C_11 
REMARK    6  A    between atoms: C_13  and  N_14 
REMARK    7  A    between atoms: N_20  and  C_21 
REMARK    8  A    between atoms: C_21  and  C_22 
REMARK    9  A    between atoms: C_22  and  N_23 
REMARK   10  A    between atoms: C_34  and  O_35 
ROOT
HETATM    1  C   UNL     1      44.117 -11.064   6.756  1.00  0.00     0.059 C 
HETATM    2  C   UNL     1      42.640 -11.215   6.569  1.00  0.00     0.161 C 
HETATM    3  N   UNL     1      42.577 -11.615   5.164  1.00  0.00    -0.332 N 
HETATM    4  C   UNL     1      43.804 -11.478   4.549  1.00  0.00     0.278 C 
HETATM    5  O   UNL     1      44.007 -11.625   3.356  1.00  0.00    -0.265 OA
HETATM    6  C   UNL     1      44.793 -11.187   5.602  1.00  0.00     0.146 C 
ENDROOT
BRANCH   1   7
HETATM    7  C   UNL     1      44.853 -10.750   7.997  1.00  0.00     0.193 C 
HETATM    8  O   UNL     1      46.012 -11.145   8.115  1.00  0.00    -0.287 OA
BRANCH   7   9
HETATM    9  C   UNL     1      44.254  -9.928   9.070  1.00  0.00     0.015 A 
HETATM   10  C   UNL     1      44.117  -8.540   8.984  1.00  0.00     0.018 A 
HETATM   11  C   UNL     1      43.512  -7.823  10.029  1.00  0.00     0.038 A 
HETATM   12  C   UNL     1      42.997  -8.495  11.137  1.00  0.00     0.069 A 
HETATM   13  C   UNL     1      43.117  -9.885  11.205  1.00  0.00     0.038 A 
HETATM   14  C   UNL     1      43.737 -10.602  10.180  1.00  0.00     0.018 A 
BRANCH  12  15
HETATM   15  O   UNL     1      42.348  -7.946  12.202  1.00  0.00    -0.347 OA
BRANCH  15  16
HETATM   16  C   UNL     1      42.706  -8.309  13.538  1.00  0.00     0.120 C 
HETATM   17  C   UNL     1      41.467  -8.846  14.246  1.00  0.00     0.040 C 
HETATM   18  C   UNL     1      43.210  -7.043  14.226  1.00  0.00     0.040 C 
ENDBRANCH  15  16
ENDBRANCH  12  15
ENDBRANCH   7   9
ENDBRANCH   1   7
BRANCH   2  19
HETATM   19  C   UNL     1      41.820  -9.968   6.844  1.00  0.00    -0.028 A 
HETATM   20  C   UNL     1      40.891  -9.977   7.899  1.00  0.00     0.045 A 
HETATM   21  C   UNL     1      40.108  -8.842   8.169  1.00  0.00     0.103 A 
HETATM   22  C   UNL     1      40.245  -7.682   7.402  1.00  0.00     0.036 A 
HETATM   23  C   UNL     1      41.163  -7.667   6.353  1.00  0.00     0.003 A 
HETATM   24  C   UNL     1      41.935  -8.800   6.069  1.00  0.00     0.010 A 
BRANCH  21  25
HETATM   25  N   UNL     1      39.110  -8.897   9.245  1.00  0.00    -0.116 N 
HETATM   26  O   UNL     1      39.169  -9.866  10.015  1.00  0.00    -0.532 OA
HETATM   27  O   UNL     1      38.258  -8.003   9.290  1.00  0.00    -0.532 OA
ENDBRANCH  21  25
ENDBRANCH   2  19
BRANCH   6  28
HETATM   28  O   UNL     1      46.131 -11.080   5.364  1.00  0.00    -0.355 OA
HETATM   29  H   UNL     1      46.363 -10.122   5.389  1.00  0.00     0.218 HD
ENDBRANCH   6  28
BRANCH   3  30
HETATM   30  C   UNL     1      41.341 -11.910   4.450  1.00  0.00     0.155 C 
BRANCH  30  31
HETATM   31  C   UNL     1      41.123 -13.429   4.194  1.00  0.00     0.254 C 
BRANCH  31  32
HETATM   32  N   UNL     1      41.685 -13.907   2.846  1.00  0.00    -0.066 N 
HETATM   33  H   UNL     1      42.710 -13.820   2.944  1.00  0.00     0.280 HD
HETATM   34  C   UNL     1      41.303 -12.985   1.679  1.00  0.00     0.262 C 
HETATM   35  C   UNL     1      39.872 -13.257   1.152  1.00  0.00     0.260 C 
HETATM   36  N   UNL     1      39.690 -14.711   0.804  1.00  0.00    -0.072 N 
HETATM   37  H   UNL     1      40.232 -14.973  -0.035  1.00  0.00     0.277 HD
HETATM   38  H   UNL     1      38.705 -14.868   0.525  1.00  0.00     0.277 HD
HETATM   39  C   UNL     1      39.997 -15.641   1.956  1.00  0.00     0.260 C 
HETATM   40  C   UNL     1      41.423 -15.387   2.510  1.00  0.00     0.262 C 
ENDBRANCH  31  32
ENDBRANCH  30  31
ENDBRANCH   3  30
TORSDOF 10
ENDMDL
