MODEL 1
REMARK VINA RESULT:      -8.6      0.000      0.000
REMARK  7 active torsions:
REMARK  status: ('A' for Active; 'I' for Inactive)
REMARK    1  A    between atoms: C_2  and  O_3 
REMARK    2  A    between atoms: O_3  and  C_4 
REMARK    3  A    between atoms: C_4  and  C_5 
REMARK    4  A    between atoms: C_6  and  C_7 
REMARK    5  A    between atoms: C_18  and  S_19 
REMARK    6  A    between atoms: S_19  and  C_20 
REMARK    7  A    between atoms: C_20  and  C_21 
ROOT
HETATM    1  C   UNL     1      41.792 -10.763   5.417  1.00  0.00     0.070 C 
HETATM    2  C   UNL     1      42.354 -11.747   6.446  1.00  0.00     0.203 C 
HETATM    3  N   UNL     1      42.464 -13.093   5.877  1.00  0.00    -0.082 N 
HETATM    4  C   UNL     1      42.411 -13.360   4.538  1.00  0.00     0.726 A 
HETATM    5  N   UNL     1      42.209 -12.343   3.677  1.00  0.00    -0.192 N 
HETATM    6  N   UNL     1      42.548 -14.221   6.602  1.00  0.00    -0.128 NA
HETATM    7  C   UNL     1      42.602 -15.141   5.630  1.00  0.00     0.226 A 
HETATM    8  N   UNL     1      42.534 -14.649   4.348  1.00  0.00    -0.035 NA
HETATM    9  C   UNL     1      41.798 -11.074   4.093  1.00  0.00     0.037 C 
HETATM   10  C   UNL     1      41.397 -10.136   2.980  1.00  0.00     0.070 C 
HETATM   11  H   UNL     1      42.074 -12.571   2.695  1.00  0.00     0.184 HD
ENDROOT
BRANCH   7  12
HETATM   12  S   UNL     1      42.703 -16.832   6.022  1.00  0.00    -0.083 SA
BRANCH  12  13
HETATM   13  C   UNL     1      44.237 -17.280   5.165  1.00  0.00     0.123 C 
BRANCH  13  14
HETATM   14  C   UNL     1      44.037 -18.497   4.292  1.00  0.00    -0.027 A 
HETATM   15  C   UNL     1      43.640 -18.414   2.947  1.00  0.00     0.041 A 
HETATM   16 CL   UNL     1      43.376 -16.899   2.158  1.00  0.00    -0.084 Cl
HETATM   17  C   UNL     1      43.437 -19.575   2.192  1.00  0.00     0.024 A 
HETATM   18  C   UNL     1      43.619 -20.832   2.769  1.00  0.00     0.002 A 
HETATM   19  C   UNL     1      44.005 -20.930   4.103  1.00  0.00     0.001 A 
HETATM   20  C   UNL     1      44.211 -19.775   4.858  1.00  0.00     0.009 A 
ENDBRANCH  13  14
ENDBRANCH  12  13
ENDBRANCH   7  12
BRANCH   2  21
HETATM   21  C   UNL     1      43.718 -11.314   6.990  1.00  0.00    -0.026 A 
HETATM   22  C   UNL     1      43.812 -10.777   8.285  1.00  0.00     0.033 A 
HETATM   23  C   UNL     1      45.045 -10.357   8.787  1.00  0.00     0.034 A 
HETATM   24 CL   UNL     1      45.140  -9.692  10.372  1.00  0.00    -0.084 Cl
HETATM   25  C   UNL     1      46.199 -10.467   8.016  1.00  0.00     0.024 A 
HETATM   26  C   UNL     1      46.123 -11.003   6.732  1.00  0.00     0.002 A 
HETATM   27  C   UNL     1      44.893 -11.424   6.221  1.00  0.00     0.010 A 
ENDBRANCH   2  21
BRANCH   1  28
HETATM   28  C   UNL     1      41.224  -9.544   6.052  1.00  0.00     0.293 C 
HETATM   29  O   UNL     1      40.101  -9.510   6.531  1.00  0.00    -0.259 OA
BRANCH  28  30
HETATM   30  O   UNL     1      42.045  -8.476   5.927  1.00  0.00    -0.318 OA
BRANCH  30  31
HETATM   31  C   UNL     1      41.774  -7.369   6.801  1.00  0.00     0.174 C 
HETATM   32  C   UNL     1      42.690  -7.402   8.011  1.00  0.00     0.034 C 
ENDBRANCH  30  31
ENDBRANCH  28  30
ENDBRANCH   1  28
TORSDOF 7
ENDMDL
MODEL 2
REMARK VINA RESULT:      -8.5      3.499      5.019
REMARK  7 active torsions:
REMARK  status: ('A' for Active; 'I' for Inactive)
REMARK    1  A    between atoms: C_2  and  O_3 
REMARK    2  A    between atoms: O_3  and  C_4 
REMARK    3  A    between atoms: C_4  and  C_5 
REMARK    4  A    between atoms: C_6  and  C_7 
REMARK    5  A    between atoms: C_18  and  S_19 
REMARK    6  A    between atoms: S_19  and  C_20 
REMARK    7  A    between atoms: C_20  and  C_21 
ROOT
HETATM    1  C   UNL     1      40.809 -12.004   4.708  1.00  0.00     0.070 C 
HETATM    2  C   UNL     1      41.669 -13.131   4.131  1.00  0.00     0.203 C 
HETATM    3  N   UNL     1      41.824 -14.219   5.100  1.00  0.00    -0.082 N 
HETATM    4  C   UNL     1      41.039 -14.370   6.207  1.00  0.00     0.726 A 
HETATM    5  N   UNL     1      40.083 -13.454   6.459  1.00  0.00    -0.192 N 
HETATM    6  N   UNL     1      42.800 -15.142   5.058  1.00  0.00    -0.128 NA
HETATM    7  C   UNL     1      42.510 -15.864   6.148  1.00  0.00     0.226 A 
HETATM    8  N   UNL     1      41.426 -15.428   6.872  1.00  0.00    -0.035 NA
HETATM    9  C   UNL     1      40.021 -12.226   5.794  1.00  0.00     0.037 C 
HETATM   10  C   UNL     1      39.035 -11.238   6.367  1.00  0.00     0.070 C 
HETATM   11  H   UNL     1      39.573 -13.527   7.337  1.00  0.00     0.184 HD
ENDROOT
BRANCH   7  12
HETATM   12  S   UNL     1      43.500 -17.222   6.594  1.00  0.00    -0.083 SA
BRANCH  12  13
HETATM   13  C   UNL     1      44.593 -17.324   5.152  1.00  0.00     0.123 C 
BRANCH  13  14
HETATM   14  C   UNL     1      44.193 -18.466   4.246  1.00  0.00    -0.027 A 
HETATM   15  C   UNL     1      43.674 -18.271   2.955  1.00  0.00     0.041 A 
HETATM   16 CL   UNL     1      43.478 -16.696   2.272  1.00  0.00    -0.084 Cl
HETATM   17  C   UNL     1      43.289 -19.364   2.170  1.00  0.00     0.024 A 
HETATM   18  C   UNL     1      43.408 -20.663   2.664  1.00  0.00     0.002 A 
HETATM   19  C   UNL     1      43.913 -20.872   3.943  1.00  0.00     0.001 A 
HETATM   20  C   UNL     1      44.301 -19.786   4.728  1.00  0.00     0.009 A 
ENDBRANCH  13  14
ENDBRANCH  12  13
ENDBRANCH   7  12
BRANCH   2  21
HETATM   21  C   UNL     1      41.103 -13.693   2.825  1.00  0.00    -0.026 A 
HETATM   22  C   UNL     1      41.290 -12.988   1.624  1.00  0.00     0.033 A 
HETATM   23  C   UNL     1      40.762 -13.475   0.428  1.00  0.00     0.034 A 
HETATM   24 CL   UNL     1      40.993 -12.593  -1.032  1.00  0.00    -0.084 Cl
HETATM   25  C   UNL     1      40.044 -14.668   0.405  1.00  0.00     0.024 A 
HETATM   26  C   UNL     1      39.853 -15.382   1.587  1.00  0.00     0.002 A 
HETATM   27  C   UNL     1      40.378 -14.900   2.788  1.00  0.00     0.010 A 
ENDBRANCH   2  21
BRANCH   1  28
HETATM   28  C   UNL     1      41.010 -10.717   3.991  1.00  0.00     0.293 C 
HETATM   29  O   UNL     1      42.093 -10.155   3.931  1.00  0.00    -0.259 OA
BRANCH  28  30
HETATM   30  O   UNL     1      39.845 -10.203   3.531  1.00  0.00    -0.318 OA
BRANCH  30  31
HETATM   31  C   UNL     1      39.899  -9.586   2.236  1.00  0.00     0.174 C 
HETATM   32  C   UNL     1      38.954 -10.278   1.270  1.00  0.00     0.034 C 
ENDBRANCH  30  31
ENDBRANCH  28  30
ENDBRANCH   1  28
TORSDOF 7
ENDMDL
MODEL 3
REMARK VINA RESULT:      -8.2      4.187      7.597
REMARK  7 active torsions:
REMARK  status: ('A' for Active; 'I' for Inactive)
REMARK    1  A    between atoms: C_2  and  O_3 
REMARK    2  A    between atoms: O_3  and  C_4 
REMARK    3  A    between atoms: C_4  and  C_5 
REMARK    4  A    between atoms: C_6  and  C_7 
REMARK    5  A    between atoms: C_18  and  S_19 
REMARK    6  A    between atoms: S_19  and  C_20 
REMARK    7  A    between atoms: C_20  and  C_21 
ROOT
HETATM    1  C   UNL     1      41.954 -14.111   5.747  1.00  0.00     0.070 C 
HETATM    2  C   UNL     1      41.141 -14.503   4.510  1.00  0.00     0.203 C 
HETATM    3  N   UNL     1      40.523 -13.326   3.895  1.00  0.00    -0.082 N 
HETATM    4  C   UNL     1      40.898 -12.040   4.168  1.00  0.00     0.726 A 
HETATM    5  N   UNL     1      41.867 -11.822   5.079  1.00  0.00    -0.192 N 
HETATM    6  N   UNL     1      39.471 -13.366   3.061  1.00  0.00    -0.128 NA
HETATM    7  C   UNL     1      39.294 -12.061   2.817  1.00  0.00     0.226 A 
HETATM    8  N   UNL     1      40.161 -11.216   3.468  1.00  0.00    -0.035 NA
HETATM    9  C   UNL     1      42.326 -12.819   5.944  1.00  0.00     0.037 C 
HETATM   10  C   UNL     1      43.237 -12.337   7.047  1.00  0.00     0.070 C 
HETATM   11  H   UNL     1      42.065 -10.859   5.341  1.00  0.00     0.184 HD
ENDROOT
BRANCH   7  12
HETATM   12  S   UNL     1      38.009 -11.527   1.774  1.00  0.00    -0.083 SA
BRANCH  12  13
HETATM   13  C   UNL     1      38.928 -11.226   0.241  1.00  0.00     0.123 C 
BRANCH  13  14
HETATM   14  C   UNL     1      38.582 -12.254  -0.812  1.00  0.00    -0.027 A 
HETATM   15  C   UNL     1      39.332 -13.425  -1.010  1.00  0.00     0.041 A 
HETATM   16 CL   UNL     1      40.707 -13.813  -0.037  1.00  0.00    -0.084 Cl
HETATM   17  C   UNL     1      38.986 -14.329  -2.022  1.00  0.00     0.024 A 
HETATM   18  C   UNL     1      37.896 -14.072  -2.853  1.00  0.00     0.002 A 
HETATM   19  C   UNL     1      37.149 -12.913  -2.674  1.00  0.00     0.001 A 
HETATM   20  C   UNL     1      37.488 -12.011  -1.665  1.00  0.00     0.009 A 
ENDBRANCH  13  14
ENDBRANCH  12  13
ENDBRANCH   7  12
BRANCH   2  21
HETATM   21  C   UNL     1      41.979 -15.240   3.464  1.00  0.00    -0.026 A 
HETATM   22  C   UNL     1      41.859 -16.634   3.329  1.00  0.00     0.033 A 
HETATM   23  C   UNL     1      42.632 -17.323   2.394  1.00  0.00     0.034 A 
HETATM   24 CL   UNL     1      42.478 -19.031   2.250  1.00  0.00    -0.084 Cl
HETATM   25  C   UNL     1      43.533 -16.642   1.579  1.00  0.00     0.024 A 
HETATM   26  C   UNL     1      43.661 -15.259   1.697  1.00  0.00     0.002 A 
HETATM   27  C   UNL     1      42.891 -14.562   2.631  1.00  0.00     0.010 A 
ENDBRANCH   2  21
BRANCH   1  28
HETATM   28  C   UNL     1      42.193 -15.265   6.654  1.00  0.00     0.293 C 
HETATM   29  O   UNL     1      41.285 -15.910   7.158  1.00  0.00    -0.259 OA
BRANCH  28  30
HETATM   30  O   UNL     1      43.506 -15.427   6.938  1.00  0.00    -0.318 OA
BRANCH  30  31
HETATM   31  C   UNL     1      44.003 -16.772   6.870  1.00  0.00     0.174 C 
HETATM   32  C   UNL     1      44.555 -17.073   5.489  1.00  0.00     0.034 C 
ENDBRANCH  30  31
ENDBRANCH  28  30
ENDBRANCH   1  28
TORSDOF 7
ENDMDL
MODEL 4
REMARK VINA RESULT:      -7.9      3.112      8.092
REMARK  7 active torsions:
REMARK  status: ('A' for Active; 'I' for Inactive)
REMARK    1  A    between atoms: C_2  and  O_3 
REMARK    2  A    between atoms: O_3  and  C_4 
REMARK    3  A    between atoms: C_4  and  C_5 
REMARK    4  A    between atoms: C_6  and  C_7 
REMARK    5  A    between atoms: C_18  and  S_19 
REMARK    6  A    between atoms: S_19  and  C_20 
REMARK    7  A    between atoms: C_20  and  C_21 
ROOT
HETATM    1  C   UNL     1      41.506 -12.623   3.978  1.00  0.00     0.070 C 
HETATM    2  C   UNL     1      42.808 -13.101   4.627  1.00  0.00     0.203 C 
HETATM    3  N   UNL     1      43.274 -12.143   5.632  1.00  0.00    -0.082 N 
HETATM    4  C   UNL     1      42.493 -11.156   6.163  1.00  0.00     0.726 A 
HETATM    5  N   UNL     1      41.227 -11.017   5.721  1.00  0.00    -0.192 N 
HETATM    6  N   UNL     1      44.537 -12.072   6.088  1.00  0.00    -0.128 NA
HETATM    7  C   UNL     1      44.437 -11.046   6.943  1.00  0.00     0.226 A 
HETATM    8  N   UNL     1      43.193 -10.467   7.027  1.00  0.00    -0.035 NA
HETATM    9  C   UNL     1      40.755 -11.659   4.573  1.00  0.00     0.037 C 
HETATM   10  C   UNL     1      39.395 -11.204   4.101  1.00  0.00     0.070 C 
HETATM   11  H   UNL     1      40.692 -10.218   6.054  1.00  0.00     0.184 HD
ENDROOT
BRANCH   7  12
HETATM   12  S   UNL     1      45.830 -10.498   7.827  1.00  0.00    -0.083 SA
BRANCH  12  13
HETATM   13  C   UNL     1      45.228  -8.902   8.441  1.00  0.00     0.123 C 
BRANCH  13  14
HETATM   14  C   UNL     1      44.409  -9.077   9.699  1.00  0.00    -0.027 A 
HETATM   15  C   UNL     1      43.562  -8.076  10.203  1.00  0.00     0.041 A 
HETATM   16 CL   UNL     1      43.354  -6.558   9.403  1.00  0.00    -0.084 Cl
HETATM   17  C   UNL     1      42.850  -8.278  11.392  1.00  0.00     0.024 A 
HETATM   18  C   UNL     1      42.981  -9.475  12.096  1.00  0.00     0.002 A 
HETATM   19  C   UNL     1      43.822 -10.473  11.614  1.00  0.00     0.001 A 
HETATM   20  C   UNL     1      44.531 -10.276  10.428  1.00  0.00     0.009 A 
ENDBRANCH  13  14
ENDBRANCH  12  13
ENDBRANCH   7  12
BRANCH   2  21
HETATM   21  C   UNL     1      42.671 -14.484   5.270  1.00  0.00    -0.026 A 
HETATM   22  C   UNL     1      43.469 -15.546   4.813  1.00  0.00     0.033 A 
HETATM   23  C   UNL     1      43.341 -16.818   5.374  1.00  0.00     0.034 A 
HETATM   24 CL   UNL     1      44.321 -18.109   4.796  1.00  0.00    -0.084 Cl
HETATM   25  C   UNL     1      42.423 -17.053   6.395  1.00  0.00     0.024 A 
HETATM   26  C   UNL     1      41.628 -16.009   6.862  1.00  0.00     0.002 A 
HETATM   27  C   UNL     1      41.749 -14.733   6.305  1.00  0.00     0.010 A 
ENDBRANCH   2  21
BRANCH   1  28
HETATM   28  C   UNL     1      41.254 -13.279   2.668  1.00  0.00     0.293 C 
HETATM   29  O   UNL     1      41.799 -12.923   1.634  1.00  0.00    -0.259 OA
BRANCH  28  30
HETATM   30  O   UNL     1      40.280 -14.216   2.746  1.00  0.00    -0.318 OA
BRANCH  30  31
HETATM   31  C   UNL     1      40.335 -15.262   1.765  1.00  0.00     0.174 C 
HETATM   32  C   UNL     1      41.167 -16.429   2.266  1.00  0.00     0.034 C 
ENDBRANCH  30  31
ENDBRANCH  28  30
ENDBRANCH   1  28
TORSDOF 7
ENDMDL
MODEL 5
REMARK VINA RESULT:      -7.9      4.438      7.159
REMARK  7 active torsions:
REMARK  status: ('A' for Active; 'I' for Inactive)
REMARK    1  A    between atoms: C_2  and  O_3 
REMARK    2  A    between atoms: O_3  and  C_4 
REMARK    3  A    between atoms: C_4  and  C_5 
REMARK    4  A    between atoms: C_6  and  C_7 
REMARK    5  A    between atoms: C_18  and  S_19 
REMARK    6  A    between atoms: S_19  and  C_20 
REMARK    7  A    between atoms: C_20  and  C_21 
ROOT
HETATM    1  C   UNL     1      40.910 -10.307   0.801  1.00  0.00     0.070 C 
HETATM    2  C   UNL     1      40.872 -11.813   0.524  1.00  0.00     0.203 C 
HETATM    3  N   UNL     1      40.833 -12.574   1.775  1.00  0.00    -0.082 N 
HETATM    4  C   UNL     1      40.520 -12.028   2.988  1.00  0.00     0.726 A 
HETATM    5  N   UNL     1      40.266 -10.707   3.064  1.00  0.00    -0.192 N 
HETATM    6  N   UNL     1      41.174 -13.869   1.890  1.00  0.00    -0.128 NA
HETATM    7  C   UNL     1      40.989 -14.062   3.202  1.00  0.00     0.226 A 
HETATM    8  N   UNL     1      40.574 -12.958   3.908  1.00  0.00    -0.035 NA
HETATM    9  C   UNL     1      40.555  -9.823   2.020  1.00  0.00     0.037 C 
HETATM   10  C   UNL     1      40.425  -8.360   2.368  1.00  0.00     0.070 C 
HETATM   11  H   UNL     1      40.132 -10.300   3.987  1.00  0.00     0.184 HD
ENDROOT
BRANCH   7  12
HETATM   12  S   UNL     1      41.312 -15.613   3.918  1.00  0.00    -0.083 SA
BRANCH  12  13
HETATM   13  C   UNL     1      42.966 -15.947   3.255  1.00  0.00     0.123 C 
BRANCH  13  14
HETATM   14  C   UNL     1      43.294 -17.421   3.328  1.00  0.00    -0.027 A 
HETATM   15  C   UNL     1      43.972 -17.999   4.414  1.00  0.00     0.041 A 
HETATM   16 CL   UNL     1      44.463 -17.073   5.789  1.00  0.00    -0.084 Cl
HETATM   17  C   UNL     1      44.280 -19.364   4.416  1.00  0.00     0.024 A 
HETATM   18  C   UNL     1      43.924 -20.168   3.334  1.00  0.00     0.002 A 
HETATM   19  C   UNL     1      43.259 -19.609   2.247  1.00  0.00     0.001 A 
HETATM   20  C   UNL     1      42.948 -18.249   2.242  1.00  0.00     0.009 A 
ENDBRANCH  13  14
ENDBRANCH  12  13
ENDBRANCH   7  12
BRANCH   2  21
HETATM   21  C   UNL     1      39.687 -12.220  -0.354  1.00  0.00    -0.026 A 
HETATM   22  C   UNL     1      39.812 -13.309  -1.234  1.00  0.00     0.033 A 
HETATM   23  C   UNL     1      38.747 -13.679  -2.057  1.00  0.00     0.034 A 
HETATM   24 CL   UNL     1      38.923 -15.008  -3.135  1.00  0.00    -0.084 Cl
HETATM   25  C   UNL     1      37.545 -12.977  -2.017  1.00  0.00     0.024 A 
HETATM   26  C   UNL     1      37.402 -11.898  -1.147  1.00  0.00     0.002 A 
HETATM   27  C   UNL     1      38.464 -11.521  -0.321  1.00  0.00     0.010 A 
ENDBRANCH   2  21
BRANCH   1  28
HETATM   28  C   UNL     1      41.421  -9.533  -0.361  1.00  0.00     0.293 C 
HETATM   29  O   UNL     1      42.612  -9.359  -0.569  1.00  0.00    -0.259 OA
BRANCH  28  30
HETATM   30  O   UNL     1      40.421  -8.959  -1.070  1.00  0.00    -0.318 OA
BRANCH  30  31
HETATM   31  C   UNL     1      40.664  -8.787  -2.475  1.00  0.00     0.174 C 
HETATM   32  C   UNL     1      40.338 -10.058  -3.237  1.00  0.00     0.034 C 
ENDBRANCH  30  31
ENDBRANCH  28  30
ENDBRANCH   1  28
TORSDOF 7
ENDMDL
MODEL 6
REMARK VINA RESULT:      -7.9      4.449      6.691
REMARK  7 active torsions:
REMARK  status: ('A' for Active; 'I' for Inactive)
REMARK    1  A    between atoms: C_2  and  O_3 
REMARK    2  A    between atoms: O_3  and  C_4 
REMARK    3  A    between atoms: C_4  and  C_5 
REMARK    4  A    between atoms: C_6  and  C_7 
REMARK    5  A    between atoms: C_18  and  S_19 
REMARK    6  A    between atoms: S_19  and  C_20 
REMARK    7  A    between atoms: C_20  and  C_21 
ROOT
HETATM    1  C   UNL     1      42.109 -14.837   5.931  1.00  0.00     0.070 C 
HETATM    2  C   UNL     1      42.735 -13.743   5.062  1.00  0.00     0.203 C 
HETATM    3  N   UNL     1      41.870 -13.421   3.923  1.00  0.00    -0.082 N 
HETATM    4  C   UNL     1      40.555 -13.781   3.841  1.00  0.00     0.726 A 
HETATM    5  N   UNL     1      40.013 -14.507   4.839  1.00  0.00    -0.192 N 
HETATM    6  N   UNL     1      42.286 -12.809   2.801  1.00  0.00    -0.128 NA
HETATM    7  C   UNL     1      41.148 -12.779   2.096  1.00  0.00     0.226 A 
HETATM    8  N   UNL     1      40.059 -13.353   2.708  1.00  0.00    -0.035 NA
HETATM    9  C   UNL     1      40.785 -15.126   5.825  1.00  0.00     0.037 C 
HETATM   10  C   UNL     1      40.033 -16.085   6.717  1.00  0.00     0.070 C 
HETATM   11  H   UNL     1      39.063 -14.849   4.717  1.00  0.00     0.184 HD
ENDROOT
BRANCH   7  12
HETATM   12  S   UNL     1      41.118 -12.086   0.501  1.00  0.00    -0.083 SA
BRANCH  12  13
HETATM   13  C   UNL     1      39.330 -11.973   0.222  1.00  0.00     0.123 C 
BRANCH  13  14
HETATM   14  C   UNL     1      38.908 -12.829  -0.950  1.00  0.00    -0.027 A 
HETATM   15  C   UNL     1      37.860 -12.473  -1.816  1.00  0.00     0.041 A 
HETATM   16 CL   UNL     1      36.979 -10.998  -1.636  1.00  0.00    -0.084 Cl
HETATM   17  C   UNL     1      37.488 -13.319  -2.868  1.00  0.00     0.024 A 
HETATM   18  C   UNL     1      38.148 -14.532  -3.064  1.00  0.00     0.002 A 
HETATM   19  C   UNL     1      39.182 -14.902  -2.210  1.00  0.00     0.001 A 
HETATM   20  C   UNL     1      39.559 -14.060  -1.162  1.00  0.00     0.009 A 
ENDBRANCH  13  14
ENDBRANCH  12  13
ENDBRANCH   7  12
BRANCH   2  21
HETATM   21  C   UNL     1      43.033 -12.465   5.849  1.00  0.00    -0.026 A 
HETATM   22  C   UNL     1      44.340 -12.211   6.298  1.00  0.00     0.033 A 
HETATM   23  C   UNL     1      44.624 -11.062   7.036  1.00  0.00     0.034 A 
HETATM   24 CL   UNL     1      46.228 -10.773   7.586  1.00  0.00    -0.084 Cl
HETATM   25  C   UNL     1      43.617 -10.147   7.337  1.00  0.00     0.024 A 
HETATM   26  C   UNL     1      42.317 -10.381   6.895  1.00  0.00     0.002 A 
HETATM   27  C   UNL     1      42.024 -11.530   6.156  1.00  0.00     0.010 A 
ENDBRANCH   2  21
BRANCH   1  28
HETATM   28  C   UNL     1      43.114 -15.521   6.787  1.00  0.00     0.293 C 
HETATM   29  O   UNL     1      43.141 -15.400   8.002  1.00  0.00    -0.259 OA
BRANCH  28  30
HETATM   30  O   UNL     1      44.043 -16.179   6.055  1.00  0.00    -0.318 OA
BRANCH  30  31
HETATM   31  C   UNL     1      43.719 -17.532   5.697  1.00  0.00     0.174 C 
HETATM   32  C   UNL     1      43.741 -17.710   4.190  1.00  0.00     0.034 C 
ENDBRANCH  30  31
ENDBRANCH  28  30
ENDBRANCH   1  28
TORSDOF 7
ENDMDL
MODEL 7
REMARK VINA RESULT:      -7.8      1.433      1.845
REMARK  7 active torsions:
REMARK  status: ('A' for Active; 'I' for Inactive)
REMARK    1  A    between atoms: C_2  and  O_3 
REMARK    2  A    between atoms: O_3  and  C_4 
REMARK    3  A    between atoms: C_4  and  C_5 
REMARK    4  A    between atoms: C_6  and  C_7 
REMARK    5  A    between atoms: C_18  and  S_19 
REMARK    6  A    between atoms: S_19  and  C_20 
REMARK    7  A    between atoms: C_20  and  C_21 
ROOT
HETATM    1  C   UNL     1      41.237  -9.803   5.758  1.00  0.00     0.070 C 
HETATM    2  C   UNL     1      41.804 -11.165   6.169  1.00  0.00     0.203 C 
HETATM    3  N   UNL     1      41.638 -12.146   5.095  1.00  0.00    -0.082 N 
HETATM    4  C   UNL     1      41.349 -11.817   3.800  1.00  0.00     0.726 A 
HETATM    5  N   UNL     1      41.165 -10.520   3.483  1.00  0.00    -0.192 N 
HETATM    6  N   UNL     1      41.672 -13.479   5.268  1.00  0.00    -0.128 NA
HETATM    7  C   UNL     1      41.450 -13.901   4.017  1.00  0.00     0.226 A 
HETATM    8  N   UNL     1      41.262 -12.908   3.084  1.00  0.00    -0.035 NA
HETATM    9  C   UNL     1      41.002  -9.523   4.449  1.00  0.00     0.037 C 
HETATM   10  C   UNL     1      40.574  -8.179   3.912  1.00  0.00     0.070 C 
HETATM   11  H   UNL     1      40.855 -10.300   2.539  1.00  0.00     0.184 HD
ENDROOT
BRANCH   7  12
HETATM   12  S   UNL     1      41.372 -15.601   3.662  1.00  0.00    -0.083 SA
BRANCH  12  13
HETATM   13  C   UNL     1      43.135 -15.983   3.476  1.00  0.00     0.123 C 
BRANCH  13  14
HETATM   14  C   UNL     1      43.368 -17.476   3.448  1.00  0.00    -0.027 A 
HETATM   15  C   UNL     1      43.869 -18.191   4.548  1.00  0.00     0.041 A 
HETATM   16 CL   UNL     1      44.232 -17.426   6.054  1.00  0.00    -0.084 Cl
HETATM   17  C   UNL     1      44.097 -19.569   4.457  1.00  0.00     0.024 A 
HETATM   18  C   UNL     1      43.838 -20.249   3.267  1.00  0.00     0.002 A 
HETATM   19  C   UNL     1      43.349 -19.553   2.166  1.00  0.00     0.001 A 
HETATM   20  C   UNL     1      43.118 -18.180   2.253  1.00  0.00     0.009 A 
ENDBRANCH  13  14
ENDBRANCH  12  13
ENDBRANCH   7  12
BRANCH   2  21
HETATM   21  C   UNL     1      43.280 -11.092   6.567  1.00  0.00    -0.026 A 
HETATM   22  C   UNL     1      43.632 -10.718   7.875  1.00  0.00     0.033 A 
HETATM   23  C   UNL     1      44.973 -10.626   8.247  1.00  0.00     0.034 A 
HETATM   24 CL   UNL     1      45.386 -10.158   9.850  1.00  0.00    -0.084 Cl
HETATM   25  C   UNL     1      45.983 -10.905   7.329  1.00  0.00     0.024 A 
HETATM   26  C   UNL     1      45.651 -11.281   6.029  1.00  0.00     0.002 A 
HETATM   27  C   UNL     1      44.310 -11.375   5.649  1.00  0.00     0.010 A 
ENDBRANCH   2  21
BRANCH   1  28
HETATM   28  C   UNL     1      40.946  -8.935   6.930  1.00  0.00     0.293 C 
HETATM   29  O   UNL     1      40.035  -9.162   7.712  1.00  0.00    -0.259 OA
BRANCH  28  30
HETATM   30  O   UNL     1      41.723  -7.827   6.948  1.00  0.00    -0.318 OA
BRANCH  30  31
HETATM   31  C   UNL     1      41.793  -7.129   8.201  1.00  0.00     0.174 C 
HETATM   32  C   UNL     1      43.215  -7.114   8.731  1.00  0.00     0.034 C 
ENDBRANCH  30  31
ENDBRANCH  28  30
ENDBRANCH   1  28
TORSDOF 7
ENDMDL
MODEL 8
REMARK VINA RESULT:      -7.7      3.331      8.123
REMARK  7 active torsions:
REMARK  status: ('A' for Active; 'I' for Inactive)
REMARK    1  A    between atoms: C_2  and  O_3 
REMARK    2  A    between atoms: O_3  and  C_4 
REMARK    3  A    between atoms: C_4  and  C_5 
REMARK    4  A    between atoms: C_6  and  C_7 
REMARK    5  A    between atoms: C_18  and  S_19 
REMARK    6  A    between atoms: S_19  and  C_20 
REMARK    7  A    between atoms: C_20  and  C_21 
ROOT
HETATM    1  C   UNL     1      41.526 -10.717   2.843  1.00  0.00     0.070 C 
HETATM    2  C   UNL     1      42.646 -11.605   3.392  1.00  0.00     0.203 C 
HETATM    3  N   UNL     1      43.040 -11.178   4.737  1.00  0.00    -0.082 N 
HETATM    4  C   UNL     1      42.291 -10.348   5.522  1.00  0.00     0.726 A 
HETATM    5  N   UNL     1      41.137  -9.854   5.034  1.00  0.00    -0.192 N 
HETATM    6  N   UNL     1      44.211 -11.485   5.320  1.00  0.00    -0.128 NA
HETATM    7  C   UNL     1      44.082 -10.850   6.492  1.00  0.00     0.226 A 
HETATM    8  N   UNL     1      42.909 -10.152   6.659  1.00  0.00    -0.035 NA
HETATM    9  C   UNL     1      40.793  -9.937   3.681  1.00  0.00     0.037 C 
HETATM   10  C   UNL     1      39.585  -9.127   3.278  1.00  0.00     0.070 C 
HETATM   11  H   UNL     1      40.641  -9.162   5.591  1.00  0.00     0.184 HD
ENDROOT
BRANCH   7  12
HETATM   12  S   UNL     1      45.361 -10.902   7.668  1.00  0.00    -0.083 SA
BRANCH  12  13
HETATM   13  C   UNL     1      45.212  -9.248   8.395  1.00  0.00     0.123 C 
BRANCH  13  14
HETATM   14  C   UNL     1      44.383  -9.281   9.659  1.00  0.00    -0.027 A 
HETATM   15  C   UNL     1      43.635  -8.181  10.110  1.00  0.00     0.041 A 
HETATM   16 CL   UNL     1      43.569  -6.693   9.234  1.00  0.00    -0.084 Cl
HETATM   17  C   UNL     1      42.910  -8.256  11.305  1.00  0.00     0.024 A 
HETATM   18  C   UNL     1      42.929  -9.423  12.069  1.00  0.00     0.002 A 
HETATM   19  C   UNL     1      43.671 -10.518  11.639  1.00  0.00     0.001 A 
HETATM   20  C   UNL     1      44.393 -10.449  10.447  1.00  0.00     0.009 A 
ENDBRANCH  13  14
ENDBRANCH  12  13
ENDBRANCH   7  12
BRANCH   2  21
HETATM   21  C   UNL     1      42.261 -13.085   3.422  1.00  0.00    -0.026 A 
HETATM   22  C   UNL     1      42.965 -14.005   2.625  1.00  0.00     0.033 A 
HETATM   23  C   UNL     1      42.612 -15.355   2.625  1.00  0.00     0.034 A 
HETATM   24 CL   UNL     1      43.478 -16.465   1.636  1.00  0.00    -0.084 Cl
HETATM   25  C   UNL     1      41.560 -15.812   3.416  1.00  0.00     0.024 A 
HETATM   26  C   UNL     1      40.856 -14.915   4.216  1.00  0.00     0.002 A 
HETATM   27  C   UNL     1      41.202 -13.561   4.220  1.00  0.00     0.010 A 
ENDBRANCH   2  21
BRANCH   1  28
HETATM   28  C   UNL     1      41.424 -10.788   1.361  1.00  0.00     0.293 C 
HETATM   29  O   UNL     1      42.105 -10.098   0.617  1.00  0.00    -0.259 OA
BRANCH  28  30
HETATM   30  O   UNL     1      40.423 -11.604   0.958  1.00  0.00    -0.318 OA
BRANCH  30  31
HETATM   31  C   UNL     1      40.763 -12.562  -0.057  1.00  0.00     0.174 C 
HETATM   32  C   UNL     1      40.134 -13.911   0.243  1.00  0.00     0.034 C 
ENDBRANCH  30  31
ENDBRANCH  28  30
ENDBRANCH   1  28
TORSDOF 7
ENDMDL
MODEL 9
REMARK VINA RESULT:      -7.7      5.060      7.671
REMARK  7 active torsions:
REMARK  status: ('A' for Active; 'I' for Inactive)
REMARK    1  A    between atoms: C_2  and  O_3 
REMARK    2  A    between atoms: O_3  and  C_4 
REMARK    3  A    between atoms: C_4  and  C_5 
REMARK    4  A    between atoms: C_6  and  C_7 
REMARK    5  A    between atoms: C_18  and  S_19 
REMARK    6  A    between atoms: S_19  and  C_20 
REMARK    7  A    between atoms: C_20  and  C_21 
ROOT
HETATM    1  C   UNL     1      38.308 -10.228   0.092  1.00  0.00     0.070 C 
HETATM    2  C   UNL     1      39.674 -10.905   0.239  1.00  0.00     0.203 C 
HETATM    3  N   UNL     1      39.753 -11.658   1.493  1.00  0.00    -0.082 N 
HETATM    4  C   UNL     1      38.665 -11.999   2.246  1.00  0.00     0.726 A 
HETATM    5  N   UNL     1      37.442 -11.596   1.846  1.00  0.00    -0.192 N 
HETATM    6  N   UNL     1      40.900 -12.029   2.088  1.00  0.00    -0.128 NA
HETATM    7  C   UNL     1      40.428 -12.647   3.178  1.00  0.00     0.226 A 
HETATM    8  N   UNL     1      39.059 -12.661   3.303  1.00  0.00    -0.035 NA
HETATM    9  C   UNL     1      37.254 -10.636   0.848  1.00  0.00     0.037 C 
HETATM   10  C   UNL     1      35.837 -10.139   0.698  1.00  0.00     0.070 C 
HETATM   11  H   UNL     1      36.656 -11.773   2.467  1.00  0.00     0.184 HD
ENDROOT
BRANCH   7  12
HETATM   12  S   UNL     1      41.522 -13.328   4.346  1.00  0.00    -0.083 SA
BRANCH  12  13
HETATM   13  C   UNL     1      40.809 -14.983   4.543  1.00  0.00     0.123 C 
BRANCH  13  14
HETATM   14  C   UNL     1      41.712 -16.038   3.946  1.00  0.00    -0.027 A 
HETATM   15  C   UNL     1      41.550 -16.530   2.640  1.00  0.00     0.041 A 
HETATM   16 CL   UNL     1      40.317 -15.941   1.582  1.00  0.00    -0.084 Cl
HETATM   17  C   UNL     1      42.394 -17.532   2.147  1.00  0.00     0.024 A 
HETATM   18  C   UNL     1      43.403 -18.062   2.951  1.00  0.00     0.002 A 
HETATM   19  C   UNL     1      43.571 -17.591   4.250  1.00  0.00     0.001 A 
HETATM   20  C   UNL     1      42.733 -16.590   4.744  1.00  0.00     0.009 A 
ENDBRANCH  13  14
ENDBRANCH  12  13
ENDBRANCH   7  12
BRANCH   2  21
HETATM   21  C   UNL     1      39.998 -11.836  -0.932  1.00  0.00    -0.026 A 
HETATM   22  C   UNL     1      39.330 -13.067  -1.049  1.00  0.00     0.033 A 
HETATM   23  C   UNL     1      39.629 -13.936  -2.099  1.00  0.00     0.034 A 
HETATM   24 CL   UNL     1      38.808 -15.443  -2.221  1.00  0.00    -0.084 Cl
HETATM   25  C   UNL     1      40.591 -13.597  -3.047  1.00  0.00     0.024 A 
HETATM   26  C   UNL     1      41.259 -12.378  -2.948  1.00  0.00     0.002 A 
HETATM   27  C   UNL     1      40.966 -11.502  -1.900  1.00  0.00     0.010 A 
ENDBRANCH   2  21
BRANCH   1  28
HETATM   28  C   UNL     1      38.337  -9.103  -0.879  1.00  0.00     0.293 C 
HETATM   29  O   UNL     1      39.099  -8.154  -0.770  1.00  0.00    -0.259 OA
BRANCH  28  30
HETATM   30  O   UNL     1      37.355  -9.204  -1.805  1.00  0.00    -0.318 OA
BRANCH  30  31
HETATM   31  C   UNL     1      37.627 -10.073  -2.916  1.00  0.00     0.174 C 
HETATM   32  C   UNL     1      36.685 -11.263  -2.912  1.00  0.00     0.034 C 
ENDBRANCH  30  31
ENDBRANCH  28  30
ENDBRANCH   1  28
TORSDOF 7
ENDMDL
MODEL 10
REMARK VINA RESULT:      -7.5      4.529      7.301
REMARK  7 active torsions:
REMARK  status: ('A' for Active; 'I' for Inactive)
REMARK    1  A    between atoms: C_2  and  O_3 
REMARK    2  A    between atoms: O_3  and  C_4 
REMARK    3  A    between atoms: C_4  and  C_5 
REMARK    4  A    between atoms: C_6  and  C_7 
REMARK    5  A    between atoms: C_18  and  S_19 
REMARK    6  A    between atoms: S_19  and  C_20 
REMARK    7  A    between atoms: C_20  and  C_21 
ROOT
HETATM    1  C   UNL     1      41.263  -9.319   0.351  1.00  0.00     0.070 C 
HETATM    2  C   UNL     1      41.246 -10.830   0.596  1.00  0.00     0.203 C 
HETATM    3  N   UNL     1      41.165 -11.128   2.028  1.00  0.00    -0.082 N 
HETATM    4  C   UNL     1      40.803 -10.212   2.976  1.00  0.00     0.726 A 
HETATM    5  N   UNL     1      40.537  -8.948   2.594  1.00  0.00    -0.192 N 
HETATM    6  N   UNL     1      41.512 -12.302   2.583  1.00  0.00    -0.128 NA
HETATM    7  C   UNL     1      41.279 -12.046   3.876  1.00  0.00     0.226 A 
HETATM    8  N   UNL     1      40.829 -10.778   4.156  1.00  0.00    -0.035 NA
HETATM    9  C   UNL     1      40.858  -8.460   1.324  1.00  0.00     0.037 C 
HETATM   10  C   UNL     1      40.703  -6.968   1.155  1.00  0.00     0.070 C 
HETATM   11  H   UNL     1      40.364  -8.257   3.321  1.00  0.00     0.184 HD
ENDROOT
BRANCH   7  12
HETATM   12  S   UNL     1      41.586 -13.260   5.083  1.00  0.00    -0.083 SA
BRANCH  12  13
HETATM   13  C   UNL     1      40.659 -14.657   4.392  1.00  0.00     0.123 C 
BRANCH  13  14
HETATM   14  C   UNL     1      41.592 -15.734   3.889  1.00  0.00    -0.027 A 
HETATM   15  C   UNL     1      41.471 -16.316   2.616  1.00  0.00     0.041 A 
HETATM   16 CL   UNL     1      40.255 -15.823   1.492  1.00  0.00    -0.084 Cl
HETATM   17  C   UNL     1      42.343 -17.334   2.213  1.00  0.00     0.024 A 
HETATM   18  C   UNL     1      43.340 -17.790   3.075  1.00  0.00     0.002 A 
HETATM   19  C   UNL     1      43.468 -17.229   4.342  1.00  0.00     0.001 A 
HETATM   20  C   UNL     1      42.603 -16.212   4.747  1.00  0.00     0.009 A 
ENDBRANCH  13  14
ENDBRANCH  12  13
ENDBRANCH   7  12
BRANCH   2  21
HETATM   21  C   UNL     1      40.098 -11.532  -0.133  1.00  0.00    -0.026 A 
HETATM   22  C   UNL     1      40.373 -12.607  -0.996  1.00  0.00     0.033 A 
HETATM   23  C   UNL     1      39.340 -13.243  -1.685  1.00  0.00     0.034 A 
HETATM   24 CL   UNL     1      39.697 -14.551  -2.744  1.00  0.00    -0.084 Cl
HETATM   25  C   UNL     1      38.021 -12.825  -1.526  1.00  0.00     0.024 A 
HETATM   26  C   UNL     1      37.730 -11.764  -0.671  1.00  0.00     0.002 A 
HETATM   27  C   UNL     1      38.759 -11.121   0.021  1.00  0.00     0.010 A 
ENDBRANCH   2  21
BRANCH   1  28
HETATM   28  C   UNL     1      41.811  -8.969  -0.986  1.00  0.00     0.293 C 
HETATM   29  O   UNL     1      43.006  -8.828  -1.195  1.00  0.00    -0.259 OA
BRANCH  28  30
HETATM   30  O   UNL     1      40.833  -8.716  -1.887  1.00  0.00    -0.318 OA
BRANCH  30  31
HETATM   31  C   UNL     1      40.878  -9.490  -3.097  1.00  0.00     0.174 C 
HETATM   32  C   UNL     1      39.484  -9.924  -3.510  1.00  0.00     0.034 C 
ENDBRANCH  30  31
ENDBRANCH  28  30
ENDBRANCH   1  28
TORSDOF 7
ENDMDL
