MODEL 1
REMARK VINA RESULT:      -7.8      0.000      0.000
REMARK  9 active torsions:
REMARK  status: ('A' for Active; 'I' for Inactive)
REMARK    1  A    between atoms: C_2  and  C_3 
REMARK    2  A    between atoms: C_3  and  N_4 
REMARK    3  A    between atoms: C_7  and  C_8 
REMARK       I    between atoms: C_8  and  N_9 
REMARK    4  A    between atoms: N_9  and  C_10 
REMARK    5  A    between atoms: C_10  and  C_11 
REMARK    6  A    between atoms: C_13  and  O_14 
REMARK    7  A    between atoms: O_14  and  C_15 
REMARK    8  A    between atoms: C_15  and  C_16 
REMARK       I    between atoms: C_16  and  N_17 
REMARK    9  A    between atoms: C_23  and  C_24 
ROOT
HETATM    1  C   UNL     1      42.369 -14.107   5.702  1.00  0.00     0.255 C 
HETATM    2  N   UNL     1      43.508 -13.332   5.771  1.00  0.00    -0.353 N 
HETATM    3  O   UNL     1      41.240 -13.658   5.878  1.00  0.00    -0.268 OA
HETATM    4  H   UNL     1      44.368 -13.714   5.402  1.00  0.00     0.163 HD
ENDROOT
BRANCH   2   5
HETATM    5  C   UNL     1      43.350 -11.898   5.854  1.00  0.00     0.161 C 
BRANCH   5   6
HETATM    6  C   UNL     1      44.116 -11.207   6.954  1.00  0.00    -0.038 A 
HETATM    7  C   UNL     1      43.506 -10.478   7.985  1.00  0.00     0.045 A 
HETATM    8  C   UNL     1      44.272  -9.763   8.917  1.00  0.00     0.070 A 
HETATM    9  C   UNL     1      45.663  -9.769   8.813  1.00  0.00     0.037 A 
HETATM   10  C   UNL     1      46.284 -10.484   7.789  1.00  0.00     0.003 A 
HETATM   11  C   UNL     1      45.517 -11.194   6.869  1.00  0.00     0.009 A 
BRANCH   8  12
HETATM   12  O   UNL     1      43.549  -9.097   9.872  1.00  0.00    -0.342 OA
BRANCH  12  13
HETATM   13  C   UNL     1      43.951  -9.298  11.227  1.00  0.00     0.278 C 
BRANCH  13  14
HETATM   14  C   UNL     1      43.051 -10.312  11.928  1.00  0.00     0.239 C 
HETATM   15  N   UNL     1      43.618 -11.525  12.196  1.00  0.00    -0.368 N 
HETATM   16  H   UNL     1      44.495 -11.780  11.757  1.00  0.00     0.159 HD
HETATM   17  H   UNL     1      43.037 -12.243  12.607  1.00  0.00     0.159 HD
HETATM   18  O   UNL     1      41.906 -10.058  12.288  1.00  0.00    -0.271 OA
ENDBRANCH  13  14
ENDBRANCH  12  13
ENDBRANCH   8  12
ENDBRANCH   5   6
ENDBRANCH   2   5
BRANCH   1  19
HETATM   19  C   UNL     1      42.574 -15.482   5.308  1.00  0.00     0.075 A 
HETATM   20  C   UNL     1      42.533 -16.582   6.192  1.00  0.00     0.158 A 
HETATM   21  N   UNL     1      42.906 -17.723   5.621  1.00  0.00    -0.183 NA
HETATM   22  N   UNL     1      43.248 -17.360   4.367  1.00  0.00    -0.268 N 
HETATM   23  C   UNL     1      43.012 -16.022   4.108  1.00  0.00     0.052 A 
BRANCH  22  24
HETATM   24  C   UNL     1      43.949 -18.317   3.508  1.00  0.00     0.106 C 
HETATM   25  C   UNL     1      44.451 -19.492   4.356  1.00  0.00     0.034 C 
BRANCH  24  26
HETATM   26  C   UNL     1      43.121 -18.854   2.321  1.00  0.00     0.022 C 
HETATM   27  C   UNL     1      43.453 -20.295   1.959  1.00  0.00     0.007 C 
ENDBRANCH  24  26
ENDBRANCH  22  24
BRANCH  23  28
HETATM   28  C   UNL     1      43.301 -15.336   2.771  1.00  0.00     0.038 A 
HETATM   29  C   UNL     1      42.298 -15.434   1.646  1.00  0.00     0.011 A 
HETATM   30  C   UNL     1      42.503 -14.129   2.336  1.00  0.00     0.011 A 
ENDBRANCH  23  28
ENDBRANCH   1  19
TORSDOF 9
ENDMDL
MODEL 2
REMARK VINA RESULT:      -7.6      0.834      2.234
REMARK  9 active torsions:
REMARK  status: ('A' for Active; 'I' for Inactive)
REMARK    1  A    between atoms: C_2  and  C_3 
REMARK    2  A    between atoms: C_3  and  N_4 
REMARK    3  A    between atoms: C_7  and  C_8 
REMARK       I    between atoms: C_8  and  N_9 
REMARK    4  A    between atoms: N_9  and  C_10 
REMARK    5  A    between atoms: C_10  and  C_11 
REMARK    6  A    between atoms: C_13  and  O_14 
REMARK    7  A    between atoms: O_14  and  C_15 
REMARK    8  A    between atoms: C_15  and  C_16 
REMARK       I    between atoms: C_16  and  N_17 
REMARK    9  A    between atoms: C_23  and  C_24 
ROOT
HETATM    1  C   UNL     1      42.349 -13.590   5.161  1.00  0.00     0.255 C 
HETATM    2  N   UNL     1      43.305 -12.814   5.786  1.00  0.00    -0.353 N 
HETATM    3  O   UNL     1      41.166 -13.269   5.093  1.00  0.00    -0.268 OA
HETATM    4  H   UNL     1      44.278 -13.027   5.613  1.00  0.00     0.163 HD
ENDROOT
BRANCH   2   5
HETATM    5  C   UNL     1      42.935 -11.479   6.197  1.00  0.00     0.161 C 
BRANCH   5   6
HETATM    6  C   UNL     1      43.828 -10.828   7.223  1.00  0.00    -0.038 A 
HETATM    7  C   UNL     1      43.348 -10.062   8.296  1.00  0.00     0.045 A 
HETATM    8  C   UNL     1      44.229  -9.388   9.154  1.00  0.00     0.070 A 
HETATM    9  C   UNL     1      45.604  -9.472   8.933  1.00  0.00     0.037 A 
HETATM   10  C   UNL     1      46.095 -10.225   7.868  1.00  0.00     0.003 A 
HETATM   11  C   UNL     1      45.215 -10.894   7.021  1.00  0.00     0.009 A 
BRANCH   8  12
HETATM   12  O   UNL     1      43.627  -8.680  10.162  1.00  0.00    -0.342 OA
BRANCH  12  13
HETATM   13  C   UNL     1      43.892  -9.120  11.493  1.00  0.00     0.278 C 
BRANCH  13  14
HETATM   14  C   UNL     1      42.940 -10.240  11.907  1.00  0.00     0.239 C 
HETATM   15  N   UNL     1      43.524 -11.436  12.206  1.00  0.00    -0.368 N 
HETATM   16  H   UNL     1      44.491 -11.603  11.953  1.00  0.00     0.159 HD
HETATM   17  H   UNL     1      42.923 -12.218  12.428  1.00  0.00     0.159 HD
HETATM   18  O   UNL     1      41.728 -10.081  12.024  1.00  0.00    -0.271 OA
ENDBRANCH  13  14
ENDBRANCH  12  13
ENDBRANCH   8  12
ENDBRANCH   5   6
ENDBRANCH   2   5
BRANCH   1  19
HETATM   19  C   UNL     1      42.844 -14.772   4.497  1.00  0.00     0.075 A 
HETATM   20  C   UNL     1      43.144 -14.850   3.120  1.00  0.00     0.158 A 
HETATM   21  N   UNL     1      43.433 -16.084   2.718  1.00  0.00    -0.183 NA
HETATM   22  N   UNL     1      43.267 -16.832   3.828  1.00  0.00    -0.268 N 
HETATM   23  C   UNL     1      42.965 -16.079   4.948  1.00  0.00     0.052 A 
BRANCH  22  24
HETATM   24  C   UNL     1      43.256 -18.293   3.716  1.00  0.00     0.106 C 
HETATM   25  C   UNL     1      43.078 -18.691   2.246  1.00  0.00     0.034 C 
BRANCH  24  26
HETATM   26  C   UNL     1      44.502 -18.999   4.294  1.00  0.00     0.022 C 
HETATM   27  C   UNL     1      44.186 -20.339   4.942  1.00  0.00     0.007 C 
ENDBRANCH  24  26
ENDBRANCH  22  24
BRANCH  23  28
HETATM   28  C   UNL     1      42.727 -16.660   6.344  1.00  0.00     0.038 A 
HETATM   29  C   UNL     1      43.883 -16.797   7.306  1.00  0.00     0.011 A 
HETATM   30  C   UNL     1      42.823 -15.783   7.570  1.00  0.00     0.011 A 
ENDBRANCH  23  28
ENDBRANCH   1  19
TORSDOF 9
ENDMDL
MODEL 3
REMARK VINA RESULT:      -7.4      2.030      3.436
REMARK  9 active torsions:
REMARK  status: ('A' for Active; 'I' for Inactive)
REMARK    1  A    between atoms: C_2  and  C_3 
REMARK    2  A    between atoms: C_3  and  N_4 
REMARK    3  A    between atoms: C_7  and  C_8 
REMARK       I    between atoms: C_8  and  N_9 
REMARK    4  A    between atoms: N_9  and  C_10 
REMARK    5  A    between atoms: C_10  and  C_11 
REMARK    6  A    between atoms: C_13  and  O_14 
REMARK    7  A    between atoms: O_14  and  C_15 
REMARK    8  A    between atoms: C_15  and  C_16 
REMARK       I    between atoms: C_16  and  N_17 
REMARK    9  A    between atoms: C_23  and  C_24 
ROOT
HETATM    1  C   UNL     1      42.538 -13.918   3.212  1.00  0.00     0.255 C 
HETATM    2  N   UNL     1      43.503 -12.935   3.126  1.00  0.00    -0.353 N 
HETATM    3  O   UNL     1      41.352 -13.677   3.419  1.00  0.00    -0.268 OA
HETATM    4  H   UNL     1      44.403 -13.183   2.740  1.00  0.00     0.163 HD
ENDROOT
BRANCH   2   5
HETATM    5  C   UNL     1      43.068 -11.557   3.077  1.00  0.00     0.161 C 
BRANCH   5   6
HETATM    6  C   UNL     1      42.926 -10.857   4.404  1.00  0.00    -0.038 A 
HETATM    7  C   UNL     1      43.618 -11.240   5.562  1.00  0.00     0.045 A 
HETATM    8  C   UNL     1      43.363 -10.623   6.796  1.00  0.00     0.070 A 
HETATM    9  C   UNL     1      42.399  -9.619   6.875  1.00  0.00     0.037 A 
HETATM   10  C   UNL     1      41.697  -9.231   5.734  1.00  0.00     0.003 A 
HETATM   11  C   UNL     1      41.958  -9.846   4.512  1.00  0.00     0.009 A 
BRANCH   8  12
HETATM   12  O   UNL     1      44.112 -11.092   7.844  1.00  0.00    -0.342 OA
BRANCH  12  13
HETATM   13  C   UNL     1      45.464 -10.642   7.909  1.00  0.00     0.278 C 
BRANCH  13  14
HETATM   14  C   UNL     1      45.580  -9.347   8.710  1.00  0.00     0.239 C 
HETATM   15  N   UNL     1      45.459  -9.473  10.063  1.00  0.00    -0.368 N 
HETATM   16  H   UNL     1      45.103 -10.335  10.460  1.00  0.00     0.159 HD
HETATM   17  H   UNL     1      45.472  -8.633  10.624  1.00  0.00     0.159 HD
HETATM   18  O   UNL     1      45.820  -8.259   8.196  1.00  0.00    -0.271 OA
ENDBRANCH  13  14
ENDBRANCH  12  13
ENDBRANCH   8  12
ENDBRANCH   5   6
ENDBRANCH   2   5
BRANCH   1  19
HETATM   19  C   UNL     1      42.993 -15.262   2.944  1.00  0.00     0.075 A 
HETATM   20  C   UNL     1      43.184 -15.799   1.652  1.00  0.00     0.158 A 
HETATM   21  N   UNL     1      43.456 -17.100   1.664  1.00  0.00    -0.183 NA
HETATM   22  N   UNL     1      43.389 -17.433   2.970  1.00  0.00    -0.268 N 
HETATM   23  C   UNL     1      43.167 -16.344   3.794  1.00  0.00     0.052 A 
BRANCH  22  24
HETATM   24  C   UNL     1      43.388 -18.847   3.353  1.00  0.00     0.106 C 
HETATM   25  C   UNL     1      43.365 -19.718   2.091  1.00  0.00     0.034 C 
BRANCH  24  26
HETATM   26  C   UNL     1      44.564 -19.276   4.256  1.00  0.00     0.022 C 
HETATM   27  C   UNL     1      44.149 -20.226   5.371  1.00  0.00     0.007 C 
ENDBRANCH  24  26
ENDBRANCH  22  24
BRANCH  23  28
HETATM   28  C   UNL     1      43.049 -16.422   5.318  1.00  0.00     0.038 A 
HETATM   29  C   UNL     1      44.294 -16.365   6.170  1.00  0.00     0.011 A 
HETATM   30  C   UNL     1      43.345 -15.216   6.177  1.00  0.00     0.011 A 
ENDBRANCH  23  28
ENDBRANCH   1  19
TORSDOF 9
ENDMDL
MODEL 4
REMARK VINA RESULT:      -7.2      1.935      2.640
REMARK  9 active torsions:
REMARK  status: ('A' for Active; 'I' for Inactive)
REMARK    1  A    between atoms: C_2  and  C_3 
REMARK    2  A    between atoms: C_3  and  N_4 
REMARK    3  A    between atoms: C_7  and  C_8 
REMARK       I    between atoms: C_8  and  N_9 
REMARK    4  A    between atoms: N_9  and  C_10 
REMARK    5  A    between atoms: C_10  and  C_11 
REMARK    6  A    between atoms: C_13  and  O_14 
REMARK    7  A    between atoms: O_14  and  C_15 
REMARK    8  A    between atoms: C_15  and  C_16 
REMARK       I    between atoms: C_16  and  N_17 
REMARK    9  A    between atoms: C_23  and  C_24 
ROOT
HETATM    1  C   UNL     1      41.964 -12.152   6.347  1.00  0.00     0.255 C 
HETATM    2  N   UNL     1      43.096 -11.696   6.991  1.00  0.00    -0.353 N 
HETATM    3  O   UNL     1      40.975 -11.451   6.150  1.00  0.00    -0.268 OA
HETATM    4  H   UNL     1      43.939 -12.248   6.922  1.00  0.00     0.163 HD
ENDROOT
BRANCH   2   5
HETATM    5  C   UNL     1      43.197 -10.280   7.265  1.00  0.00     0.161 C 
BRANCH   5   6
HETATM    6  C   UNL     1      43.266  -9.888   8.719  1.00  0.00    -0.038 A 
HETATM    7  C   UNL     1      42.149  -9.503   9.474  1.00  0.00     0.045 A 
HETATM    8  C   UNL     1      42.288  -9.041  10.791  1.00  0.00     0.070 A 
HETATM    9  C   UNL     1      43.560  -8.953  11.357  1.00  0.00     0.037 A 
HETATM   10  C   UNL     1      44.682  -9.325  10.618  1.00  0.00     0.003 A 
HETATM   11  C   UNL     1      44.535  -9.786   9.311  1.00  0.00     0.009 A 
BRANCH   8  12
HETATM   12  O   UNL     1      41.115  -8.702  11.413  1.00  0.00    -0.342 OA
BRANCH  12  13
HETATM   13  C   UNL     1      40.075  -9.679  11.382  1.00  0.00     0.278 C 
BRANCH  13  14
HETATM   14  C   UNL     1      39.821 -10.264  12.769  1.00  0.00     0.239 C 
HETATM   15  N   UNL     1      38.937 -11.301  12.824  1.00  0.00    -0.368 N 
HETATM   16  H   UNL     1      38.345 -11.503  12.025  1.00  0.00     0.159 HD
HETATM   17  H   UNL     1      38.698 -11.678  13.730  1.00  0.00     0.159 HD
HETATM   18  O   UNL     1      40.405  -9.878  13.777  1.00  0.00    -0.271 OA
ENDBRANCH  13  14
ENDBRANCH  12  13
ENDBRANCH   8  12
ENDBRANCH   5   6
ENDBRANCH   2   5
BRANCH   1  19
HETATM   19  C   UNL     1      42.046 -13.495   5.821  1.00  0.00     0.075 A 
HETATM   20  C   UNL     1      41.722 -14.660   6.548  1.00  0.00     0.158 A 
HETATM   21  N   UNL     1      42.028 -15.781   5.901  1.00  0.00    -0.183 NA
HETATM   22  N   UNL     1      42.606 -15.348   4.762  1.00  0.00    -0.268 N 
HETATM   23  C   UNL     1      42.592 -13.970   4.637  1.00  0.00     0.052 A 
BRANCH  22  24
HETATM   24  C   UNL     1      43.303 -16.306   3.899  1.00  0.00     0.106 C 
HETATM   25  C   UNL     1      43.990 -17.368   4.767  1.00  0.00     0.034 C 
BRANCH  24  26
HETATM   26  C   UNL     1      42.412 -16.999   2.846  1.00  0.00     0.022 C 
HETATM   27  C   UNL     1      43.015 -18.285   2.301  1.00  0.00     0.007 C 
ENDBRANCH  24  26
ENDBRANCH  22  24
BRANCH  23  28
HETATM   28  C   UNL     1      43.175 -13.203   3.449  1.00  0.00     0.038 A 
HETATM   29  C   UNL     1      42.389 -13.103   2.162  1.00  0.00     0.011 A 
HETATM   30  C   UNL     1      42.572 -11.889   3.009  1.00  0.00     0.011 A 
ENDBRANCH  23  28
ENDBRANCH   1  19
TORSDOF 9
ENDMDL
MODEL 5
REMARK VINA RESULT:      -7.2      2.774      8.960
REMARK  9 active torsions:
REMARK  status: ('A' for Active; 'I' for Inactive)
REMARK    1  A    between atoms: C_2  and  C_3 
REMARK    2  A    between atoms: C_3  and  N_4 
REMARK    3  A    between atoms: C_7  and  C_8 
REMARK       I    between atoms: C_8  and  N_9 
REMARK    4  A    between atoms: N_9  and  C_10 
REMARK    5  A    between atoms: C_10  and  C_11 
REMARK    6  A    between atoms: C_13  and  O_14 
REMARK    7  A    between atoms: O_14  and  C_15 
REMARK    8  A    between atoms: C_15  and  C_16 
REMARK       I    between atoms: C_16  and  N_17 
REMARK    9  A    between atoms: C_23  and  C_24 
ROOT
HETATM    1  C   UNL     1      43.165 -12.117   5.219  1.00  0.00     0.255 C 
HETATM    2  N   UNL     1      42.419 -13.269   5.373  1.00  0.00    -0.353 N 
HETATM    3  O   UNL     1      43.385 -11.602   4.126  1.00  0.00    -0.268 OA
HETATM    4  H   UNL     1      42.097 -13.507   6.301  1.00  0.00     0.163 HD
ENDROOT
BRANCH   2   5
HETATM    5  C   UNL     1      41.702 -13.773   4.224  1.00  0.00     0.161 C 
BRANCH   5   6
HETATM    6  C   UNL     1      42.268 -15.012   3.579  1.00  0.00    -0.038 A 
HETATM    7  C   UNL     1      42.558 -16.191   4.281  1.00  0.00     0.045 A 
HETATM    8  C   UNL     1      43.188 -17.274   3.651  1.00  0.00     0.070 A 
HETATM    9  C   UNL     1      43.542 -17.174   2.305  1.00  0.00     0.037 A 
HETATM   10  C   UNL     1      43.267 -16.007   1.594  1.00  0.00     0.003 A 
HETATM   11  C   UNL     1      42.638 -14.936   2.226  1.00  0.00     0.009 A 
BRANCH   8  12
HETATM   12  O   UNL     1      43.409 -18.363   4.453  1.00  0.00    -0.342 OA
BRANCH  12  13
HETATM   13  C   UNL     1      44.490 -19.216   4.080  1.00  0.00     0.278 C 
BRANCH  13  14
HETATM   14  C   UNL     1      44.059 -20.680   4.053  1.00  0.00     0.239 C 
HETATM   15  N   UNL     1      43.800 -21.246   5.268  1.00  0.00    -0.368 N 
HETATM   16  H   UNL     1      44.091 -20.774   6.116  1.00  0.00     0.159 HD
HETATM   17  H   UNL     1      43.568 -22.229   5.297  1.00  0.00     0.159 HD
HETATM   18  O   UNL     1      43.895 -21.313   3.014  1.00  0.00    -0.271 OA
ENDBRANCH  13  14
ENDBRANCH  12  13
ENDBRANCH   8  12
ENDBRANCH   5   6
ENDBRANCH   2   5
BRANCH   1  19
HETATM   19  C   UNL     1      43.597 -11.487   6.444  1.00  0.00     0.075 A 
HETATM   20  C   UNL     1      44.764 -11.839   7.156  1.00  0.00     0.158 A 
HETATM   21  N   UNL     1      44.863 -11.224   8.331  1.00  0.00    -0.183 NA
HETATM   22  N   UNL     1      43.726 -10.504   8.415  1.00  0.00    -0.268 N 
HETATM   23  C   UNL     1      42.949 -10.583   7.273  1.00  0.00     0.052 A 
BRANCH  22  24
HETATM   24  C   UNL     1      43.362  -9.882   9.691  1.00  0.00     0.106 C 
HETATM   25  C   UNL     1      43.713 -10.833  10.841  1.00  0.00     0.034 C 
BRANCH  24  26
HETATM   26  C   UNL     1      44.005  -8.501   9.948  1.00  0.00     0.022 C 
HETATM   27  C   UNL     1      44.592  -7.870   8.694  1.00  0.00     0.007 C 
ENDBRANCH  24  26
ENDBRANCH  22  24
BRANCH  23  28
HETATM   28  C   UNL     1      41.610  -9.868   7.087  1.00  0.00     0.038 A 
HETATM   29  C   UNL     1      41.587  -8.401   6.726  1.00  0.00     0.011 A 
HETATM   30  C   UNL     1      41.163  -9.413   5.717  1.00  0.00     0.011 A 
ENDBRANCH  23  28
ENDBRANCH   1  19
TORSDOF 9
ENDMDL
MODEL 6
REMARK VINA RESULT:      -7.1      2.203      3.442
REMARK  9 active torsions:
REMARK  status: ('A' for Active; 'I' for Inactive)
REMARK    1  A    between atoms: C_2  and  C_3 
REMARK    2  A    between atoms: C_3  and  N_4 
REMARK    3  A    between atoms: C_7  and  C_8 
REMARK       I    between atoms: C_8  and  N_9 
REMARK    4  A    between atoms: N_9  and  C_10 
REMARK    5  A    between atoms: C_10  and  C_11 
REMARK    6  A    between atoms: C_13  and  O_14 
REMARK    7  A    between atoms: O_14  and  C_15 
REMARK    8  A    between atoms: C_15  and  C_16 
REMARK       I    between atoms: C_16  and  N_17 
REMARK    9  A    between atoms: C_23  and  C_24 
ROOT
HETATM    1  C   UNL     1      41.981 -11.672   5.544  1.00  0.00     0.255 C 
HETATM    2  N   UNL     1      43.033 -11.026   6.161  1.00  0.00    -0.353 N 
HETATM    3  O   UNL     1      40.804 -11.391   5.755  1.00  0.00    -0.268 OA
HETATM    4  H   UNL     1      43.960 -11.154   5.781  1.00  0.00     0.163 HD
ENDROOT
BRANCH   2   5
HETATM    5  C   UNL     1      42.743  -9.839   6.933  1.00  0.00     0.161 C 
BRANCH   5   6
HETATM    6  C   UNL     1      43.115  -9.887   8.393  1.00  0.00    -0.038 A 
HETATM    7  C   UNL     1      42.249  -9.509   9.428  1.00  0.00     0.045 A 
HETATM    8  C   UNL     1      42.687  -9.468  10.760  1.00  0.00     0.070 A 
HETATM    9  C   UNL     1      44.009  -9.800  11.060  1.00  0.00     0.037 A 
HETATM   10  C   UNL     1      44.884 -10.172  10.040  1.00  0.00     0.003 A 
HETATM   11  C   UNL     1      44.441 -10.213   8.720  1.00  0.00     0.009 A 
BRANCH   8  12
HETATM   12  O   UNL     1      41.737  -9.085  11.671  1.00  0.00    -0.342 OA
BRANCH  12  13
HETATM   13  C   UNL     1      41.461 -10.006  12.725  1.00  0.00     0.278 C 
BRANCH  13  14
HETATM   14  C   UNL     1      39.970 -10.326  12.806  1.00  0.00     0.239 C 
HETATM   15  N   UNL     1      39.159  -9.586  11.997  1.00  0.00    -0.368 N 
HETATM   16  H   UNL     1      39.518  -8.749  11.551  1.00  0.00     0.159 HD
HETATM   17  H   UNL     1      38.161  -9.727  12.063  1.00  0.00     0.159 HD
HETATM   18  O   UNL     1      39.514 -11.225  13.506  1.00  0.00    -0.271 OA
ENDBRANCH  13  14
ENDBRANCH  12  13
ENDBRANCH   8  12
ENDBRANCH   5   6
ENDBRANCH   2   5
BRANCH   1  19
HETATM   19  C   UNL     1      42.350 -12.648   4.545  1.00  0.00     0.075 A 
HETATM   20  C   UNL     1      43.282 -12.420   3.510  1.00  0.00     0.158 A 
HETATM   21  N   UNL     1      43.335 -13.413   2.628  1.00  0.00    -0.183 NA
HETATM   22  N   UNL     1      42.390 -14.276   3.056  1.00  0.00    -0.268 N 
HETATM   23  C   UNL     1      41.801 -13.886   4.246  1.00  0.00     0.052 A 
BRANCH  22  24
HETATM   24  C   UNL     1      41.982 -15.384   2.189  1.00  0.00     0.106 C 
HETATM   25  C   UNL     1      41.257 -14.829   0.957  1.00  0.00     0.034 C 
BRANCH  24  26
HETATM   26  C   UNL     1      43.131 -16.312   1.737  1.00  0.00     0.022 C 
HETATM   27  C   UNL     1      43.410 -17.443   2.717  1.00  0.00     0.007 C 
ENDBRANCH  24  26
ENDBRANCH  22  24
BRANCH  23  28
HETATM   28  C   UNL     1      40.702 -14.672   4.965  1.00  0.00     0.038 A 
HETATM   29  C   UNL     1      41.028 -15.999   5.608  1.00  0.00     0.011 A 
HETATM   30  C   UNL     1      40.721 -14.822   6.468  1.00  0.00     0.011 A 
ENDBRANCH  23  28
ENDBRANCH   1  19
TORSDOF 9
ENDMDL
MODEL 7
REMARK VINA RESULT:      -7.1      4.505      8.103
REMARK  9 active torsions:
REMARK  status: ('A' for Active; 'I' for Inactive)
REMARK    1  A    between atoms: C_2  and  C_3 
REMARK    2  A    between atoms: C_3  and  N_4 
REMARK    3  A    between atoms: C_7  and  C_8 
REMARK       I    between atoms: C_8  and  N_9 
REMARK    4  A    between atoms: N_9  and  C_10 
REMARK    5  A    between atoms: C_10  and  C_11 
REMARK    6  A    between atoms: C_13  and  O_14 
REMARK    7  A    between atoms: O_14  and  C_15 
REMARK    8  A    between atoms: C_15  and  C_16 
REMARK       I    between atoms: C_16  and  N_17 
REMARK    9  A    between atoms: C_23  and  C_24 
ROOT
HETATM    1  C   UNL     1      41.440 -13.159   3.341  1.00  0.00     0.255 C 
HETATM    2  N   UNL     1      42.605 -13.859   3.579  1.00  0.00    -0.353 N 
HETATM    3  O   UNL     1      40.684 -12.789   4.235  1.00  0.00    -0.268 OA
HETATM    4  H   UNL     1      43.277 -13.935   2.829  1.00  0.00     0.163 HD
ENDROOT
BRANCH   2   5
HETATM    5  C   UNL     1      43.055 -13.984   4.947  1.00  0.00     0.161 C 
BRANCH   5   6
HETATM    6  C   UNL     1      43.312 -15.387   5.437  1.00  0.00    -0.038 A 
HETATM    7  C   UNL     1      43.835 -16.407   4.630  1.00  0.00     0.045 A 
HETATM    8  C   UNL     1      43.948 -17.721   5.107  1.00  0.00     0.070 A 
HETATM    9  C   UNL     1      43.523 -18.021   6.402  1.00  0.00     0.037 A 
HETATM   10  C   UNL     1      42.994 -17.019   7.214  1.00  0.00     0.003 A 
HETATM   11  C   UNL     1      42.888 -15.715   6.734  1.00  0.00     0.009 A 
BRANCH   8  12
HETATM   12  O   UNL     1      44.479 -18.618   4.217  1.00  0.00    -0.342 OA
BRANCH  12  13
HETATM   13  C   UNL     1      43.691 -18.907   3.063  1.00  0.00     0.278 C 
BRANCH  13  14
HETATM   14  C   UNL     1      43.746 -20.392   2.712  1.00  0.00     0.239 C 
HETATM   15  N   UNL     1      43.924 -21.245   3.762  1.00  0.00    -0.368 N 
HETATM   16  H   UNL     1      44.214 -20.881   4.663  1.00  0.00     0.159 HD
HETATM   17  H   UNL     1      44.024 -22.231   3.566  1.00  0.00     0.159 HD
HETATM   18  O   UNL     1      43.587 -20.819   1.572  1.00  0.00    -0.271 OA
ENDBRANCH  13  14
ENDBRANCH  12  13
ENDBRANCH   8  12
ENDBRANCH   5   6
ENDBRANCH   2   5
BRANCH   1  19
HETATM   19  C   UNL     1      41.202 -12.796   1.964  1.00  0.00     0.075 A 
HETATM   20  C   UNL     1      41.407 -11.505   1.430  1.00  0.00     0.158 A 
HETATM   21  N   UNL     1      40.971 -11.382   0.180  1.00  0.00    -0.183 NA
HETATM   22  N   UNL     1      40.425 -12.585  -0.091  1.00  0.00    -0.268 N 
HETATM   23  C   UNL     1      40.589 -13.497   0.936  1.00  0.00     0.052 A 
BRANCH  22  24
HETATM   24  C   UNL     1      39.615 -12.751  -1.300  1.00  0.00     0.106 C 
HETATM   25  C   UNL     1      39.460 -11.396  -2.002  1.00  0.00     0.034 C 
BRANCH  24  26
HETATM   26  C   UNL     1      40.152 -13.794  -2.305  1.00  0.00     0.022 C 
HETATM   27  C   UNL     1      39.063 -14.683  -2.888  1.00  0.00     0.007 C 
ENDBRANCH  24  26
ENDBRANCH  22  24
BRANCH  23  28
HETATM   28  C   UNL     1      40.076 -14.939   0.903  1.00  0.00     0.038 A 
HETATM   29  C   UNL     1      40.924 -16.050   1.477  1.00  0.00     0.011 A 
HETATM   30  C   UNL     1      39.673 -15.642   2.178  1.00  0.00     0.011 A 
ENDBRANCH  23  28
ENDBRANCH   1  19
TORSDOF 9
ENDMDL
MODEL 8
REMARK VINA RESULT:      -7.1      4.657      8.032
REMARK  9 active torsions:
REMARK  status: ('A' for Active; 'I' for Inactive)
REMARK    1  A    between atoms: C_2  and  C_3 
REMARK    2  A    between atoms: C_3  and  N_4 
REMARK    3  A    between atoms: C_7  and  C_8 
REMARK       I    between atoms: C_8  and  N_9 
REMARK    4  A    between atoms: N_9  and  C_10 
REMARK    5  A    between atoms: C_10  and  C_11 
REMARK    6  A    between atoms: C_13  and  O_14 
REMARK    7  A    between atoms: O_14  and  C_15 
REMARK    8  A    between atoms: C_15  and  C_16 
REMARK       I    between atoms: C_16  and  N_17 
REMARK    9  A    between atoms: C_23  and  C_24 
ROOT
HETATM    1  C   UNL     1      40.585 -12.921   4.321  1.00  0.00     0.255 C 
HETATM    2  N   UNL     1      41.404 -11.953   3.777  1.00  0.00    -0.353 N 
HETATM    3  O   UNL     1      39.364 -12.807   4.386  1.00  0.00    -0.268 OA
HETATM    4  H   UNL     1      42.358 -12.205   3.558  1.00  0.00     0.163 HD
ENDROOT
BRANCH   2   5
HETATM    5  C   UNL     1      40.783 -10.854   3.074  1.00  0.00     0.161 C 
BRANCH   5   6
HETATM    6  C   UNL     1      40.619 -11.025   1.585  1.00  0.00    -0.038 A 
HETATM    7  C   UNL     1      39.761 -11.968   1.002  1.00  0.00     0.045 A 
HETATM    8  C   UNL     1      39.732 -12.160  -0.388  1.00  0.00     0.070 A 
HETATM    9  C   UNL     1      40.577 -11.406  -1.203  1.00  0.00     0.037 A 
HETATM   10  C   UNL     1      41.441 -10.469  -0.638  1.00  0.00     0.003 A 
HETATM   11  C   UNL     1      41.462 -10.282   0.743  1.00  0.00     0.009 A 
BRANCH   8  12
HETATM   12  O   UNL     1      38.846 -13.110  -0.823  1.00  0.00    -0.342 OA
BRANCH  12  13
HETATM   13  C   UNL     1      39.404 -14.360  -1.227  1.00  0.00     0.278 C 
BRANCH  13  14
HETATM   14  C   UNL     1      38.982 -14.722  -2.649  1.00  0.00     0.239 C 
HETATM   15  N   UNL     1      38.310 -15.902  -2.787  1.00  0.00    -0.368 N 
HETATM   16  H   UNL     1      38.297 -16.568  -2.023  1.00  0.00     0.159 HD
HETATM   17  H   UNL     1      38.064 -16.205  -3.719  1.00  0.00     0.159 HD
HETATM   18  O   UNL     1      39.177 -13.990  -3.614  1.00  0.00    -0.271 OA
ENDBRANCH  13  14
ENDBRANCH  12  13
ENDBRANCH   8  12
ENDBRANCH   5   6
ENDBRANCH   2   5
BRANCH   1  19
HETATM   19  C   UNL     1      41.246 -14.139   4.729  1.00  0.00     0.075 A 
HETATM   20  C   UNL     1      41.010 -14.806   5.950  1.00  0.00     0.158 A 
HETATM   21  N   UNL     1      41.850 -15.815   6.163  1.00  0.00    -0.183 NA
HETATM   22  N   UNL     1      42.679 -15.775   5.100  1.00  0.00    -0.268 N 
HETATM   23  C   UNL     1      42.322 -14.813   4.172  1.00  0.00     0.052 A 
BRANCH  22  24
HETATM   24  C   UNL     1      43.899 -16.586   5.108  1.00  0.00     0.106 C 
HETATM   25  C   UNL     1      44.690 -16.306   6.392  1.00  0.00     0.034 C 
BRANCH  24  26
HETATM   26  C   UNL     1      43.670 -18.106   4.965  1.00  0.00     0.022 C 
HETATM   27  C   UNL     1      44.207 -18.674   3.659  1.00  0.00     0.007 C 
ENDBRANCH  24  26
ENDBRANCH  22  24
BRANCH  23  28
HETATM   28  C   UNL     1      43.079 -14.546   2.869  1.00  0.00     0.038 A 
HETATM   29  C   UNL     1      43.183 -15.634   1.826  1.00  0.00     0.011 A 
HETATM   30  C   UNL     1      42.338 -14.436   1.557  1.00  0.00     0.011 A 
ENDBRANCH  23  28
ENDBRANCH   1  19
TORSDOF 9
ENDMDL
MODEL 9
REMARK VINA RESULT:      -7.0      2.570      3.655
REMARK  9 active torsions:
REMARK  status: ('A' for Active; 'I' for Inactive)
REMARK    1  A    between atoms: C_2  and  C_3 
REMARK    2  A    between atoms: C_3  and  N_4 
REMARK    3  A    between atoms: C_7  and  C_8 
REMARK       I    between atoms: C_8  and  N_9 
REMARK    4  A    between atoms: N_9  and  C_10 
REMARK    5  A    between atoms: C_10  and  C_11 
REMARK    6  A    between atoms: C_13  and  O_14 
REMARK    7  A    between atoms: O_14  and  C_15 
REMARK    8  A    between atoms: C_15  and  C_16 
REMARK       I    between atoms: C_16  and  N_17 
REMARK    9  A    between atoms: C_23  and  C_24 
ROOT
HETATM    1  C   UNL     1      44.351 -12.289   6.860  1.00  0.00     0.255 C 
HETATM    2  N   UNL     1      43.729 -11.678   7.931  1.00  0.00    -0.353 N 
HETATM    3  O   UNL     1      45.446 -11.937   6.431  1.00  0.00    -0.268 OA
HETATM    4  H   UNL     1      42.949 -12.153   8.362  1.00  0.00     0.163 HD
ENDROOT
BRANCH   2   5
HETATM    5  C   UNL     1      44.489 -10.720   8.701  1.00  0.00     0.161 C 
BRANCH   5   6
HETATM    6  C   UNL     1      43.700  -9.863   9.659  1.00  0.00    -0.038 A 
HETATM    7  C   UNL     1      42.463  -9.283   9.344  1.00  0.00     0.045 A 
HETATM    8  C   UNL     1      41.827  -8.404  10.233  1.00  0.00     0.070 A 
HETATM    9  C   UNL     1      42.440  -8.093  11.448  1.00  0.00     0.037 A 
HETATM   10  C   UNL     1      43.673  -8.656  11.772  1.00  0.00     0.003 A 
HETATM   11  C   UNL     1      44.297  -9.531  10.886  1.00  0.00     0.009 A 
BRANCH   8  12
HETATM   12  O   UNL     1      40.623  -7.913   9.801  1.00  0.00    -0.342 OA
BRANCH  12  13
HETATM   13  C   UNL     1      39.463  -8.390  10.482  1.00  0.00     0.278 C 
BRANCH  13  14
HETATM   14  C   UNL     1      39.113  -9.812  10.052  1.00  0.00     0.239 C 
HETATM   15  N   UNL     1      39.117 -10.750  11.044  1.00  0.00    -0.368 N 
HETATM   16  H   UNL     1      39.537 -10.534  11.941  1.00  0.00     0.159 HD
HETATM   17  H   UNL     1      38.947 -11.714  10.790  1.00  0.00     0.159 HD
HETATM   18  O   UNL     1      38.791 -10.107   8.905  1.00  0.00    -0.271 OA
ENDBRANCH  13  14
ENDBRANCH  12  13
ENDBRANCH   8  12
ENDBRANCH   5   6
ENDBRANCH   2   5
BRANCH   1  19
HETATM   19  C   UNL     1      43.675 -13.447   6.326  1.00  0.00     0.075 A 
HETATM   20  C   UNL     1      43.788 -14.753   6.850  1.00  0.00     0.158 A 
HETATM   21  N   UNL     1      43.197 -15.672   6.093  1.00  0.00    -0.183 NA
HETATM   22  N   UNL     1      42.738 -14.972   5.034  1.00  0.00    -0.268 N 
HETATM   23  C   UNL     1      42.952 -13.611   5.153  1.00  0.00     0.052 A 
BRANCH  22  24
HETATM   24  C   UNL     1      42.242 -15.691   3.858  1.00  0.00     0.106 C 
HETATM   25  C   UNL     1      42.984 -17.026   3.724  1.00  0.00     0.034 C 
BRANCH  24  26
HETATM   26  C   UNL     1      40.718 -15.943   3.846  1.00  0.00     0.022 C 
HETATM   27  C   UNL     1      40.068 -15.624   2.507  1.00  0.00     0.007 C 
ENDBRANCH  24  26
ENDBRANCH  22  24
BRANCH  23  28
HETATM   28  C   UNL     1      42.535 -12.575   4.106  1.00  0.00     0.038 A 
HETATM   29  C   UNL     1      43.584 -11.712   3.445  1.00  0.00     0.011 A 
HETATM   30  C   UNL     1      42.891 -12.765   2.650  1.00  0.00     0.011 A 
ENDBRANCH  23  28
ENDBRANCH   1  19
TORSDOF 9
ENDMDL
MODEL 10
REMARK VINA RESULT:      -7.0      2.841      8.054
REMARK  9 active torsions:
REMARK  status: ('A' for Active; 'I' for Inactive)
REMARK    1  A    between atoms: C_2  and  C_3 
REMARK    2  A    between atoms: C_3  and  N_4 
REMARK    3  A    between atoms: C_7  and  C_8 
REMARK       I    between atoms: C_8  and  N_9 
REMARK    4  A    between atoms: N_9  and  C_10 
REMARK    5  A    between atoms: C_10  and  C_11 
REMARK    6  A    between atoms: C_13  and  O_14 
REMARK    7  A    between atoms: O_14  and  C_15 
REMARK    8  A    between atoms: C_15  and  C_16 
REMARK       I    between atoms: C_16  and  N_17 
REMARK    9  A    between atoms: C_23  and  C_24 
ROOT
HETATM    1  C   UNL     1      43.232 -11.470   4.269  1.00  0.00     0.255 C 
HETATM    2  N   UNL     1      42.933 -12.817   4.295  1.00  0.00    -0.353 N 
HETATM    3  O   UNL     1      43.660 -10.897   3.270  1.00  0.00    -0.268 OA
HETATM    4  H   UNL     1      42.385 -13.168   5.068  1.00  0.00     0.163 HD
ENDROOT
BRANCH   2   5
HETATM    5  C   UNL     1      42.932 -13.538   3.042  1.00  0.00     0.161 C 
BRANCH   5   6
HETATM    6  C   UNL     1      42.974 -15.042   3.140  1.00  0.00    -0.038 A 
HETATM    7  C   UNL     1      42.938 -15.742   4.354  1.00  0.00     0.045 A 
HETATM    8  C   UNL     1      43.094 -17.135   4.392  1.00  0.00     0.070 A 
HETATM    9  C   UNL     1      43.299 -17.836   3.203  1.00  0.00     0.037 A 
HETATM   10  C   UNL     1      43.345 -17.153   1.988  1.00  0.00     0.003 A 
HETATM   11  C   UNL     1      43.186 -15.770   1.958  1.00  0.00     0.009 A 
BRANCH   8  12
HETATM   12  O   UNL     1      43.034 -17.692   5.643  1.00  0.00    -0.342 OA
BRANCH  12  13
HETATM   13  C   UNL     1      43.588 -16.920   6.707  1.00  0.00     0.278 C 
BRANCH  13  14
HETATM   14  C   UNL     1      42.536 -16.014   7.342  1.00  0.00     0.239 C 
HETATM   15  N   UNL     1      43.010 -14.881   7.939  1.00  0.00    -0.368 N 
HETATM   16  H   UNL     1      44.002 -14.785   8.122  1.00  0.00     0.159 HD
HETATM   17  H   UNL     1      42.352 -14.284   8.420  1.00  0.00     0.159 HD
HETATM   18  O   UNL     1      41.332 -16.240   7.285  1.00  0.00    -0.271 OA
ENDBRANCH  13  14
ENDBRANCH  12  13
ENDBRANCH   8  12
ENDBRANCH   5   6
ENDBRANCH   2   5
BRANCH   1  19
HETATM   19  C   UNL     1      42.917 -10.739   5.473  1.00  0.00     0.075 A 
HETATM   20  C   UNL     1      41.896  -9.769   5.577  1.00  0.00     0.158 A 
HETATM   21  N   UNL     1      41.904  -9.126   6.740  1.00  0.00    -0.183 NA
HETATM   22  N   UNL     1      42.972  -9.638   7.385  1.00  0.00    -0.268 N 
HETATM   23  C   UNL     1      43.588 -10.660   6.685  1.00  0.00     0.052 A 
BRANCH  22  24
HETATM   24  C   UNL     1      43.451  -8.992   8.610  1.00  0.00     0.106 C 
HETATM   25  C   UNL     1      43.058  -7.510   8.592  1.00  0.00     0.034 C 
BRANCH  24  26
HETATM   26  C   UNL     1      42.958  -9.641   9.922  1.00  0.00     0.022 C 
HETATM   27  C   UNL     1      44.072  -9.867  10.935  1.00  0.00     0.007 C 
ENDBRANCH  24  26
ENDBRANCH  22  24
BRANCH  23  28
HETATM   28  C   UNL     1      44.819 -11.425   7.175  1.00  0.00     0.038 A 
HETATM   29  C   UNL     1      46.100 -11.378   6.374  1.00  0.00     0.011 A 
HETATM   30  C   UNL     1      46.031 -10.686   7.692  1.00  0.00     0.011 A 
ENDBRANCH  23  28
ENDBRANCH   1  19
TORSDOF 9
ENDMDL
