MODEL 1
REMARK VINA RESULT:      -7.8      0.000      0.000
REMARK  6 active torsions:
REMARK  status: ('A' for Active; 'I' for Inactive)
REMARK    1  A    between atoms: C_2  and  C_3 
REMARK    2  A    between atoms: C_3  and  O_4 
REMARK    3  A    between atoms: O_4  and  C_5 
REMARK    4  A    between atoms: C_6  and  O_7 
REMARK    5  A    between atoms: C_10  and  C_11 
REMARK    6  A    between atoms: C_25  and  O_26 
ROOT
HETATM    1  C   UNL     1      42.063 -12.943   3.965  1.00  0.00     0.269 C 
HETATM    2  N   UNL     1      40.597 -12.964   4.322  1.00  0.00    -0.061 N 
HETATM    3  H   UNL     1      40.463 -13.682   5.042  1.00  0.00     0.278 HD
HETATM    4  H   UNL     1      40.067 -13.274   3.502  1.00  0.00     0.278 HD
HETATM    5  C   UNL     1      40.070 -11.646   4.838  1.00  0.00     0.238 C 
HETATM    6  C   UNL     1      40.768 -11.252   6.154  1.00  0.00     0.069 C 
HETATM    7  C   UNL     1      42.242 -11.450   6.039  1.00  0.00    -0.019 A 
HETATM    8  C   UNL     1      42.803 -12.232   5.046  1.00  0.00     0.052 A 
HETATM    9  N   UNL     1      44.166 -12.205   5.204  1.00  0.00    -0.356 N 
HETATM   10  H   UNL     1      44.850 -12.685   4.631  1.00  0.00     0.166 HD
HETATM   11  C   UNL     1      44.488 -11.437   6.301  1.00  0.00     0.043 A 
HETATM   12  C   UNL     1      43.298 -10.950   6.844  1.00  0.00     0.002 A 
HETATM   13  C   UNL     1      45.739 -11.138   6.851  1.00  0.00     0.033 A 
HETATM   14  C   UNL     1      45.777 -10.318   7.986  1.00  0.00     0.039 A 
HETATM   15  C   UNL     1      44.607  -9.814   8.552  1.00  0.00     0.069 A 
HETATM   16  C   UNL     1      43.364 -10.127   7.985  1.00  0.00     0.051 A 
ENDROOT
BRANCH   1  17
HETATM   17  C   UNL     1      42.559 -14.350   3.700  1.00  0.00    -0.019 A 
HETATM   18  C   UNL     1      42.641 -15.303   4.733  1.00  0.00     0.049 A 
HETATM   19  C   UNL     1      43.081 -16.606   4.475  1.00  0.00     0.102 A 
HETATM   20  C   UNL     1      43.438 -16.979   3.166  1.00  0.00     0.102 A 
HETATM   21  C   UNL     1      43.356 -16.036   2.138  1.00  0.00     0.040 A 
HETATM   22  C   UNL     1      42.921 -14.734   2.401  1.00  0.00     0.012 A 
BRANCH  19  23
HETATM   23  O   UNL     1      43.158 -17.588   5.430  1.00  0.00    -0.353 OA
HETATM   24  C   UNL     1      43.325 -17.180   6.781  1.00  0.00     0.210 C 
ENDBRANCH  19  23
BRANCH  20  25
HETATM   25  O   UNL     1      43.845 -18.276   3.000  1.00  0.00    -0.348 OA
BRANCH  25  26
HETATM   26  C   UNL     1      43.083 -19.116   2.133  1.00  0.00     0.175 C 
BRANCH  26  27
HETATM   27  C   UNL     1      43.643 -20.530   2.244  1.00  0.00     0.022 C 
HETATM   28  C   UNL     1      43.862 -20.940   3.690  1.00  0.00     0.007 C 
ENDBRANCH  26  27
ENDBRANCH  25  26
ENDBRANCH  20  25
ENDBRANCH   1  17
BRANCH  15  29
HETATM   29  O   UNL     1      44.531  -9.008   9.656  1.00  0.00    -0.356 OA
HETATM   30  C   UNL     1      44.161  -9.626  10.883  1.00  0.00     0.210 C 
ENDBRANCH  15  29
TORSDOF 6
ENDMDL
MODEL 2
REMARK VINA RESULT:      -7.8      1.484      8.016
REMARK  6 active torsions:
REMARK  status: ('A' for Active; 'I' for Inactive)
REMARK    1  A    between atoms: C_2  and  C_3 
REMARK    2  A    between atoms: C_3  and  O_4 
REMARK    3  A    between atoms: O_4  and  C_5 
REMARK    4  A    between atoms: C_6  and  O_7 
REMARK    5  A    between atoms: C_10  and  C_11 
REMARK    6  A    between atoms: C_25  and  O_26 
ROOT
HETATM    1  C   UNL     1      42.138 -12.963   4.250  1.00  0.00     0.269 C 
HETATM    2  N   UNL     1      42.396 -12.463   2.850  1.00  0.00    -0.061 N 
HETATM    3  H   UNL     1      43.403 -12.285   2.764  1.00  0.00     0.278 HD
HETATM    4  H   UNL     1      41.932 -11.556   2.738  1.00  0.00     0.278 HD
HETATM    5  C   UNL     1      41.973 -13.424   1.765  1.00  0.00     0.238 C 
HETATM    6  C   UNL     1      42.778 -14.735   1.846  1.00  0.00     0.069 C 
HETATM    7  C   UNL     1      42.846 -15.215   3.256  1.00  0.00    -0.019 A 
HETATM    8  C   UNL     1      42.564 -14.389   4.329  1.00  0.00     0.052 A 
HETATM    9  N   UNL     1      42.704 -15.124   5.479  1.00  0.00    -0.356 N 
HETATM   10  H   UNL     1      42.568 -14.794   6.427  1.00  0.00     0.166 HD
HETATM   11  C   UNL     1      43.097 -16.406   5.163  1.00  0.00     0.043 A 
HETATM   12  C   UNL     1      43.193 -16.490   3.773  1.00  0.00     0.002 A 
HETATM   13  C   UNL     1      43.373 -17.492   6.001  1.00  0.00     0.033 A 
HETATM   14  C   UNL     1      43.758 -18.699   5.403  1.00  0.00     0.039 A 
HETATM   15  C   UNL     1      43.862 -18.817   4.017  1.00  0.00     0.069 A 
HETATM   16  C   UNL     1      43.581 -17.715   3.197  1.00  0.00     0.051 A 
ENDROOT
BRANCH   1  17
HETATM   17  C   UNL     1      42.813 -12.060   5.263  1.00  0.00    -0.019 A 
HETATM   18  C   UNL     1      42.062 -11.230   6.117  1.00  0.00     0.049 A 
HETATM   19  C   UNL     1      42.692 -10.415   7.063  1.00  0.00     0.102 A 
HETATM   20  C   UNL     1      44.094 -10.428   7.176  1.00  0.00     0.102 A 
HETATM   21  C   UNL     1      44.843 -11.252   6.332  1.00  0.00     0.040 A 
HETATM   22  C   UNL     1      44.209 -12.061   5.384  1.00  0.00     0.012 A 
BRANCH  19  23
HETATM   23  O   UNL     1      42.017  -9.605   7.941  1.00  0.00    -0.353 OA
HETATM   24  C   UNL     1      40.608  -9.501   7.791  1.00  0.00     0.210 C 
ENDBRANCH  19  23
BRANCH  20  25
HETATM   25  O   UNL     1      44.628  -9.610   8.137  1.00  0.00    -0.348 OA
BRANCH  25  26
HETATM   26  C   UNL     1      45.416 -10.205   9.167  1.00  0.00     0.175 C 
BRANCH  26  27
HETATM   27  C   UNL     1      44.858  -9.741  10.508  1.00  0.00     0.022 C 
HETATM   28  C   UNL     1      43.707 -10.616  10.975  1.00  0.00     0.007 C 
ENDBRANCH  26  27
ENDBRANCH  25  26
ENDBRANCH  20  25
ENDBRANCH   1  17
BRANCH  15  29
HETATM   29  O   UNL     1      44.228 -19.945   3.333  1.00  0.00    -0.356 OA
HETATM   30  C   UNL     1      43.515 -20.235   2.136  1.00  0.00     0.210 C 
ENDBRANCH  15  29
TORSDOF 6
ENDMDL
MODEL 3
REMARK VINA RESULT:      -7.6      4.091      6.921
REMARK  6 active torsions:
REMARK  status: ('A' for Active; 'I' for Inactive)
REMARK    1  A    between atoms: C_2  and  C_3 
REMARK    2  A    between atoms: C_3  and  O_4 
REMARK    3  A    between atoms: O_4  and  C_5 
REMARK    4  A    between atoms: C_6  and  O_7 
REMARK    5  A    between atoms: C_10  and  C_11 
REMARK    6  A    between atoms: C_25  and  O_26 
ROOT
HETATM    1  C   UNL     1      40.255 -14.690   3.053  1.00  0.00     0.269 C 
HETATM    2  N   UNL     1      40.591 -13.499   3.915  1.00  0.00    -0.061 N 
HETATM    3  H   UNL     1      41.555 -13.221   3.700  1.00  0.00     0.278 HD
HETATM    4  H   UNL     1      40.587 -13.796   4.896  1.00  0.00     0.278 HD
HETATM    5  C   UNL     1      39.680 -12.312   3.707  1.00  0.00     0.238 C 
HETATM    6  C   UNL     1      39.797 -11.775   2.267  1.00  0.00     0.069 C 
HETATM    7  C   UNL     1      39.759 -12.900   1.289  1.00  0.00    -0.019 A 
HETATM    8  C   UNL     1      39.983 -14.211   1.668  1.00  0.00     0.052 A 
HETATM    9  N   UNL     1      39.870 -15.000   0.552  1.00  0.00    -0.356 N 
HETATM   10  H   UNL     1      39.984 -16.006   0.508  1.00  0.00     0.166 HD
HETATM   11  C   UNL     1      39.601 -14.212  -0.546  1.00  0.00     0.043 A 
HETATM   12  C   UNL     1      39.526 -12.888  -0.110  1.00  0.00     0.002 A 
HETATM   13  C   UNL     1      39.419 -14.571  -1.886  1.00  0.00     0.033 A 
HETATM   14  C   UNL     1      39.152 -13.550  -2.807  1.00  0.00     0.039 A 
HETATM   15  C   UNL     1      39.070 -12.218  -2.404  1.00  0.00     0.069 A 
HETATM   16  C   UNL     1      39.256 -11.881  -1.056  1.00  0.00     0.051 A 
ENDROOT
BRANCH   1  17
HETATM   17  C   UNL     1      41.354 -15.730   3.142  1.00  0.00    -0.019 A 
HETATM   18  C   UNL     1      42.344 -15.664   4.141  1.00  0.00     0.049 A 
HETATM   19  C   UNL     1      43.343 -16.639   4.229  1.00  0.00     0.102 A 
HETATM   20  C   UNL     1      43.360 -17.708   3.315  1.00  0.00     0.102 A 
HETATM   21  C   UNL     1      42.378 -17.779   2.323  1.00  0.00     0.040 A 
HETATM   22  C   UNL     1      41.385 -16.799   2.236  1.00  0.00     0.012 A 
BRANCH  19  23
HETATM   23  O   UNL     1      44.318 -16.647   5.194  1.00  0.00    -0.353 OA
HETATM   24  C   UNL     1      43.922 -16.373   6.531  1.00  0.00     0.210 C 
ENDBRANCH  19  23
BRANCH  20  25
HETATM   25  O   UNL     1      44.364 -18.625   3.480  1.00  0.00    -0.348 OA
BRANCH  25  26
HETATM   26  C   UNL     1      44.006 -19.999   3.623  1.00  0.00     0.175 C 
BRANCH  26  27
HETATM   27  C   UNL     1      44.453 -20.455   5.008  1.00  0.00     0.022 C 
HETATM   28  C   UNL     1      43.462 -20.048   6.085  1.00  0.00     0.007 C 
ENDBRANCH  26  27
ENDBRANCH  25  26
ENDBRANCH  20  25
ENDBRANCH   1  17
BRANCH  15  29
HETATM   29  O   UNL     1      38.816 -11.147  -3.219  1.00  0.00    -0.356 OA
HETATM   30  C   UNL     1      39.863 -10.198  -3.385  1.00  0.00     0.210 C 
ENDBRANCH  15  29
TORSDOF 6
ENDMDL
MODEL 4
REMARK VINA RESULT:      -7.5      1.739      7.935
REMARK  6 active torsions:
REMARK  status: ('A' for Active; 'I' for Inactive)
REMARK    1  A    between atoms: C_2  and  C_3 
REMARK    2  A    between atoms: C_3  and  O_4 
REMARK    3  A    between atoms: O_4  and  C_5 
REMARK    4  A    between atoms: C_6  and  O_7 
REMARK    5  A    between atoms: C_10  and  C_11 
REMARK    6  A    between atoms: C_25  and  O_26 
ROOT
HETATM    1  C   UNL     1      40.619 -13.521   4.319  1.00  0.00     0.269 C 
HETATM    2  N   UNL     1      40.311 -13.027   2.927  1.00  0.00    -0.061 N 
HETATM    3  H   UNL     1      41.153 -12.565   2.567  1.00  0.00     0.278 HD
HETATM    4  H   UNL     1      39.589 -12.302   2.991  1.00  0.00     0.278 HD
HETATM    5  C   UNL     1      39.898 -14.115   1.964  1.00  0.00     0.238 C 
HETATM    6  C   UNL     1      41.041 -15.127   1.756  1.00  0.00     0.069 C 
HETATM    7  C   UNL     1      41.644 -15.506   3.066  1.00  0.00    -0.019 A 
HETATM    8  C   UNL     1      41.448 -14.755   4.210  1.00  0.00     0.052 A 
HETATM    9  N   UNL     1      42.118 -15.366   5.240  1.00  0.00    -0.356 N 
HETATM   10  H   UNL     1      42.165 -15.051   6.202  1.00  0.00     0.166 HD
HETATM   11  C   UNL     1      42.763 -16.488   4.768  1.00  0.00     0.043 A 
HETATM   12  C   UNL     1      42.482 -16.600   3.406  1.00  0.00     0.002 A 
HETATM   13  C   UNL     1      43.571 -17.408   5.445  1.00  0.00     0.033 A 
HETATM   14  C   UNL     1      44.107 -18.474   4.709  1.00  0.00     0.039 A 
HETATM   15  C   UNL     1      43.845 -18.615   3.347  1.00  0.00     0.069 A 
HETATM   16  C   UNL     1      43.032 -17.680   2.690  1.00  0.00     0.051 A 
ENDROOT
BRANCH   1  17
HETATM   17  C   UNL     1      41.257 -12.418   5.138  1.00  0.00    -0.019 A 
HETATM   18  C   UNL     1      42.640 -12.162   5.069  1.00  0.00     0.049 A 
HETATM   19  C   UNL     1      43.217 -11.128   5.814  1.00  0.00     0.102 A 
HETATM   20  C   UNL     1      42.410 -10.323   6.637  1.00  0.00     0.102 A 
HETATM   21  C   UNL     1      41.037 -10.572   6.708  1.00  0.00     0.040 A 
HETATM   22  C   UNL     1      40.465 -11.610   5.966  1.00  0.00     0.012 A 
BRANCH  19  23
HETATM   23  O   UNL     1      44.551 -10.810   5.769  1.00  0.00    -0.353 OA
HETATM   24  C   UNL     1      45.449 -11.635   6.498  1.00  0.00     0.210 C 
ENDBRANCH  19  23
BRANCH  20  25
HETATM   25  O   UNL     1      43.054  -9.325   7.321  1.00  0.00    -0.348 OA
BRANCH  25  26
HETATM   26  C   UNL     1      42.808  -9.200   8.721  1.00  0.00     0.175 C 
BRANCH  26  27
HETATM   27  C   UNL     1      43.816 -10.081   9.451  1.00  0.00     0.022 C 
HETATM   28  C   UNL     1      45.195  -9.446   9.495  1.00  0.00     0.007 C 
ENDBRANCH  26  27
ENDBRANCH  25  26
ENDBRANCH  20  25
ENDBRANCH   1  17
BRANCH  15  29
HETATM   29  O   UNL     1      44.315 -19.613   2.538  1.00  0.00    -0.356 OA
HETATM   30  C   UNL     1      43.350 -20.373   1.820  1.00  0.00     0.210 C 
ENDBRANCH  15  29
TORSDOF 6
ENDMDL
MODEL 5
REMARK VINA RESULT:      -7.2      4.062      7.402
REMARK  6 active torsions:
REMARK  status: ('A' for Active; 'I' for Inactive)
REMARK    1  A    between atoms: C_2  and  C_3 
REMARK    2  A    between atoms: C_3  and  O_4 
REMARK    3  A    between atoms: O_4  and  C_5 
REMARK    4  A    between atoms: C_6  and  O_7 
REMARK    5  A    between atoms: C_10  and  C_11 
REMARK    6  A    between atoms: C_25  and  O_26 
ROOT
HETATM    1  C   UNL     1      42.302 -12.511   3.332  1.00  0.00     0.269 C 
HETATM    2  N   UNL     1      41.807 -11.975   4.652  1.00  0.00    -0.061 N 
HETATM    3  H   UNL     1      40.849 -12.314   4.786  1.00  0.00     0.278 HD
HETATM    4  H   UNL     1      41.746 -10.954   4.585  1.00  0.00     0.278 HD
HETATM    5  C   UNL     1      42.645 -12.388   5.838  1.00  0.00     0.238 C 
HETATM    6  C   UNL     1      42.618 -13.918   6.024  1.00  0.00     0.069 C 
HETATM    7  C   UNL     1      42.822 -14.603   4.716  1.00  0.00    -0.019 A 
HETATM    8  C   UNL     1      42.660 -13.947   3.509  1.00  0.00     0.052 A 
HETATM    9  N   UNL     1      42.928 -14.840   2.502  1.00  0.00    -0.356 N 
HETATM   10  H   UNL     1      42.890 -14.656   1.506  1.00  0.00     0.166 HD
HETATM   11  C   UNL     1      43.235 -16.069   3.044  1.00  0.00     0.043 A 
HETATM   12  C   UNL     1      43.176 -15.948   4.433  1.00  0.00     0.002 A 
HETATM   13  C   UNL     1      43.559 -17.273   2.409  1.00  0.00     0.033 A 
HETATM   14  C   UNL     1      43.833 -18.385   3.216  1.00  0.00     0.039 A 
HETATM   15  C   UNL     1      43.784 -18.297   4.607  1.00  0.00     0.069 A 
HETATM   16  C   UNL     1      43.456 -17.080   5.221  1.00  0.00     0.051 A 
ENDROOT
BRANCH   1  17
HETATM   17  C   UNL     1      41.277 -12.261   2.245  1.00  0.00    -0.019 A 
HETATM   18  C   UNL     1      41.636 -11.651   1.027  1.00  0.00     0.049 A 
HETATM   19  C   UNL     1      40.686 -11.442   0.021  1.00  0.00     0.102 A 
HETATM   20  C   UNL     1      39.356 -11.853   0.218  1.00  0.00     0.102 A 
HETATM   21  C   UNL     1      38.996 -12.461   1.423  1.00  0.00     0.040 A 
HETATM   22  C   UNL     1      39.946 -12.663   2.428  1.00  0.00     0.012 A 
BRANCH  19  23
HETATM   23  O   UNL     1      40.977 -10.879  -1.196  1.00  0.00    -0.353 OA
HETATM   24  C   UNL     1      41.680  -9.644  -1.199  1.00  0.00     0.210 C 
ENDBRANCH  19  23
BRANCH  20  25
HETATM   25  O   UNL     1      38.495 -11.623  -0.823  1.00  0.00    -0.348 OA
BRANCH  25  26
HETATM   26  C   UNL     1      37.927 -12.749  -1.491  1.00  0.00     0.175 C 
BRANCH  26  27
HETATM   27  C   UNL     1      38.707 -12.964  -2.784  1.00  0.00     0.022 C 
HETATM   28  C   UNL     1      39.621 -14.174  -2.699  1.00  0.00     0.007 C 
ENDBRANCH  26  27
ENDBRANCH  25  26
ENDBRANCH  20  25
ENDBRANCH   1  17
BRANCH  15  29
HETATM   29  O   UNL     1      44.032 -19.318   5.485  1.00  0.00    -0.356 OA
HETATM   30  C   UNL     1      44.066 -20.637   4.951  1.00  0.00     0.210 C 
ENDBRANCH  15  29
TORSDOF 6
ENDMDL
MODEL 6
REMARK VINA RESULT:      -7.2      1.650      8.393
REMARK  6 active torsions:
REMARK  status: ('A' for Active; 'I' for Inactive)
REMARK    1  A    between atoms: C_2  and  C_3 
REMARK    2  A    between atoms: C_3  and  O_4 
REMARK    3  A    between atoms: O_4  and  C_5 
REMARK    4  A    between atoms: C_6  and  O_7 
REMARK    5  A    between atoms: C_10  and  C_11 
REMARK    6  A    between atoms: C_25  and  O_26 
ROOT
HETATM    1  C   UNL     1      42.067 -11.104   5.532  1.00  0.00     0.269 C 
HETATM    2  N   UNL     1      42.795 -10.549   4.334  1.00  0.00    -0.061 N 
HETATM    3  H   UNL     1      43.790 -10.489   4.576  1.00  0.00     0.278 HD
HETATM    4  H   UNL     1      42.477  -9.587   4.178  1.00  0.00     0.278 HD
HETATM    5  C   UNL     1      42.643 -11.377   3.081  1.00  0.00     0.238 C 
HETATM    6  C   UNL     1      43.255 -12.779   3.271  1.00  0.00     0.069 C 
HETATM    7  C   UNL     1      42.832 -13.356   4.580  1.00  0.00    -0.019 A 
HETATM    8  C   UNL     1      42.309 -12.574   5.594  1.00  0.00     0.052 A 
HETATM    9  N   UNL     1      42.012 -13.394   6.652  1.00  0.00    -0.356 N 
HETATM   10  H   UNL     1      41.619 -13.113   7.543  1.00  0.00     0.166 HD
HETATM   11  C   UNL     1      42.362 -14.691   6.344  1.00  0.00     0.043 A 
HETATM   12  C   UNL     1      42.879 -14.694   5.047  1.00  0.00     0.002 A 
HETATM   13  C   UNL     1      42.258 -15.855   7.113  1.00  0.00     0.033 A 
HETATM   14  C   UNL     1      42.694 -17.058   6.542  1.00  0.00     0.039 A 
HETATM   15  C   UNL     1      43.214 -17.096   5.249  1.00  0.00     0.069 A 
HETATM   16  C   UNL     1      43.309 -15.917   4.497  1.00  0.00     0.051 A 
ENDROOT
BRANCH   1  17
HETATM   17  C   UNL     1      42.473 -10.359   6.787  1.00  0.00    -0.019 A 
HETATM   18  C   UNL     1      43.799 -10.389   7.258  1.00  0.00     0.049 A 
HETATM   19  C   UNL     1      44.171  -9.681   8.407  1.00  0.00     0.102 A 
HETATM   20  C   UNL     1      43.213  -8.918   9.099  1.00  0.00     0.102 A 
HETATM   21  C   UNL     1      41.896  -8.883   8.633  1.00  0.00     0.040 A 
HETATM   22  C   UNL     1      41.528  -9.596   7.488  1.00  0.00     0.012 A 
BRANCH  19  23
HETATM   23  O   UNL     1      45.450  -9.648   8.901  1.00  0.00    -0.353 OA
HETATM   24  C   UNL     1      46.478  -9.186   8.036  1.00  0.00     0.210 C 
ENDBRANCH  19  23
BRANCH  20  25
HETATM   25  O   UNL     1      43.663  -8.245  10.204  1.00  0.00    -0.348 OA
BRANCH  25  26
HETATM   26  C   UNL     1      42.743  -8.000  11.266  1.00  0.00     0.175 C 
BRANCH  26  27
HETATM   27  C   UNL     1      43.269  -8.706  12.511  1.00  0.00     0.022 C 
HETATM   28  C   UNL     1      42.148  -9.330  13.324  1.00  0.00     0.007 C 
ENDBRANCH  26  27
ENDBRANCH  25  26
ENDBRANCH  20  25
ENDBRANCH   1  17
BRANCH  15  29
HETATM   29  O   UNL     1      43.667 -18.212   4.599  1.00  0.00    -0.356 OA
HETATM   30  C   UNL     1      43.508 -18.246   3.185  1.00  0.00     0.210 C 
ENDBRANCH  15  29
TORSDOF 6
ENDMDL
MODEL 7
REMARK VINA RESULT:      -7.1      1.527      2.009
REMARK  6 active torsions:
REMARK  status: ('A' for Active; 'I' for Inactive)
REMARK    1  A    between atoms: C_2  and  C_3 
REMARK    2  A    between atoms: C_3  and  O_4 
REMARK    3  A    between atoms: O_4  and  C_5 
REMARK    4  A    between atoms: C_6  and  O_7 
REMARK    5  A    between atoms: C_10  and  C_11 
REMARK    6  A    between atoms: C_25  and  O_26 
ROOT
HETATM    1  C   UNL     1      42.224 -11.193   4.735  1.00  0.00     0.269 C 
HETATM    2  N   UNL     1      40.774 -10.781   4.695  1.00  0.00    -0.061 N 
HETATM    3  H   UNL     1      40.244 -11.452   5.262  1.00  0.00     0.278 HD
HETATM    4  H   UNL     1      40.433 -10.883   3.734  1.00  0.00     0.278 HD
HETATM    5  C   UNL     1      40.515  -9.387   5.214  1.00  0.00     0.238 C 
HETATM    6  C   UNL     1      40.892  -9.276   6.704  1.00  0.00     0.069 C 
HETATM    7  C   UNL     1      42.220  -9.909   6.951  1.00  0.00    -0.019 A 
HETATM    8  C   UNL     1      42.796 -10.784   6.049  1.00  0.00     0.052 A 
HETATM    9  N   UNL     1      44.008 -11.180   6.556  1.00  0.00    -0.356 N 
HETATM   10  H   UNL     1      44.663 -11.822   6.126  1.00  0.00     0.166 HD
HETATM   11  C   UNL     1      44.208 -10.590   7.785  1.00  0.00     0.043 A 
HETATM   12  C   UNL     1      43.100  -9.786   8.057  1.00  0.00     0.002 A 
HETATM   13  C   UNL     1      45.284 -10.708   8.672  1.00  0.00     0.033 A 
HETATM   14  C   UNL     1      45.227  -9.984   9.870  1.00  0.00     0.039 A 
HETATM   15  C   UNL     1      44.135  -9.172  10.171  1.00  0.00     0.069 A 
HETATM   16  C   UNL     1      43.068  -9.069   9.268  1.00  0.00     0.051 A 
ENDROOT
BRANCH   1  17
HETATM   17  C   UNL     1      42.359 -12.673   4.436  1.00  0.00    -0.019 A 
HETATM   18  C   UNL     1      41.871 -13.646   5.330  1.00  0.00     0.049 A 
HETATM   19  C   UNL     1      41.981 -15.010   5.037  1.00  0.00     0.102 A 
HETATM   20  C   UNL     1      42.576 -15.421   3.830  1.00  0.00     0.102 A 
HETATM   21  C   UNL     1      43.059 -14.458   2.940  1.00  0.00     0.040 A 
HETATM   22  C   UNL     1      42.952 -13.097   3.239  1.00  0.00     0.012 A 
BRANCH  19  23
HETATM   23  O   UNL     1      41.503 -16.005   5.851  1.00  0.00    -0.353 OA
HETATM   24  C   UNL     1      40.219 -15.822   6.429  1.00  0.00     0.210 C 
ENDBRANCH  19  23
BRANCH  20  25
HETATM   25  O   UNL     1      42.631 -16.773   3.617  1.00  0.00    -0.348 OA
BRANCH  25  26
HETATM   26  C   UNL     1      43.350 -17.247   2.478  1.00  0.00     0.175 C 
BRANCH  26  27
HETATM   27  C   UNL     1      43.958 -18.598   2.841  1.00  0.00     0.022 C 
HETATM   28  C   UNL     1      43.274 -19.741   2.111  1.00  0.00     0.007 C 
ENDBRANCH  26  27
ENDBRANCH  25  26
ENDBRANCH  20  25
ENDBRANCH   1  17
BRANCH  15  29
HETATM   29  O   UNL     1      43.979  -8.425  11.308  1.00  0.00    -0.356 OA
HETATM   30  C   UNL     1      42.965  -8.837  12.218  1.00  0.00     0.210 C 
ENDBRANCH  15  29
TORSDOF 6
ENDMDL
MODEL 8
REMARK VINA RESULT:      -7.0      2.851      9.439
REMARK  6 active torsions:
REMARK  status: ('A' for Active; 'I' for Inactive)
REMARK    1  A    between atoms: C_2  and  C_3 
REMARK    2  A    between atoms: C_3  and  O_4 
REMARK    3  A    between atoms: O_4  and  C_5 
REMARK    4  A    between atoms: C_6  and  O_7 
REMARK    5  A    between atoms: C_10  and  C_11 
REMARK    6  A    between atoms: C_25  and  O_26 
ROOT
HETATM    1  C   UNL     1      43.844  -9.815   8.337  1.00  0.00     0.269 C 
HETATM    2  N   UNL     1      45.273 -10.240   8.572  1.00  0.00    -0.061 N 
HETATM    3  H   UNL     1      45.257 -11.046   9.206  1.00  0.00     0.278 HD
HETATM    4  H   UNL     1      45.757  -9.488   9.072  1.00  0.00     0.278 HD
HETATM    5  C   UNL     1      46.018 -10.619   7.314  1.00  0.00     0.238 C 
HETATM    6  C   UNL     1      45.371 -11.845   6.640  1.00  0.00     0.069 C 
HETATM    7  C   UNL     1      43.889 -11.686   6.587  1.00  0.00    -0.019 A 
HETATM    8  C   UNL     1      43.219 -10.768   7.376  1.00  0.00     0.052 A 
HETATM    9  N   UNL     1      41.881 -10.858   7.089  1.00  0.00    -0.356 N 
HETATM   10  H   UNL     1      41.135 -10.315   7.508  1.00  0.00     0.166 HD
HETATM   11  C   UNL     1      41.677 -11.840   6.144  1.00  0.00     0.043 A 
HETATM   12  C   UNL     1      42.922 -12.375   5.811  1.00  0.00     0.002 A 
HETATM   13  C   UNL     1      40.487 -12.290   5.562  1.00  0.00     0.033 A 
HETATM   14  C   UNL     1      40.571 -13.317   4.612  1.00  0.00     0.039 A 
HETATM   15  C   UNL     1      41.799 -13.873   4.257  1.00  0.00     0.069 A 
HETATM   16  C   UNL     1      42.978 -13.406   4.854  1.00  0.00     0.051 A 
ENDROOT
BRANCH   1  17
HETATM   17  C   UNL     1      43.108  -9.696   9.656  1.00  0.00    -0.019 A 
HETATM   18  C   UNL     1      41.934  -8.927   9.771  1.00  0.00     0.049 A 
HETATM   19  C   UNL     1      41.248  -8.839  10.987  1.00  0.00     0.102 A 
HETATM   20  C   UNL     1      41.727  -9.535  12.112  1.00  0.00     0.102 A 
HETATM   21  C   UNL     1      42.890 -10.301  12.002  1.00  0.00     0.040 A 
HETATM   22  C   UNL     1      43.575 -10.382  10.786  1.00  0.00     0.012 A 
BRANCH  19  23
HETATM   23  O   UNL     1      40.087  -8.130  11.158  1.00  0.00    -0.353 OA
HETATM   24  C   UNL     1      39.031  -8.366  10.237  1.00  0.00     0.210 C 
ENDBRANCH  19  23
BRANCH  20  25
HETATM   25  O   UNL     1      40.989  -9.405  13.259  1.00  0.00    -0.348 OA
BRANCH  25  26
HETATM   26  C   UNL     1      41.642  -8.915  14.429  1.00  0.00     0.175 C 
BRANCH  26  27
HETATM   27  C   UNL     1      41.847  -7.414  14.254  1.00  0.00     0.022 C 
HETATM   28  C   UNL     1      43.319  -7.040  14.253  1.00  0.00     0.007 C 
ENDBRANCH  26  27
ENDBRANCH  25  26
ENDBRANCH  20  25
ENDBRANCH   1  17
BRANCH  15  29
HETATM   29  O   UNL     1      41.993 -14.876   3.345  1.00  0.00    -0.356 OA
HETATM   30  C   UNL     1      41.199 -16.047   3.493  1.00  0.00     0.210 C 
ENDBRANCH  15  29
TORSDOF 6
ENDMDL
MODEL 9
REMARK VINA RESULT:      -6.9      3.242      8.570
REMARK  6 active torsions:
REMARK  status: ('A' for Active; 'I' for Inactive)
REMARK    1  A    between atoms: C_2  and  C_3 
REMARK    2  A    between atoms: C_3  and  O_4 
REMARK    3  A    between atoms: O_4  and  C_5 
REMARK    4  A    between atoms: C_6  and  O_7 
REMARK    5  A    between atoms: C_10  and  C_11 
REMARK    6  A    between atoms: C_25  and  O_26 
ROOT
HETATM    1  C   UNL     1      42.764 -14.063   4.175  1.00  0.00     0.269 C 
HETATM    2  N   UNL     1      42.224 -15.242   4.946  1.00  0.00    -0.061 N 
HETATM    3  H   UNL     1      41.318 -14.967   5.340  1.00  0.00     0.278 HD
HETATM    4  H   UNL     1      42.844 -15.421   5.742  1.00  0.00     0.278 HD
HETATM    5  C   UNL     1      42.040 -16.490   4.115  1.00  0.00     0.238 C 
HETATM    6  C   UNL     1      40.997 -16.262   3.004  1.00  0.00     0.069 C 
HETATM    7  C   UNL     1      41.245 -14.962   2.318  1.00  0.00    -0.019 A 
HETATM    8  C   UNL     1      42.040 -13.976   2.875  1.00  0.00     0.052 A 
HETATM    9  N   UNL     1      42.078 -12.918   2.003  1.00  0.00    -0.356 N 
HETATM   10  H   UNL     1      42.576 -12.045   2.133  1.00  0.00     0.166 HD
HETATM   11  C   UNL     1      41.299 -13.199   0.902  1.00  0.00     0.043 A 
HETATM   12  C   UNL     1      40.764 -14.477   1.074  1.00  0.00     0.002 A 
HETATM   13  C   UNL     1      41.029 -12.420  -0.229  1.00  0.00     0.033 A 
HETATM   14  C   UNL     1      40.191 -12.961  -1.212  1.00  0.00     0.039 A 
HETATM   15  C   UNL     1      39.641 -14.235  -1.071  1.00  0.00     0.069 A 
HETATM   16  C   UNL     1      39.925 -14.997   0.071  1.00  0.00     0.051 A 
ENDROOT
BRANCH   1  17
HETATM   17  C   UNL     1      42.680 -12.804   5.014  1.00  0.00    -0.019 A 
HETATM   18  C   UNL     1      41.446 -12.328   5.498  1.00  0.00     0.049 A 
HETATM   19  C   UNL     1      41.381 -11.176   6.289  1.00  0.00     0.102 A 
HETATM   20  C   UNL     1      42.561 -10.485   6.618  1.00  0.00     0.102 A 
HETATM   21  C   UNL     1      43.788 -10.955   6.142  1.00  0.00     0.040 A 
HETATM   22  C   UNL     1      43.848 -12.103   5.347  1.00  0.00     0.012 A 
BRANCH  19  23
HETATM   23  O   UNL     1      40.216 -10.677   6.813  1.00  0.00    -0.353 OA
HETATM   24  C   UNL     1      38.992 -11.161   6.277  1.00  0.00     0.210 C 
ENDBRANCH  19  23
BRANCH  20  25
HETATM   25  O   UNL     1      42.408  -9.375   7.407  1.00  0.00    -0.348 OA
BRANCH  25  26
HETATM   26  C   UNL     1      43.115  -9.326   8.646  1.00  0.00     0.175 C 
BRANCH  26  27
HETATM   27  C   UNL     1      44.214  -8.276   8.513  1.00  0.00     0.022 C 
HETATM   28  C   UNL     1      45.592  -8.866   8.757  1.00  0.00     0.007 C 
ENDBRANCH  26  27
ENDBRANCH  25  26
ENDBRANCH  20  25
ENDBRANCH   1  17
BRANCH  15  29
HETATM   29  O   UNL     1      38.813 -14.856  -1.967  1.00  0.00    -0.356 OA
HETATM   30  C   UNL     1      38.564 -14.179  -3.193  1.00  0.00     0.210 C 
ENDBRANCH  15  29
TORSDOF 6
ENDMDL
MODEL 10
REMARK VINA RESULT:      -6.8      5.745      8.231
REMARK  6 active torsions:
REMARK  status: ('A' for Active; 'I' for Inactive)
REMARK    1  A    between atoms: C_2  and  C_3 
REMARK    2  A    between atoms: C_3  and  O_4 
REMARK    3  A    between atoms: O_4  and  C_5 
REMARK    4  A    between atoms: C_6  and  O_7 
REMARK    5  A    between atoms: C_10  and  C_11 
REMARK    6  A    between atoms: C_25  and  O_26 
ROOT
HETATM    1  C   UNL     1      40.267 -14.486  -0.635  1.00  0.00     0.269 C 
HETATM    2  N   UNL     1      38.967 -15.065  -1.135  1.00  0.00    -0.061 N 
HETATM    3  H   UNL     1      38.209 -14.647  -0.586  1.00  0.00     0.278 HD
HETATM    4  H   UNL     1      38.956 -16.069  -0.926  1.00  0.00     0.278 HD
HETATM    5  C   UNL     1      38.706 -14.818  -2.602  1.00  0.00     0.238 C 
HETATM    6  C   UNL     1      38.577 -13.310  -2.890  1.00  0.00     0.069 C 
HETATM    7  C   UNL     1      39.669 -12.556  -2.209  1.00  0.00    -0.019 A 
HETATM    8  C   UNL     1      40.412 -13.107  -1.181  1.00  0.00     0.052 A 
HETATM    9  N   UNL     1      41.334 -12.175  -0.777  1.00  0.00    -0.356 N 
HETATM   10  H   UNL     1      42.020 -12.284  -0.039  1.00  0.00     0.166 HD
HETATM   11  C   UNL     1      41.179 -11.022  -1.515  1.00  0.00     0.043 A 
HETATM   12  C   UNL     1      40.139 -11.235  -2.422  1.00  0.00     0.002 A 
HETATM   13  C   UNL     1      41.878  -9.813  -1.447  1.00  0.00     0.033 A 
HETATM   14  C   UNL     1      41.507  -8.791  -2.331  1.00  0.00     0.039 A 
HETATM   15  C   UNL     1      40.474  -8.971  -3.249  1.00  0.00     0.069 A 
HETATM   16  C   UNL     1      39.786 -10.192  -3.299  1.00  0.00     0.051 A 
ENDROOT
BRANCH   1  17
HETATM   17  C   UNL     1      40.329 -14.562   0.877  1.00  0.00    -0.019 A 
HETATM   18  C   UNL     1      41.006 -15.610   1.530  1.00  0.00     0.049 A 
HETATM   19  C   UNL     1      41.075 -15.661   2.927  1.00  0.00     0.102 A 
HETATM   20  C   UNL     1      40.472 -14.648   3.695  1.00  0.00     0.102 A 
HETATM   21  C   UNL     1      39.801 -13.605   3.051  1.00  0.00     0.040 A 
HETATM   22  C   UNL     1      39.730 -13.562   1.656  1.00  0.00     0.012 A 
BRANCH  19  23
HETATM   23  O   UNL     1      41.741 -16.638   3.621  1.00  0.00    -0.353 OA
HETATM   24  C   UNL     1      43.156 -16.679   3.506  1.00  0.00     0.210 C 
ENDBRANCH  19  23
BRANCH  20  25
HETATM   25  O   UNL     1      40.599 -14.768   5.054  1.00  0.00    -0.348 OA
BRANCH  25  26
HETATM   26  C   UNL     1      41.366 -13.785   5.748  1.00  0.00     0.175 C 
BRANCH  26  27
HETATM   27  C   UNL     1      42.394 -14.517   6.605  1.00  0.00     0.022 C 
HETATM   28  C   UNL     1      41.899 -15.887   7.037  1.00  0.00     0.007 C 
ENDBRANCH  26  27
ENDBRANCH  25  26
ENDBRANCH  20  25
ENDBRANCH   1  17
BRANCH  15  29
HETATM   29  O   UNL     1      40.032  -8.043  -4.154  1.00  0.00    -0.356 OA
HETATM   30  C   UNL     1      40.015  -8.431  -5.523  1.00  0.00     0.210 C 
ENDBRANCH  15  29
TORSDOF 6
ENDMDL
