MODEL 1
REMARK VINA RESULT:      -9.4      0.000      0.000
REMARK  7 active torsions:
REMARK  status: ('A' for Active; 'I' for Inactive)
REMARK    1  A    between atoms: C_4  and  C_5 
REMARK    2  A    between atoms: C_5  and  C_6 
REMARK    3  A    between atoms: C_6  and  C_7 
REMARK    4  A    between atoms: C_7  and  N_8 
REMARK    5  A    between atoms: C_12  and  O_13 
REMARK    6  A    between atoms: C_12  and  C_14 
REMARK    7  A    between atoms: C_19  and  C_20 
REMARK       I    between atoms: C_20  and  N_21 
ROOT
HETATM    1  C   UNL     1      40.759 -13.385   3.487  1.00  0.00    -0.023 A 
HETATM    2  C   UNL     1      42.122 -13.123   3.762  1.00  0.00     0.024 A 
HETATM    3  C   UNL     1      42.498 -12.422   4.928  1.00  0.00     0.001 A 
HETATM    4  C   UNL     1      41.508 -12.013   5.805  1.00  0.00     0.086 A 
HETATM    5  O   UNL     1      42.053 -11.363   6.870  1.00  0.00    -0.304 OA
HETATM    6  C   UNL     1      43.409 -11.338   6.688  1.00  0.00     0.144 A 
HETATM    7  C   UNL     1      43.719 -12.003   5.511  1.00  0.00     0.057 A 
HETATM    8  C   UNL     1      40.157 -12.269   5.612  1.00  0.00     0.039 A 
HETATM    9  C   UNL     1      39.808 -12.972   4.447  1.00  0.00     0.013 A 
ENDROOT
BRANCH   1  10
HETATM   10  C   UNL     1      40.336 -14.183   2.243  1.00  0.00     0.088 C 
HETATM   11  C   UNL     1      39.969 -15.657   2.501  1.00  0.00     0.071 C 
HETATM   12  C   UNL     1      41.177 -16.496   2.882  1.00  0.00     0.238 C 
HETATM   13  N   UNL     1      42.222 -16.433   1.790  1.00  0.00    -0.071 N 
HETATM   14  H   UNL     1      41.822 -16.857   0.941  1.00  0.00     0.279 HD
HETATM   15  C   UNL     1      42.601 -15.006   1.444  1.00  0.00     0.238 C 
HETATM   16  C   UNL     1      41.363 -14.202   1.092  1.00  0.00     0.071 C 
BRANCH  13  17
HETATM   17  C   UNL     1      43.482 -17.224   2.132  1.00  0.00     0.235 C 
BRANCH  17  18
HETATM   18  C   UNL     1      43.184 -18.364   3.109  1.00  0.00     0.038 C 
BRANCH  18  19
HETATM   19  C   UNL     1      44.186 -18.387   4.282  1.00  0.00     0.040 C 
HETATM   20  C   UNL     1      44.190 -19.760   4.957  1.00  0.00     0.017 C 
BRANCH  19  21
HETATM   21  C   UNL     1      43.879 -17.296   5.257  1.00  0.00     0.057 A 
HETATM   22  O   UNL     1      42.554 -17.107   5.525  1.00  0.00    -0.319 OA
HETATM   23  C   UNL     1      42.466 -16.083   6.419  1.00  0.00     0.049 A 
HETATM   24  C   UNL     1      41.104 -15.674   6.818  1.00  0.00     0.076 C 
HETATM   25  C   UNL     1      43.726 -15.640   6.756  1.00  0.00     0.035 A 
HETATM   26  C   UNL     1      44.638 -16.424   6.009  1.00  0.00     0.035 A 
ENDBRANCH  19  21
ENDBRANCH  18  19
ENDBRANCH  17  18
ENDBRANCH  13  17
BRANCH  10  27
HETATM   27  O   UNL     1      39.159 -13.564   1.716  1.00  0.00    -0.385 OA
HETATM   28  H   UNL     1      38.364 -13.975   2.101  1.00  0.00     0.211 HD
ENDBRANCH  10  27
ENDBRANCH   1  10
BRANCH   6  29
HETATM   29  C   UNL     1      44.310 -10.754   7.669  1.00  0.00     0.277 C 
HETATM   30  N   UNL     1      44.124  -9.446   8.148  1.00  0.00    -0.345 N 
HETATM   31  C   UNL     1      45.104  -8.939   9.115  1.00  0.00     0.154 C 
HETATM   32  C   UNL     1      42.975  -8.586   7.900  1.00  0.00     0.128 C 
HETATM   33  C   UNL     1      44.711  -9.212  10.571  1.00  0.00     0.254 C 
HETATM   34  N   UNL     1      43.347  -8.602  10.912  1.00  0.00    -0.073 N 
HETATM   35  H   UNL     1      43.339  -7.628  10.582  1.00  0.00     0.279 HD
HETATM   36  C   UNL     1      43.174  -8.522  12.412  1.00  0.00     0.269 C 
HETATM   37  C   UNL     1      42.196  -9.346  10.268  1.00  0.00     0.236 C 
HETATM   38  C   UNL     1      41.832  -8.804   8.889  1.00  0.00     0.048 C 
HETATM   39  O   UNL     1      45.264 -11.406   8.101  1.00  0.00    -0.265 OA
ENDBRANCH   6  29
TORSDOF 7
ENDMDL
MODEL 2
REMARK VINA RESULT:      -9.2      2.745      5.577
REMARK  7 active torsions:
REMARK  status: ('A' for Active; 'I' for Inactive)
REMARK    1  A    between atoms: C_4  and  C_5 
REMARK    2  A    between atoms: C_5  and  C_6 
REMARK    3  A    between atoms: C_6  and  C_7 
REMARK    4  A    between atoms: C_7  and  N_8 
REMARK    5  A    between atoms: C_12  and  O_13 
REMARK    6  A    between atoms: C_12  and  C_14 
REMARK    7  A    between atoms: C_19  and  C_20 
REMARK       I    between atoms: C_20  and  N_21 
ROOT
HETATM    1  C   UNL     1      44.282 -10.642   7.594  1.00  0.00    -0.023 A 
HETATM    2  C   UNL     1      43.197  -9.749   7.762  1.00  0.00     0.024 A 
HETATM    3  C   UNL     1      43.034  -9.036   8.969  1.00  0.00     0.001 A 
HETATM    4  C   UNL     1      43.966  -9.213   9.977  1.00  0.00     0.086 A 
HETATM    5  O   UNL     1      43.654  -8.445  11.056  1.00  0.00    -0.304 OA
HETATM    6  C   UNL     1      42.506  -7.764  10.760  1.00  0.00     0.144 A 
HETATM    7  C   UNL     1      42.109  -8.087   9.471  1.00  0.00     0.057 A 
HETATM    8  C   UNL     1      45.071 -10.046   9.863  1.00  0.00     0.039 A 
HETATM    9  C   UNL     1      45.215 -10.742   8.650  1.00  0.00     0.013 A 
ENDROOT
BRANCH   1  10
HETATM   10  C   UNL     1      44.497 -11.394   6.271  1.00  0.00     0.088 C 
HETATM   11  C   UNL     1      43.387 -11.203   5.218  1.00  0.00     0.071 C 
HETATM   12  C   UNL     1      42.084 -11.871   5.624  1.00  0.00     0.238 C 
HETATM   13  N   UNL     1      42.303 -13.351   5.846  1.00  0.00    -0.071 N 
HETATM   14  H   UNL     1      42.585 -13.770   4.948  1.00  0.00     0.279 HD
HETATM   15  C   UNL     1      43.419 -13.622   6.837  1.00  0.00     0.238 C 
HETATM   16  C   UNL     1      44.692 -12.919   6.403  1.00  0.00     0.071 C 
BRANCH  13  17
HETATM   17  C   UNL     1      41.037 -14.075   6.297  1.00  0.00     0.235 C 
BRANCH  17  18
HETATM   18  C   UNL     1      40.962 -15.491   5.725  1.00  0.00     0.038 C 
BRANCH  18  19
HETATM   19  C   UNL     1      41.597 -15.574   4.321  1.00  0.00     0.040 C 
HETATM   20  C   UNL     1      40.520 -15.807   3.259  1.00  0.00     0.017 C 
BRANCH  19  21
HETATM   21  C   UNL     1      42.648 -16.635   4.280  1.00  0.00     0.057 A 
HETATM   22  O   UNL     1      42.547 -17.519   3.245  1.00  0.00    -0.319 OA
HETATM   23  C   UNL     1      43.574 -18.405   3.369  1.00  0.00     0.049 A 
HETATM   24  C   UNL     1      43.630 -19.491   2.370  1.00  0.00     0.076 C 
HETATM   25  C   UNL     1      44.354 -18.074   4.455  1.00  0.00     0.035 A 
HETATM   26  C   UNL     1      43.760 -16.931   5.041  1.00  0.00     0.035 A 
ENDBRANCH  19  21
ENDBRANCH  18  19
ENDBRANCH  17  18
ENDBRANCH  13  17
BRANCH  10  27
HETATM   27  O   UNL     1      45.698 -10.889   5.682  1.00  0.00    -0.385 OA
HETATM   28  H   UNL     1      45.735 -11.129   4.737  1.00  0.00     0.211 HD
ENDBRANCH  10  27
ENDBRANCH   1  10
BRANCH   6  29
HETATM   29  C   UNL     1      41.912  -6.809  11.683  1.00  0.00     0.277 C 
HETATM   30  N   UNL     1      40.820  -7.159  12.496  1.00  0.00    -0.345 N 
HETATM   31  C   UNL     1      40.275  -6.116  13.374  1.00  0.00     0.154 C 
HETATM   32  C   UNL     1      40.260  -8.492  12.672  1.00  0.00     0.128 C 
HETATM   33  C   UNL     1      40.924  -6.097  14.762  1.00  0.00     0.254 C 
HETATM   34  N   UNL     1      40.773  -7.445  15.475  1.00  0.00    -0.073 N 
HETATM   35  H   UNL     1      39.790  -7.738  15.403  1.00  0.00     0.279 HD
HETATM   36  C   UNL     1      41.040  -7.283  16.954  1.00  0.00     0.269 C 
HETATM   37  C   UNL     1      41.651  -8.525  14.876  1.00  0.00     0.236 C 
HETATM   38  C   UNL     1      40.961  -9.303  13.759  1.00  0.00     0.048 C 
HETATM   39  O   UNL     1      42.363  -5.664  11.767  1.00  0.00    -0.265 OA
ENDBRANCH   6  29
TORSDOF 7
ENDMDL
MODEL 3
REMARK VINA RESULT:      -9.2      1.919      3.161
REMARK  7 active torsions:
REMARK  status: ('A' for Active; 'I' for Inactive)
REMARK    1  A    between atoms: C_4  and  C_5 
REMARK    2  A    between atoms: C_5  and  C_6 
REMARK    3  A    between atoms: C_6  and  C_7 
REMARK    4  A    between atoms: C_7  and  N_8 
REMARK    5  A    between atoms: C_12  and  O_13 
REMARK    6  A    between atoms: C_12  and  C_14 
REMARK    7  A    between atoms: C_19  and  C_20 
REMARK       I    between atoms: C_20  and  N_21 
ROOT
HETATM    1  C   UNL     1      41.648 -11.204   3.192  1.00  0.00    -0.023 A 
HETATM    2  C   UNL     1      41.262 -10.795   4.491  1.00  0.00     0.024 A 
HETATM    3  C   UNL     1      42.193 -10.803   5.552  1.00  0.00     0.001 A 
HETATM    4  C   UNL     1      43.494 -11.200   5.293  1.00  0.00     0.086 A 
HETATM    5  O   UNL     1      44.247 -11.137   6.425  1.00  0.00    -0.304 OA
HETATM    6  C   UNL     1      43.434 -10.705   7.437  1.00  0.00     0.144 A 
HETATM    7  C   UNL     1      42.166 -10.467   6.928  1.00  0.00     0.057 A 
HETATM    8  C   UNL     1      43.944 -11.577   4.035  1.00  0.00     0.039 A 
HETATM    9  C   UNL     1      43.001 -11.557   2.994  1.00  0.00     0.013 A 
ENDROOT
BRANCH   1  10
HETATM   10  C   UNL     1      40.657 -11.161   2.017  1.00  0.00     0.088 C 
HETATM   11  C   UNL     1      39.250 -11.709   2.324  1.00  0.00     0.071 C 
HETATM   12  C   UNL     1      39.250 -13.214   2.536  1.00  0.00     0.238 C 
HETATM   13  N   UNL     1      39.796 -13.915   1.313  1.00  0.00    -0.071 N 
HETATM   14  H   UNL     1      39.158 -13.726   0.526  1.00  0.00     0.279 HD
HETATM   15  C   UNL     1      41.164 -13.392   0.917  1.00  0.00     0.238 C 
HETATM   16  C   UNL     1      41.121 -11.886   0.737  1.00  0.00     0.071 C 
BRANCH  13  17
HETATM   17  C   UNL     1      39.861 -15.431   1.480  1.00  0.00     0.235 C 
BRANCH  17  18
HETATM   18  C   UNL     1      41.292 -15.911   1.728  1.00  0.00     0.038 C 
BRANCH  18  19
HETATM   19  C   UNL     1      41.496 -16.370   3.187  1.00  0.00     0.040 C 
HETATM   20  C   UNL     1      41.785 -15.169   4.091  1.00  0.00     0.017 C 
BRANCH  19  21
HETATM   21  C   UNL     1      42.582 -17.394   3.269  1.00  0.00     0.057 A 
HETATM   22  O   UNL     1      42.492 -18.414   2.366  1.00  0.00    -0.319 OA
HETATM   23  C   UNL     1      43.550 -19.243   2.589  1.00  0.00     0.049 A 
HETATM   24  C   UNL     1      43.625 -20.454   1.747  1.00  0.00     0.076 C 
HETATM   25  C   UNL     1      44.337 -18.742   3.602  1.00  0.00     0.035 A 
HETATM   26  C   UNL     1      43.715 -17.548   4.039  1.00  0.00     0.035 A 
ENDBRANCH  19  21
ENDBRANCH  18  19
ENDBRANCH  17  18
ENDBRANCH  13  17
BRANCH  10  27
HETATM   27  O   UNL     1      40.482  -9.788   1.656  1.00  0.00    -0.385 OA
HETATM   28  H   UNL     1      41.204  -9.502   1.066  1.00  0.00     0.211 HD
ENDBRANCH  10  27
ENDBRANCH   1  10
BRANCH   6  29
HETATM   29  C   UNL     1      43.931 -10.480   8.786  1.00  0.00     0.277 C 
HETATM   30  N   UNL     1      44.302  -9.198   9.226  1.00  0.00    -0.345 N 
HETATM   31  C   UNL     1      44.818  -9.080  10.595  1.00  0.00     0.154 C 
HETATM   32  C   UNL     1      44.091  -7.943   8.519  1.00  0.00     0.128 C 
HETATM   33  C   UNL     1      43.723  -8.797  11.629  1.00  0.00     0.254 C 
HETATM   34  N   UNL     1      42.953  -7.513  11.299  1.00  0.00    -0.073 N 
HETATM   35  H   UNL     1      43.637  -6.772  11.101  1.00  0.00     0.279 HD
HETATM   36  C   UNL     1      42.186  -7.042  12.513  1.00  0.00     0.269 C 
HETATM   37  C   UNL     1      42.039  -7.671  10.102  1.00  0.00     0.236 C 
HETATM   38  C   UNL     1      42.720  -7.323   8.782  1.00  0.00     0.048 C 
HETATM   39  O   UNL     1      44.037 -11.424   9.573  1.00  0.00    -0.265 OA
ENDBRANCH   6  29
TORSDOF 7
ENDMDL
MODEL 4
REMARK VINA RESULT:      -9.1      1.205      1.752
REMARK  7 active torsions:
REMARK  status: ('A' for Active; 'I' for Inactive)
REMARK    1  A    between atoms: C_4  and  C_5 
REMARK    2  A    between atoms: C_5  and  C_6 
REMARK    3  A    between atoms: C_6  and  C_7 
REMARK    4  A    between atoms: C_7  and  N_8 
REMARK    5  A    between atoms: C_12  and  O_13 
REMARK    6  A    between atoms: C_12  and  C_14 
REMARK    7  A    between atoms: C_19  and  C_20 
REMARK       I    between atoms: C_20  and  N_21 
ROOT
HETATM    1  C   UNL     1      41.735 -12.606   3.223  1.00  0.00    -0.023 A 
HETATM    2  C   UNL     1      41.383 -12.399   4.577  1.00  0.00     0.024 A 
HETATM    3  C   UNL     1      42.312 -11.847   5.485  1.00  0.00     0.001 A 
HETATM    4  C   UNL     1      43.566 -11.493   5.019  1.00  0.00     0.086 A 
HETATM    5  O   UNL     1      44.321 -10.973   6.025  1.00  0.00    -0.304 OA
HETATM    6  C   UNL     1      43.560 -10.992   7.163  1.00  0.00     0.144 A 
HETATM    7  C   UNL     1      42.307 -11.503   6.860  1.00  0.00     0.057 A 
HETATM    8  C   UNL     1      43.962 -11.637   3.696  1.00  0.00     0.039 A 
HETATM    9  C   UNL     1      43.019 -12.185   2.810  1.00  0.00     0.013 A 
ENDROOT
BRANCH   1  10
HETATM   10  C   UNL     1      40.721 -13.168   2.213  1.00  0.00     0.088 C 
HETATM   11  C   UNL     1      39.725 -14.196   2.785  1.00  0.00     0.071 C 
HETATM   12  C   UNL     1      40.396 -15.508   3.152  1.00  0.00     0.238 C 
HETATM   13  N   UNL     1      41.078 -16.104   1.941  1.00  0.00    -0.071 N 
HETATM   14  H   UNL     1      40.352 -16.326   1.244  1.00  0.00     0.279 HD
HETATM   15  C   UNL     1      42.041 -15.130   1.290  1.00  0.00     0.238 C 
HETATM   16  C   UNL     1      41.334 -13.829   0.961  1.00  0.00     0.071 C 
BRANCH  13  17
HETATM   17  C   UNL     1      41.808 -17.408   2.255  1.00  0.00     0.235 C 
BRANCH  17  18
HETATM   18  C   UNL     1      43.324 -17.252   2.119  1.00  0.00     0.038 C 
BRANCH  18  19
HETATM   19  C   UNL     1      44.084 -18.224   3.045  1.00  0.00     0.040 C 
HETATM   20  C   UNL     1      43.657 -19.668   2.774  1.00  0.00     0.017 C 
BRANCH  19  21
HETATM   21  C   UNL     1      43.883 -17.850   4.478  1.00  0.00     0.057 A 
HETATM   22  O   UNL     1      43.917 -16.512   4.744  1.00  0.00    -0.319 OA
HETATM   23  C   UNL     1      43.722 -16.362   6.084  1.00  0.00     0.049 A 
HETATM   24  C   UNL     1      43.769 -14.981   6.605  1.00  0.00     0.076 C 
HETATM   25  C   UNL     1      43.524 -17.591   6.673  1.00  0.00     0.035 A 
HETATM   26  C   UNL     1      43.625 -18.552   5.637  1.00  0.00     0.035 A 
ENDBRANCH  19  21
ENDBRANCH  18  19
ENDBRANCH  17  18
ENDBRANCH  13  17
BRANCH  10  27
HETATM   27  O   UNL     1      39.935 -12.070   1.740  1.00  0.00    -0.385 OA
HETATM   28  H   UNL     1      39.128 -12.400   1.304  1.00  0.00     0.211 HD
ENDBRANCH  10  27
ENDBRANCH   1  10
BRANCH   6  29
HETATM   29  C   UNL     1      44.046 -10.462   8.427  1.00  0.00     0.277 C 
HETATM   30  N   UNL     1      43.720  -9.161   8.850  1.00  0.00    -0.345 N 
HETATM   31  C   UNL     1      44.282  -8.710  10.128  1.00  0.00     0.154 C 
HETATM   32  C   UNL     1      42.759  -8.261   8.227  1.00  0.00     0.128 C 
HETATM   33  C   UNL     1      43.375  -9.010  11.326  1.00  0.00     0.254 C 
HETATM   34  N   UNL     1      41.992  -8.369  11.162  1.00  0.00    -0.073 N 
HETATM   35  H   UNL     1      42.125  -7.387  10.887  1.00  0.00     0.279 HD
HETATM   36  C   UNL     1      41.279  -8.324  12.494  1.00  0.00     0.269 C 
HETATM   37  C   UNL     1      41.147  -9.060  10.112  1.00  0.00     0.236 C 
HETATM   38  C   UNL     1      41.328  -8.471   8.717  1.00  0.00     0.048 C 
HETATM   39  O   UNL     1      44.762 -11.153   9.156  1.00  0.00    -0.265 OA
ENDBRANCH   6  29
TORSDOF 7
ENDMDL
MODEL 5
REMARK VINA RESULT:      -9.0      2.800      5.535
REMARK  7 active torsions:
REMARK  status: ('A' for Active; 'I' for Inactive)
REMARK    1  A    between atoms: C_4  and  C_5 
REMARK    2  A    between atoms: C_5  and  C_6 
REMARK    3  A    between atoms: C_6  and  C_7 
REMARK    4  A    between atoms: C_7  and  N_8 
REMARK    5  A    between atoms: C_12  and  O_13 
REMARK    6  A    between atoms: C_12  and  C_14 
REMARK    7  A    between atoms: C_19  and  C_20 
REMARK       I    between atoms: C_20  and  N_21 
ROOT
HETATM    1  C   UNL     1      43.651 -10.500   7.602  1.00  0.00    -0.023 A 
HETATM    2  C   UNL     1      43.877 -10.834   8.958  1.00  0.00     0.024 A 
HETATM    3  C   UNL     1      43.108 -10.239   9.982  1.00  0.00     0.001 A 
HETATM    4  C   UNL     1      42.117  -9.338   9.630  1.00  0.00     0.086 A 
HETATM    5  O   UNL     1      41.478  -8.875  10.739  1.00  0.00    -0.304 OA
HETATM    6  C   UNL     1      42.057  -9.469  11.827  1.00  0.00     0.144 A 
HETATM    7  C   UNL     1      43.051 -10.334  11.394  1.00  0.00     0.057 A 
HETATM    8  C   UNL     1      41.822  -8.995   8.318  1.00  0.00     0.039 A 
HETATM    9  C   UNL     1      42.597  -9.604   7.316  1.00  0.00     0.013 A 
ENDROOT
BRANCH   1  10
HETATM   10  C   UNL     1      44.451 -11.171   6.473  1.00  0.00     0.088 C 
HETATM   11  C   UNL     1      43.798 -11.111   5.078  1.00  0.00     0.071 C 
HETATM   12  C   UNL     1      42.552 -11.976   4.987  1.00  0.00     0.238 C 
HETATM   13  N   UNL     1      42.888 -13.414   5.313  1.00  0.00    -0.071 N 
HETATM   14  H   UNL     1      43.543 -13.759   4.594  1.00  0.00     0.279 HD
HETATM   15  C   UNL     1      43.582 -13.549   6.654  1.00  0.00     0.238 C 
HETATM   16  C   UNL     1      44.806 -12.654   6.708  1.00  0.00     0.071 C 
BRANCH  13  17
HETATM   17  C   UNL     1      41.667 -14.329   5.278  1.00  0.00     0.235 C 
BRANCH  17  18
HETATM   18  C   UNL     1      41.667 -15.222   4.035  1.00  0.00     0.038 C 
BRANCH  18  19
HETATM   19  C   UNL     1      43.096 -15.472   3.511  1.00  0.00     0.040 C 
HETATM   20  C   UNL     1      43.198 -15.097   2.031  1.00  0.00     0.017 C 
BRANCH  19  21
HETATM   21  C   UNL     1      43.503 -16.890   3.748  1.00  0.00     0.057 A 
HETATM   22  O   UNL     1      43.294 -17.741   2.701  1.00  0.00    -0.319 OA
HETATM   23  C   UNL     1      43.715 -18.975   3.094  1.00  0.00     0.049 A 
HETATM   24  C   UNL     1      43.536 -20.072   2.121  1.00  0.00     0.076 C 
HETATM   25  C   UNL     1      44.227 -18.915   4.371  1.00  0.00     0.035 A 
HETATM   26  C   UNL     1      44.094 -17.570   4.792  1.00  0.00     0.035 A 
ENDBRANCH  19  21
ENDBRANCH  18  19
ENDBRANCH  17  18
ENDBRANCH  13  17
BRANCH  10  27
HETATM   27  O   UNL     1      45.697 -10.476   6.361  1.00  0.00    -0.385 OA
HETATM   28  H   UNL     1      46.395 -11.087   6.059  1.00  0.00     0.211 HD
ENDBRANCH  10  27
ENDBRANCH   1  10
BRANCH   6  29
HETATM   29  C   UNL     1      41.584  -9.231  13.182  1.00  0.00     0.277 C 
HETATM   30  N   UNL     1      42.153  -8.233  13.992  1.00  0.00    -0.345 N 
HETATM   31  C   UNL     1      41.624  -8.090  15.353  1.00  0.00     0.154 C 
HETATM   32  C   UNL     1      43.115  -7.222  13.577  1.00  0.00     0.128 C 
HETATM   33  C   UNL     1      40.465  -7.092  15.448  1.00  0.00     0.254 C 
HETATM   34  N   UNL     1      40.874  -5.702  14.949  1.00  0.00    -0.073 N 
HETATM   35  H   UNL     1      41.767  -5.452  15.393  1.00  0.00     0.279 HD
HETATM   36  C   UNL     1      39.882  -4.666  15.425  1.00  0.00     0.269 C 
HETATM   37  C   UNL     1      41.043  -5.647  13.445  1.00  0.00     0.236 C 
HETATM   38  C   UNL     1      42.463  -5.971  12.991  1.00  0.00     0.048 C 
HETATM   39  O   UNL     1      40.665  -9.910  13.647  1.00  0.00    -0.265 OA
ENDBRANCH   6  29
TORSDOF 7
ENDMDL
MODEL 6
REMARK VINA RESULT:      -8.5      2.818      5.320
REMARK  7 active torsions:
REMARK  status: ('A' for Active; 'I' for Inactive)
REMARK    1  A    between atoms: C_4  and  C_5 
REMARK    2  A    between atoms: C_5  and  C_6 
REMARK    3  A    between atoms: C_6  and  C_7 
REMARK    4  A    between atoms: C_7  and  N_8 
REMARK    5  A    between atoms: C_12  and  O_13 
REMARK    6  A    between atoms: C_12  and  C_14 
REMARK    7  A    between atoms: C_19  and  C_20 
REMARK       I    between atoms: C_20  and  N_21 
ROOT
HETATM    1  C   UNL     1      42.396 -10.251   6.894  1.00  0.00    -0.023 A 
HETATM    2  C   UNL     1      41.173  -9.808   7.452  1.00  0.00     0.024 A 
HETATM    3  C   UNL     1      41.157  -9.071   8.655  1.00  0.00     0.001 A 
HETATM    4  C   UNL     1      42.363  -8.773   9.267  1.00  0.00     0.086 A 
HETATM    5  O   UNL     1      42.156  -8.054  10.405  1.00  0.00    -0.304 OA
HETATM    6  C   UNL     1      40.805  -7.885  10.546  1.00  0.00     0.144 A 
HETATM    7  C   UNL     1      40.161  -8.480   9.471  1.00  0.00     0.057 A 
HETATM    8  C   UNL     1      43.597  -9.146   8.754  1.00  0.00     0.039 A 
HETATM    9  C   UNL     1      43.588  -9.875   7.553  1.00  0.00     0.013 A 
ENDROOT
BRANCH   1  10
HETATM   10  C   UNL     1      42.432 -11.019   5.563  1.00  0.00     0.088 C 
HETATM   11  C   UNL     1      41.240 -11.964   5.316  1.00  0.00     0.071 C 
HETATM   12  C   UNL     1      41.255 -13.166   6.246  1.00  0.00     0.238 C 
HETATM   13  N   UNL     1      42.542 -13.942   6.078  1.00  0.00    -0.071 N 
HETATM   14  H   UNL     1      42.569 -14.310   5.116  1.00  0.00     0.279 HD
HETATM   15  C   UNL     1      43.766 -13.064   6.257  1.00  0.00     0.238 C 
HETATM   16  C   UNL     1      43.698 -11.868   5.326  1.00  0.00     0.071 C 
BRANCH  13  17
HETATM   17  C   UNL     1      42.636 -15.142   7.017  1.00  0.00     0.235 C 
BRANCH  17  18
HETATM   18  C   UNL     1      42.208 -16.436   6.322  1.00  0.00     0.038 C 
BRANCH  18  19
HETATM   19  C   UNL     1      43.424 -17.279   5.885  1.00  0.00     0.040 C 
HETATM   20  C   UNL     1      44.728 -16.596   6.302  1.00  0.00     0.017 C 
BRANCH  19  21
HETATM   21  C   UNL     1      43.384 -17.537   4.413  1.00  0.00     0.057 A 
HETATM   22  O   UNL     1      43.569 -18.837   4.042  1.00  0.00    -0.319 OA
HETATM   23  C   UNL     1      43.505 -18.882   2.682  1.00  0.00     0.049 A 
HETATM   24  C   UNL     1      43.729 -20.200   2.056  1.00  0.00     0.076 C 
HETATM   25  C   UNL     1      43.242 -17.626   2.181  1.00  0.00     0.035 A 
HETATM   26  C   UNL     1      43.161 -16.759   3.297  1.00  0.00     0.035 A 
ENDBRANCH  19  21
ENDBRANCH  18  19
ENDBRANCH  17  18
ENDBRANCH  13  17
BRANCH  10  27
HETATM   27  O   UNL     1      42.399 -10.051   4.510  1.00  0.00    -0.385 OA
HETATM   28  H   UNL     1      43.280  -9.648   4.397  1.00  0.00     0.211 HD
ENDBRANCH  10  27
ENDBRANCH   1  10
BRANCH   6  29
HETATM   29  C   UNL     1      40.232  -7.117  11.640  1.00  0.00     0.277 C 
HETATM   30  N   UNL     1      39.957  -7.709  12.885  1.00  0.00    -0.345 N 
HETATM   31  C   UNL     1      39.352  -6.856  13.915  1.00  0.00     0.154 C 
HETATM   32  C   UNL     1      40.344  -9.045  13.315  1.00  0.00     0.128 C 
HETATM   33  C   UNL     1      40.388  -6.161  14.805  1.00  0.00     0.254 C 
HETATM   34  N   UNL     1      41.304  -7.173  15.503  1.00  0.00    -0.073 N 
HETATM   35  H   UNL     1      40.714  -7.903  15.924  1.00  0.00     0.279 HD
HETATM   36  C   UNL     1      42.019  -6.515  16.661  1.00  0.00     0.269 C 
HETATM   37  C   UNL     1      42.286  -7.825  14.553  1.00  0.00     0.236 C 
HETATM   38  C   UNL     1      41.745  -9.104  13.920  1.00  0.00     0.048 C 
HETATM   39  O   UNL     1      39.974  -5.920  11.490  1.00  0.00    -0.265 OA
ENDBRANCH   6  29
TORSDOF 7
ENDMDL
MODEL 7
REMARK VINA RESULT:      -8.4      2.363      8.278
REMARK  7 active torsions:
REMARK  status: ('A' for Active; 'I' for Inactive)
REMARK    1  A    between atoms: C_4  and  C_5 
REMARK    2  A    between atoms: C_5  and  C_6 
REMARK    3  A    between atoms: C_6  and  C_7 
REMARK    4  A    between atoms: C_7  and  N_8 
REMARK    5  A    between atoms: C_12  and  O_13 
REMARK    6  A    between atoms: C_12  and  C_14 
REMARK    7  A    between atoms: C_19  and  C_20 
REMARK       I    between atoms: C_20  and  N_21 
ROOT
HETATM    1  C   UNL     1      39.577  -8.547   7.324  1.00  0.00    -0.023 A 
HETATM    2  C   UNL     1      39.467  -9.953   7.433  1.00  0.00     0.024 A 
HETATM    3  C   UNL     1      39.957 -10.793   6.409  1.00  0.00     0.001 A 
HETATM    4  C   UNL     1      40.564 -10.214   5.308  1.00  0.00     0.086 A 
HETATM    5  O   UNL     1      40.978 -11.170   4.433  1.00  0.00    -0.304 OA
HETATM    6  C   UNL     1      40.635 -12.386   4.958  1.00  0.00     0.144 A 
HETATM    7  C   UNL     1      40.024 -12.191   6.188  1.00  0.00     0.057 A 
HETATM    8  C   UNL     1      40.735  -8.844   5.157  1.00  0.00     0.039 A 
HETATM    9  C   UNL     1      40.243  -8.029   6.192  1.00  0.00     0.013 A 
ENDROOT
BRANCH   1  10
HETATM   10  C   UNL     1      39.087  -7.621   8.449  1.00  0.00     0.088 C 
HETATM   11  C   UNL     1      40.073  -6.512   8.866  1.00  0.00     0.071 C 
HETATM   12  C   UNL     1      41.298  -7.065   9.575  1.00  0.00     0.238 C 
HETATM   13  N   UNL     1      40.883  -7.843  10.804  1.00  0.00    -0.071 N 
HETATM   14  H   UNL     1      40.431  -7.187  11.459  1.00  0.00     0.279 HD
HETATM   15  C   UNL     1      39.870  -8.924  10.482  1.00  0.00     0.238 C 
HETATM   16  C   UNL     1      38.677  -8.331   9.756  1.00  0.00     0.071 C 
BRANCH  13  17
HETATM   17  C   UNL     1      42.069  -8.460  11.541  1.00  0.00     0.235 C 
BRANCH  17  18
HETATM   18  C   UNL     1      42.279  -9.923  11.145  1.00  0.00     0.038 C 
BRANCH  18  19
HETATM   19  C   UNL     1      43.733 -10.193  10.705  1.00  0.00     0.040 C 
HETATM   20  C   UNL     1      44.667  -9.107  11.244  1.00  0.00     0.017 C 
BRANCH  19  21
HETATM   21  C   UNL     1      43.820 -10.304   9.217  1.00  0.00     0.057 A 
HETATM   22  O   UNL     1      44.966 -10.873   8.739  1.00  0.00    -0.319 OA
HETATM   23  C   UNL     1      44.872 -10.888   7.381  1.00  0.00     0.049 A 
HETATM   24  C   UNL     1      46.037 -11.424   6.647  1.00  0.00     0.076 C 
HETATM   25  C   UNL     1      43.660 -10.368   6.985  1.00  0.00     0.035 A 
HETATM   26  C   UNL     1      42.979  -9.994   8.169  1.00  0.00     0.035 A 
ENDBRANCH  19  21
ENDBRANCH  18  19
ENDBRANCH  17  18
ENDBRANCH  13  17
BRANCH  10  27
HETATM   27  O   UNL     1      37.914  -6.954   7.974  1.00  0.00    -0.385 OA
HETATM   28  H   UNL     1      37.900  -6.033   8.291  1.00  0.00     0.211 HD
ENDBRANCH  10  27
ENDBRANCH   1  10
BRANCH   6  29
HETATM   29  C   UNL     1      40.973 -13.637   4.298  1.00  0.00     0.277 C 
HETATM   30  N   UNL     1      42.273 -14.168   4.354  1.00  0.00    -0.345 N 
HETATM   31  C   UNL     1      42.519 -15.421   3.631  1.00  0.00     0.154 C 
HETATM   32  C   UNL     1      43.373 -13.685   5.177  1.00  0.00     0.128 C 
HETATM   33  C   UNL     1      42.291 -16.668   4.492  1.00  0.00     0.254 C 
HETATM   34  N   UNL     1      43.176 -16.660   5.744  1.00  0.00    -0.073 N 
HETATM   35  H   UNL     1      44.137 -16.438   5.456  1.00  0.00     0.279 HD
HETATM   36  C   UNL     1      43.242 -18.046   6.343  1.00  0.00     0.269 C 
HETATM   37  C   UNL     1      42.726 -15.642   6.771  1.00  0.00     0.236 C 
HETATM   38  C   UNL     1      43.380 -14.276   6.585  1.00  0.00     0.048 C 
HETATM   39  O   UNL     1      40.112 -14.260   3.670  1.00  0.00    -0.265 OA
ENDBRANCH   6  29
TORSDOF 7
ENDMDL
MODEL 8
REMARK VINA RESULT:      -8.3      1.848      2.203
REMARK  7 active torsions:
REMARK  status: ('A' for Active; 'I' for Inactive)
REMARK    1  A    between atoms: C_4  and  C_5 
REMARK    2  A    between atoms: C_5  and  C_6 
REMARK    3  A    between atoms: C_6  and  C_7 
REMARK    4  A    between atoms: C_7  and  N_8 
REMARK    5  A    between atoms: C_12  and  O_13 
REMARK    6  A    between atoms: C_12  and  C_14 
REMARK    7  A    between atoms: C_19  and  C_20 
REMARK       I    between atoms: C_20  and  N_21 
ROOT
HETATM    1  C   UNL     1      40.169 -12.641   3.546  1.00  0.00    -0.023 A 
HETATM    2  C   UNL     1      40.947 -11.460   3.576  1.00  0.00     0.024 A 
HETATM    3  C   UNL     1      41.184 -10.787   4.793  1.00  0.00     0.001 A 
HETATM    4  C   UNL     1      40.657 -11.317   5.959  1.00  0.00     0.086 A 
HETATM    5  O   UNL     1      40.991 -10.544   7.028  1.00  0.00    -0.304 OA
HETATM    6  C   UNL     1      41.737  -9.495   6.563  1.00  0.00     0.144 A 
HETATM    7  C   UNL     1      41.895  -9.628   5.191  1.00  0.00     0.057 A 
HETATM    8  C   UNL     1      39.916 -12.489   6.003  1.00  0.00     0.039 A 
HETATM    9  C   UNL     1      39.697 -13.144   4.778  1.00  0.00     0.013 A 
ENDROOT
BRANCH   1  10
HETATM   10  C   UNL     1      39.936 -13.408   2.234  1.00  0.00     0.088 C 
HETATM   11  C   UNL     1      39.669 -14.918   2.393  1.00  0.00     0.071 C 
HETATM   12  C   UNL     1      40.900 -15.677   2.858  1.00  0.00     0.238 C 
HETATM   13  N   UNL     1      42.037 -15.478   1.880  1.00  0.00    -0.071 N 
HETATM   14  H   UNL     1      41.757 -15.890   0.978  1.00  0.00     0.279 HD
HETATM   15  C   UNL     1      42.328 -14.011   1.632  1.00  0.00     0.238 C 
HETATM   16  C   UNL     1      41.068 -13.290   1.192  1.00  0.00     0.071 C 
BRANCH  13  17
HETATM   17  C   UNL     1      43.319 -16.185   2.314  1.00  0.00     0.235 C 
BRANCH  17  18
HETATM   18  C   UNL     1      43.022 -17.406   3.186  1.00  0.00     0.038 C 
BRANCH  18  19
HETATM   19  C   UNL     1      43.830 -17.380   4.500  1.00  0.00     0.040 C 
HETATM   20  C   UNL     1      43.972 -18.792   5.071  1.00  0.00     0.017 C 
BRANCH  19  21
HETATM   21  C   UNL     1      43.202 -16.448   5.486  1.00  0.00     0.057 A 
HETATM   22  O   UNL     1      43.804 -15.228   5.604  1.00  0.00    -0.319 OA
HETATM   23  C   UNL     1      43.107 -14.524   6.537  1.00  0.00     0.049 A 
HETATM   24  C   UNL     1      43.618 -13.176   6.861  1.00  0.00     0.076 C 
HETATM   25  C   UNL     1      42.040 -15.267   6.991  1.00  0.00     0.035 A 
HETATM   26  C   UNL     1      42.099 -16.508   6.312  1.00  0.00     0.035 A 
ENDBRANCH  19  21
ENDBRANCH  18  19
ENDBRANCH  17  18
ENDBRANCH  13  17
BRANCH  10  27
HETATM   27  O   UNL     1      38.769 -12.858   1.617  1.00  0.00    -0.385 OA
HETATM   28  H   UNL     1      38.372 -13.509   1.010  1.00  0.00     0.211 HD
ENDBRANCH  10  27
ENDBRANCH   1  10
BRANCH   6  29
HETATM   29  C   UNL     1      42.302  -8.493   7.452  1.00  0.00     0.277 C 
HETATM   30  N   UNL     1      41.543  -7.396   7.896  1.00  0.00    -0.345 N 
HETATM   31  C   UNL     1      42.213  -6.425   8.769  1.00  0.00     0.154 C 
HETATM   32  C   UNL     1      40.114  -7.195   7.704  1.00  0.00     0.128 C 
HETATM   33  C   UNL     1      42.068  -6.753  10.259  1.00  0.00     0.254 C 
HETATM   34  N   UNL     1      40.595  -6.833  10.679  1.00  0.00    -0.073 N 
HETATM   35  H   UNL     1      40.113  -6.001  10.315  1.00  0.00     0.279 HD
HETATM   36  C   UNL     1      40.479  -6.743  12.183  1.00  0.00     0.269 C 
HETATM   37  C   UNL     1      39.903  -8.071  10.149  1.00  0.00     0.236 C 
HETATM   38  C   UNL     1      39.259  -7.857   8.783  1.00  0.00     0.048 C 
HETATM   39  O   UNL     1      43.471  -8.590   7.835  1.00  0.00    -0.265 OA
ENDBRANCH   6  29
TORSDOF 7
ENDMDL
MODEL 9
REMARK VINA RESULT:      -8.2      2.873      9.013
REMARK  7 active torsions:
REMARK  status: ('A' for Active; 'I' for Inactive)
REMARK    1  A    between atoms: C_4  and  C_5 
REMARK    2  A    between atoms: C_5  and  C_6 
REMARK    3  A    between atoms: C_6  and  C_7 
REMARK    4  A    between atoms: C_7  and  N_8 
REMARK    5  A    between atoms: C_12  and  O_13 
REMARK    6  A    between atoms: C_12  and  C_14 
REMARK    7  A    between atoms: C_19  and  C_20 
REMARK       I    between atoms: C_20  and  N_21 
ROOT
HETATM    1  C   UNL     1      39.303  -8.005   9.968  1.00  0.00    -0.023 A 
HETATM    2  C   UNL     1      39.098  -9.291   9.414  1.00  0.00     0.024 A 
HETATM    3  C   UNL     1      39.294  -9.518   8.035  1.00  0.00     0.001 A 
HETATM    4  C   UNL     1      39.709  -8.463   7.240  1.00  0.00     0.086 A 
HETATM    5  O   UNL     1      39.852  -8.866   5.948  1.00  0.00    -0.304 OA
HETATM    6  C   UNL     1      39.523 -10.193   5.891  1.00  0.00     0.144 A 
HETATM    7  C   UNL     1      39.196 -10.632   7.166  1.00  0.00     0.057 A 
HETATM    8  C   UNL     1      39.961  -7.188   7.727  1.00  0.00     0.039 A 
HETATM    9  C   UNL     1      39.764  -6.987   9.104  1.00  0.00     0.013 A 
ENDROOT
BRANCH   1  10
HETATM   10  C   UNL     1      39.134  -7.751  11.475  1.00  0.00     0.088 C 
HETATM   11  C   UNL     1      40.029  -6.640  12.060  1.00  0.00     0.071 C 
HETATM   12  C   UNL     1      41.497  -7.033  12.081  1.00  0.00     0.238 C 
HETATM   13  N   UNL     1      41.688  -8.296  12.890  1.00  0.00    -0.071 N 
HETATM   14  H   UNL     1      41.420  -8.094  13.865  1.00  0.00     0.279 HD
HETATM   15  C   UNL     1      40.801  -9.426  12.405  1.00  0.00     0.238 C 
HETATM   16  C   UNL     1      39.350  -8.983  12.379  1.00  0.00     0.071 C 
BRANCH  13  17
HETATM   17  C   UNL     1      43.141  -8.766  12.916  1.00  0.00     0.235 C 
BRANCH  17  18
HETATM   18  C   UNL     1      43.790  -8.666  11.535  1.00  0.00     0.038 C 
BRANCH  18  19
HETATM   19  C   UNL     1      43.686  -9.994  10.756  1.00  0.00     0.040 C 
HETATM   20  C   UNL     1      43.948 -11.182  11.685  1.00  0.00     0.017 C 
BRANCH  19  21
HETATM   21  C   UNL     1      44.617  -9.993   9.588  1.00  0.00     0.057 A 
HETATM   22  O   UNL     1      44.413 -10.988   8.676  1.00  0.00    -0.319 OA
HETATM   23  C   UNL     1      45.344 -10.834   7.695  1.00  0.00     0.049 A 
HETATM   24  C   UNL     1      45.337 -11.843   6.616  1.00  0.00     0.076 C 
HETATM   25  C   UNL     1      46.121  -9.726   7.950  1.00  0.00     0.035 A 
HETATM   26  C   UNL     1      45.651  -9.181   9.170  1.00  0.00     0.035 A 
ENDBRANCH  19  21
ENDBRANCH  18  19
ENDBRANCH  17  18
ENDBRANCH  13  17
BRANCH  10  27
HETATM   27  O   UNL     1      37.784  -7.331  11.690  1.00  0.00    -0.385 OA
HETATM   28  H   UNL     1      37.166  -7.982  11.307  1.00  0.00     0.211 HD
ENDBRANCH  10  27
ENDBRANCH   1  10
BRANCH   6  29
HETATM   29  C   UNL     1      39.610 -10.960   4.658  1.00  0.00     0.277 C 
HETATM   30  N   UNL     1      40.761 -11.698   4.335  1.00  0.00    -0.345 N 
HETATM   31  C   UNL     1      40.761 -12.416   3.054  1.00  0.00     0.154 C 
HETATM   32  C   UNL     1      41.903 -11.951   5.203  1.00  0.00     0.128 C 
HETATM   33  C   UNL     1      40.231 -13.849   3.167  1.00  0.00     0.254 C 
HETATM   34  N   UNL     1      41.042 -14.673   4.174  1.00  0.00    -0.073 N 
HETATM   35  H   UNL     1      42.040 -14.540   3.968  1.00  0.00     0.279 HD
HETATM   36  C   UNL     1      40.781 -16.148   3.968  1.00  0.00     0.269 C 
HETATM   37  C   UNL     1      40.779 -14.267   5.609  1.00  0.00     0.236 C 
HETATM   38  C   UNL     1      41.721 -13.172   6.101  1.00  0.00     0.048 C 
HETATM   39  O   UNL     1      38.663 -10.973   3.867  1.00  0.00    -0.265 OA
ENDBRANCH   6  29
TORSDOF 7
ENDMDL
MODEL 10
REMARK VINA RESULT:      -8.2      3.791      8.551
REMARK  7 active torsions:
REMARK  status: ('A' for Active; 'I' for Inactive)
REMARK    1  A    between atoms: C_4  and  C_5 
REMARK    2  A    between atoms: C_5  and  C_6 
REMARK    3  A    between atoms: C_6  and  C_7 
REMARK    4  A    between atoms: C_7  and  N_8 
REMARK    5  A    between atoms: C_12  and  O_13 
REMARK    6  A    between atoms: C_12  and  C_14 
REMARK    7  A    between atoms: C_19  and  C_20 
REMARK       I    between atoms: C_20  and  N_21 
ROOT
HETATM    1  C   UNL     1      40.605 -14.980   3.648  1.00  0.00    -0.023 A 
HETATM    2  C   UNL     1      40.661 -13.673   3.107  1.00  0.00     0.024 A 
HETATM    3  C   UNL     1      40.521 -13.464   1.718  1.00  0.00     0.001 A 
HETATM    4  C   UNL     1      40.308 -14.560   0.900  1.00  0.00     0.086 A 
HETATM    5  O   UNL     1      40.189 -14.169  -0.399  1.00  0.00    -0.304 OA
HETATM    6  C   UNL     1      40.333 -12.809  -0.436  1.00  0.00     0.144 A 
HETATM    7  C   UNL     1      40.515 -12.339   0.857  1.00  0.00     0.057 A 
HETATM    8  C   UNL     1      40.207 -15.862   1.370  1.00  0.00     0.039 A 
HETATM    9  C   UNL     1      40.346 -16.044   2.757  1.00  0.00     0.013 A 
ENDROOT
BRANCH   1  10
HETATM   10  C   UNL     1      40.715 -15.220   5.163  1.00  0.00     0.088 C 
HETATM   11  C   UNL     1      40.121 -14.107   6.049  1.00  0.00     0.071 C 
HETATM   12  C   UNL     1      40.933 -12.824   5.986  1.00  0.00     0.238 C 
HETATM   13  N   UNL     1      42.360 -13.086   6.414  1.00  0.00    -0.071 N 
HETATM   14  H   UNL     1      42.348 -13.382   7.401  1.00  0.00     0.279 HD
HETATM   15  C   UNL     1      42.998 -14.207   5.617  1.00  0.00     0.238 C 
HETATM   16  C   UNL     1      42.144 -15.459   5.690  1.00  0.00     0.071 C 
BRANCH  13  17
HETATM   17  C   UNL     1      43.239 -11.841   6.333  1.00  0.00     0.235 C 
BRANCH  17  18
HETATM   18  C   UNL     1      44.448 -11.943   7.265  1.00  0.00     0.038 C 
BRANCH  18  19
HETATM   19  C   UNL     1      45.067 -10.559   7.552  1.00  0.00     0.040 C 
HETATM   20  C   UNL     1      46.593 -10.628   7.476  1.00  0.00     0.017 C 
BRANCH  19  21
HETATM   21  C   UNL     1      44.605 -10.040   8.875  1.00  0.00     0.057 A 
HETATM   22  O   UNL     1      44.356 -10.992   9.822  1.00  0.00    -0.319 OA
HETATM   23  C   UNL     1      43.946 -10.344  10.947  1.00  0.00     0.049 A 
HETATM   24  C   UNL     1      43.574 -11.193  12.097  1.00  0.00     0.076 C 
HETATM   25  C   UNL     1      43.966  -8.982  10.742  1.00  0.00     0.035 A 
HETATM   26  C   UNL     1      44.394  -8.785   9.406  1.00  0.00     0.035 A 
ENDBRANCH  19  21
ENDBRANCH  18  19
ENDBRANCH  17  18
ENDBRANCH  13  17
BRANCH  10  27
HETATM   27  O   UNL     1      39.975 -16.407   5.462  1.00  0.00    -0.385 OA
HETATM   28  H   UNL     1      39.373 -16.246   6.212  1.00  0.00     0.211 HD
ENDBRANCH  10  27
ENDBRANCH   1  10
BRANCH   6  29
HETATM   29  C   UNL     1      40.215 -12.052  -1.672  1.00  0.00     0.277 C 
HETATM   30  N   UNL     1      38.987 -11.503  -2.080  1.00  0.00    -0.345 N 
HETATM   31  C   UNL     1      38.966 -10.780  -3.357  1.00  0.00     0.154 C 
HETATM   32  C   UNL     1      37.759 -11.446  -1.300  1.00  0.00     0.128 C 
HETATM   33  C   UNL     1      39.250  -9.281  -3.206  1.00  0.00     0.254 C 
HETATM   34  N   UNL     1      38.246  -8.609  -2.262  1.00  0.00    -0.073 N 
HETATM   35  H   UNL     1      37.300  -8.898  -2.542  1.00  0.00     0.279 HD
HETATM   36  C   UNL     1      38.282  -7.110  -2.449  1.00  0.00     0.269 C 
HETATM   37  C   UNL     1      38.464  -8.985  -0.812  1.00  0.00     0.236 C 
HETATM   38  C   UNL     1      37.676 -10.222  -0.391  1.00  0.00     0.048 C 
HETATM   39  O   UNL     1      41.203 -11.878  -2.390  1.00  0.00    -0.265 OA
ENDBRANCH   6  29
TORSDOF 7
ENDMDL
