MODEL 1
REMARK VINA RESULT:      -9.5      0.000      0.000
REMARK  6 active torsions:
REMARK  status: ('A' for Active; 'I' for Inactive)
REMARK    1  A    between atoms: O_2  and  C_3 
REMARK    2  A    between atoms: C_5  and  C_6 
REMARK    3  A    between atoms: C_12  and  C_13 
REMARK       I    between atoms: C_13  and  N_14 
REMARK    4  A    between atoms: N_14  and  C_15 
REMARK    5  A    between atoms: C_17  and  O_18 
REMARK    6  A    between atoms: C_23  and  C_24 
ROOT
HETATM    1  C   UNL     1      41.371 -15.755   4.857  1.00  0.00     0.118 C 
HETATM    2  N   UNL     1      40.869 -14.769   3.876  1.00  0.00    -0.365 N 
HETATM    3  C   UNL     1      41.679 -13.723   3.533  1.00  0.00     0.138 A 
HETATM    4  N   UNL     1      42.780 -13.400   4.293  1.00  0.00    -0.240 N 
HETATM    5  N   UNL     1      43.506 -12.395   3.786  1.00  0.00    -0.181 NA
HETATM    6  C   UNL     1      42.802 -12.012   2.718  1.00  0.00     0.160 A 
HETATM    7  C   UNL     1      41.646 -12.804   2.500  1.00  0.00     0.096 A 
HETATM    8  C   UNL     1      43.160 -14.076   5.520  1.00  0.00     0.221 C 
HETATM    9  C   UNL     1      42.002 -14.967   6.017  1.00  0.00     0.066 C 
HETATM   10  H   UNL     1      39.879 -14.556   4.019  1.00  0.00     0.161 HD
ENDROOT
BRANCH   7  11
HETATM   11  C   UNL     1      40.699 -12.655   1.406  1.00  0.00     0.261 C 
HETATM   12  N   UNL     1      41.008 -13.419   0.297  1.00  0.00    -0.323 N 
HETATM   13  H   UNL     1      41.896 -13.909   0.348  1.00  0.00     0.169 HD
HETATM   14  O   UNL     1      39.738 -11.904   1.516  1.00  0.00    -0.267 OA
BRANCH  12  15
HETATM   15  C   UNL     1      40.255 -13.586  -0.881  1.00  0.00     0.037 A 
HETATM   16  C   UNL     1      39.533 -14.742  -1.185  1.00  0.00     0.066 A 
HETATM   17  C   UNL     1      38.836 -14.827  -2.390  1.00  0.00     0.067 A 
HETATM   18  C   UNL     1      38.850 -13.783  -3.304  1.00  0.00     0.036 A 
HETATM   19  C   UNL     1      39.564 -12.625  -3.007  1.00  0.00     0.005 A 
HETATM   20  C   UNL     1      40.261 -12.526  -1.798  1.00  0.00     0.029 A 
BRANCH  17  21
HETATM   21  O   UNL     1      38.119 -15.943  -2.714  1.00  0.00    -0.361 OA
HETATM   22  H   UNL     1      37.758 -15.827  -3.610  1.00  0.00     0.217 HD
ENDBRANCH  17  21
ENDBRANCH  12  15
ENDBRANCH   7  11
BRANCH   1  23
HETATM   23  C   UNL     1      42.292 -16.788   4.207  1.00  0.00    -0.033 A 
HETATM   24  C   UNL     1      43.064 -17.670   4.986  1.00  0.00     0.046 A 
HETATM   25  C   UNL     1      43.877 -18.643   4.399  1.00  0.00     0.068 A 
HETATM   26  C   UNL     1      43.988 -18.712   3.014  1.00  0.00     0.037 A 
HETATM   27  C   UNL     1      43.272 -17.817   2.221  1.00  0.00     0.003 A 
HETATM   28  C   UNL     1      42.439 -16.861   2.812  1.00  0.00     0.009 A 
BRANCH  25  29
HETATM   29  O   UNL     1      44.564 -19.448   5.266  1.00  0.00    -0.356 OA
HETATM   30  C   UNL     1      44.185 -20.820   5.207  1.00  0.00     0.210 C 
ENDBRANCH  25  29
ENDBRANCH   1  23
BRANCH   8  31
HETATM   31  C   UNL     1      43.538 -13.099   6.614  1.00  0.00     0.409 C 
HETATM   32  F   UNL     1      42.716 -12.025   6.648  1.00  0.00    -0.169 F 
HETATM   33  F   UNL     1      43.416 -13.712   7.825  1.00  0.00    -0.169 F 
HETATM   34  F   UNL     1      44.811 -12.664   6.543  1.00  0.00    -0.169 F 
ENDBRANCH   8  31
TORSDOF 6
ENDMDL
MODEL 2
REMARK VINA RESULT:      -9.2      1.207      1.543
REMARK  6 active torsions:
REMARK  status: ('A' for Active; 'I' for Inactive)
REMARK    1  A    between atoms: O_2  and  C_3 
REMARK    2  A    between atoms: C_5  and  C_6 
REMARK    3  A    between atoms: C_12  and  C_13 
REMARK       I    between atoms: C_13  and  N_14 
REMARK    4  A    between atoms: N_14  and  C_15 
REMARK    5  A    between atoms: C_17  and  O_18 
REMARK    6  A    between atoms: C_23  and  C_24 
ROOT
HETATM    1  C   UNL     1      41.821 -15.040   5.643  1.00  0.00     0.118 C 
HETATM    2  N   UNL     1      41.074 -14.363   4.561  1.00  0.00    -0.365 N 
HETATM    3  C   UNL     1      41.715 -13.401   3.832  1.00  0.00     0.138 A 
HETATM    4  N   UNL     1      42.890 -12.840   4.276  1.00  0.00    -0.240 N 
HETATM    5  N   UNL     1      43.426 -11.964   3.417  1.00  0.00    -0.181 NA
HETATM    6  C   UNL     1      42.523 -11.902   2.435  1.00  0.00     0.160 A 
HETATM    7  C   UNL     1      41.427 -12.779   2.631  1.00  0.00     0.096 A 
HETATM    8  C   UNL     1      43.529 -13.161   5.540  1.00  0.00     0.221 C 
HETATM    9  C   UNL     1      42.556 -13.951   6.441  1.00  0.00     0.066 C 
HETATM   10  H   UNL     1      40.105 -14.170   4.826  1.00  0.00     0.161 HD
ENDROOT
BRANCH   7  11
HETATM   11  C   UNL     1      40.302 -12.962   1.725  1.00  0.00     0.261 C 
HETATM   12  N   UNL     1      40.672 -13.073   0.399  1.00  0.00    -0.323 N 
HETATM   13  H   UNL     1      41.658 -12.921   0.214  1.00  0.00     0.169 HD
HETATM   14  O   UNL     1      39.158 -13.001   2.159  1.00  0.00    -0.267 OA
BRANCH  12  15
HETATM   15  C   UNL     1      39.852 -13.357  -0.711  1.00  0.00     0.037 A 
HETATM   16  C   UNL     1      39.492 -14.648  -1.102  1.00  0.00     0.066 A 
HETATM   17  C   UNL     1      38.695 -14.834  -2.232  1.00  0.00     0.067 A 
HETATM   18  C   UNL     1      38.256 -13.755  -2.986  1.00  0.00     0.036 A 
HETATM   19  C   UNL     1      38.608 -12.464  -2.602  1.00  0.00     0.005 A 
HETATM   20  C   UNL     1      39.400 -12.266  -1.466  1.00  0.00     0.029 A 
BRANCH  17  21
HETATM   21  O   UNL     1      38.324 -16.083  -2.636  1.00  0.00    -0.361 OA
HETATM   22  H   UNL     1      38.188 -16.635  -1.846  1.00  0.00     0.217 HD
ENDBRANCH  17  21
ENDBRANCH  12  15
ENDBRANCH   7  11
BRANCH   1  23
HETATM   23  C   UNL     1      42.715 -16.158   5.106  1.00  0.00    -0.033 A 
HETATM   24  C   UNL     1      42.384 -16.855   3.930  1.00  0.00     0.046 A 
HETATM   25  C   UNL     1      43.217 -17.850   3.411  1.00  0.00     0.068 A 
HETATM   26  C   UNL     1      44.370 -18.217   4.097  1.00  0.00     0.037 A 
HETATM   27  C   UNL     1      44.694 -17.576   5.291  1.00  0.00     0.003 A 
HETATM   28  C   UNL     1      43.872 -16.562   5.794  1.00  0.00     0.009 A 
BRANCH  25  29
HETATM   29  O   UNL     1      42.790 -18.440   2.253  1.00  0.00    -0.356 OA
HETATM   30  C   UNL     1      43.197 -19.798   2.111  1.00  0.00     0.210 C 
ENDBRANCH  25  29
ENDBRANCH   1  23
BRANCH   8  31
HETATM   31  C   UNL     1      43.988 -11.920   6.276  1.00  0.00     0.409 C 
HETATM   32  F   UNL     1      43.064 -10.931   6.241  1.00  0.00    -0.169 F 
HETATM   33  F   UNL     1      44.175 -12.220   7.592  1.00  0.00    -0.169 F 
HETATM   34  F   UNL     1      45.162 -11.425   5.837  1.00  0.00    -0.169 F 
ENDBRANCH   8  31
TORSDOF 6
ENDMDL
MODEL 3
REMARK VINA RESULT:      -9.1      4.088      7.178
REMARK  6 active torsions:
REMARK  status: ('A' for Active; 'I' for Inactive)
REMARK    1  A    between atoms: O_2  and  C_3 
REMARK    2  A    between atoms: C_5  and  C_6 
REMARK    3  A    between atoms: C_12  and  C_13 
REMARK       I    between atoms: C_13  and  N_14 
REMARK    4  A    between atoms: N_14  and  C_15 
REMARK    5  A    between atoms: C_17  and  O_18 
REMARK    6  A    between atoms: C_23  and  C_24 
ROOT
HETATM    1  C   UNL     1      43.599 -16.352   3.208  1.00  0.00     0.118 C 
HETATM    2  N   UNL     1      43.641 -15.242   4.184  1.00  0.00    -0.365 N 
HETATM    3  C   UNL     1      42.489 -14.910   4.841  1.00  0.00     0.138 A 
HETATM    4  N   UNL     1      41.265 -15.352   4.393  1.00  0.00    -0.240 N 
HETATM    5  N   UNL     1      40.243 -14.997   5.183  1.00  0.00    -0.181 NA
HETATM    6  C   UNL     1      40.823 -14.235   6.115  1.00  0.00     0.160 A 
HETATM    7  C   UNL     1      42.229 -14.140   5.960  1.00  0.00     0.096 A 
HETATM    8  C   UNL     1      41.065 -16.150   3.196  1.00  0.00     0.221 C 
HETATM    9  C   UNL     1      42.348 -16.149   2.338  1.00  0.00     0.066 C 
HETATM   10  H   UNL     1      44.225 -14.468   3.860  1.00  0.00     0.161 HD
ENDROOT
BRANCH   7  11
HETATM   11  C   UNL     1      43.140 -13.412   6.831  1.00  0.00     0.261 C 
HETATM   12  N   UNL     1      43.450 -12.146   6.374  1.00  0.00    -0.323 N 
HETATM   13  H   UNL     1      43.084 -11.920   5.454  1.00  0.00     0.169 HD
HETATM   14  O   UNL     1      43.561 -13.930   7.858  1.00  0.00    -0.267 OA
BRANCH  12  15
HETATM   15  C   UNL     1      44.212 -11.152   7.018  1.00  0.00     0.037 A 
HETATM   16  C   UNL     1      45.603 -11.062   6.935  1.00  0.00     0.066 A 
HETATM   17  C   UNL     1      46.276 -10.056   7.629  1.00  0.00     0.067 A 
HETATM   18  C   UNL     1      45.587  -9.140   8.412  1.00  0.00     0.036 A 
HETATM   19  C   UNL     1      44.200  -9.219   8.497  1.00  0.00     0.005 A 
HETATM   20  C   UNL     1      43.515 -10.220   7.800  1.00  0.00     0.029 A 
BRANCH  17  21
HETATM   21  O   UNL     1      47.634  -9.942   7.565  1.00  0.00    -0.361 OA
HETATM   22  H   UNL     1      47.991 -10.744   7.146  1.00  0.00     0.217 HD
ENDBRANCH  17  21
ENDBRANCH  12  15
ENDBRANCH   7  11
BRANCH   1  23
HETATM   23  C   UNL     1      43.690 -17.717   3.892  1.00  0.00    -0.033 A 
HETATM   24  C   UNL     1      43.722 -18.907   3.143  1.00  0.00     0.046 A 
HETATM   25  C   UNL     1      43.847 -20.155   3.758  1.00  0.00     0.068 A 
HETATM   26  C   UNL     1      43.875 -20.245   5.147  1.00  0.00     0.037 A 
HETATM   27  C   UNL     1      43.794 -19.084   5.912  1.00  0.00     0.003 A 
HETATM   28  C   UNL     1      43.696 -17.833   5.292  1.00  0.00     0.009 A 
BRANCH  25  29
HETATM   29  O   UNL     1      43.882 -21.234   2.918  1.00  0.00    -0.356 OA
HETATM   30  C   UNL     1      43.787 -20.896   1.537  1.00  0.00     0.210 C 
ENDBRANCH  25  29
ENDBRANCH   1  23
BRANCH   8  31
HETATM   31  C   UNL     1      39.910 -15.640   2.360  1.00  0.00     0.409 C 
HETATM   32  F   UNL     1      39.865 -14.289   2.316  1.00  0.00    -0.169 F 
HETATM   33  F   UNL     1      40.067 -16.060   1.073  1.00  0.00    -0.169 F 
HETATM   34  F   UNL     1      38.705 -16.097   2.756  1.00  0.00    -0.169 F 
ENDBRANCH   8  31
TORSDOF 6
ENDMDL
MODEL 4
REMARK VINA RESULT:      -8.6      3.810      7.070
REMARK  6 active torsions:
REMARK  status: ('A' for Active; 'I' for Inactive)
REMARK    1  A    between atoms: O_2  and  C_3 
REMARK    2  A    between atoms: C_5  and  C_6 
REMARK    3  A    between atoms: C_12  and  C_13 
REMARK       I    between atoms: C_13  and  N_14 
REMARK    4  A    between atoms: N_14  and  C_15 
REMARK    5  A    between atoms: C_17  and  O_18 
REMARK    6  A    between atoms: C_23  and  C_24 
ROOT
HETATM    1  C   UNL     1      43.554 -15.528   2.577  1.00  0.00     0.118 C 
HETATM    2  N   UNL     1      43.440 -14.156   3.119  1.00  0.00    -0.365 N 
HETATM    3  C   UNL     1      42.200 -13.691   3.455  1.00  0.00     0.138 A 
HETATM    4  N   UNL     1      41.061 -14.325   3.014  1.00  0.00    -0.240 N 
HETATM    5  N   UNL     1      39.929 -13.786   3.485  1.00  0.00    -0.181 NA
HETATM    6  C   UNL     1      40.356 -12.727   4.179  1.00  0.00     0.160 A 
HETATM    7  C   UNL     1      41.768 -12.610   4.202  1.00  0.00     0.096 A 
HETATM    8  C   UNL     1      41.051 -15.484   2.139  1.00  0.00     0.221 C 
HETATM    9  C   UNL     1      42.449 -15.695   1.521  1.00  0.00     0.066 C 
HETATM   10  H   UNL     1      44.063 -13.501   2.639  1.00  0.00     0.161 HD
ENDROOT
BRANCH   7  11
HETATM   11  C   UNL     1      42.532 -11.584   4.897  1.00  0.00     0.261 C 
HETATM   12  N   UNL     1      43.221 -12.057   5.997  1.00  0.00    -0.323 N 
HETATM   13  H   UNL     1      43.036 -13.026   6.236  1.00  0.00     0.169 HD
HETATM   14  O   UNL     1      42.522 -10.427   4.497  1.00  0.00    -0.267 OA
BRANCH  12  15
HETATM   15  C   UNL     1      44.126 -11.360   6.821  1.00  0.00     0.037 A 
HETATM   16  C   UNL     1      45.505 -11.321   6.604  1.00  0.00     0.066 A 
HETATM   17  C   UNL     1      46.328 -10.625   7.489  1.00  0.00     0.067 A 
HETATM   18  C   UNL     1      45.802  -9.970   8.593  1.00  0.00     0.036 A 
HETATM   19  C   UNL     1      44.428  -9.999   8.816  1.00  0.00     0.005 A 
HETATM   20  C   UNL     1      43.593 -10.689   7.931  1.00  0.00     0.029 A 
BRANCH  17  21
HETATM   21  O   UNL     1      47.678 -10.567   7.300  1.00  0.00    -0.361 OA
HETATM   22  H   UNL     1      48.115 -10.742   8.152  1.00  0.00     0.217 HD
ENDBRANCH  17  21
ENDBRANCH  12  15
ENDBRANCH   7  11
BRANCH   1  23
HETATM   23  C   UNL     1      43.548 -16.581   3.684  1.00  0.00    -0.033 A 
HETATM   24  C   UNL     1      43.349 -16.223   5.030  1.00  0.00     0.046 A 
HETATM   25  C   UNL     1      43.302 -17.184   6.043  1.00  0.00     0.068 A 
HETATM   26  C   UNL     1      43.522 -18.524   5.740  1.00  0.00     0.037 A 
HETATM   27  C   UNL     1      43.772 -18.898   4.421  1.00  0.00     0.003 A 
HETATM   28  C   UNL     1      43.792 -17.936   3.405  1.00  0.00     0.009 A 
BRANCH  25  29
HETATM   29  O   UNL     1      43.086 -16.708   7.308  1.00  0.00    -0.356 OA
HETATM   30  C   UNL     1      42.574 -15.379   7.347  1.00  0.00     0.210 C 
ENDBRANCH  25  29
ENDBRANCH   1  23
BRANCH   8  31
HETATM   31  C   UNL     1      40.033 -15.346   1.026  1.00  0.00     0.409 C 
HETATM   32  F   UNL     1      39.158 -14.339   1.252  1.00  0.00    -0.169 F 
HETATM   33  F   UNL     1      40.676 -15.039  -0.136  1.00  0.00    -0.169 F 
HETATM   34  F   UNL     1      39.336 -16.473   0.779  1.00  0.00    -0.169 F 
ENDBRANCH   8  31
TORSDOF 6
ENDMDL
MODEL 5
REMARK VINA RESULT:      -8.4      4.152      7.639
REMARK  6 active torsions:
REMARK  status: ('A' for Active; 'I' for Inactive)
REMARK    1  A    between atoms: O_2  and  C_3 
REMARK    2  A    between atoms: C_5  and  C_6 
REMARK    3  A    between atoms: C_12  and  C_13 
REMARK       I    between atoms: C_13  and  N_14 
REMARK    4  A    between atoms: N_14  and  C_15 
REMARK    5  A    between atoms: C_17  and  O_18 
REMARK    6  A    between atoms: C_23  and  C_24 
ROOT
HETATM    1  C   UNL     1      38.383 -11.944   2.791  1.00  0.00     0.118 C 
HETATM    2  N   UNL     1      38.946 -13.311   2.791  1.00  0.00    -0.365 N 
HETATM    3  C   UNL     1      39.679 -13.713   1.710  1.00  0.00     0.138 A 
HETATM    4  N   UNL     1      39.633 -13.016   0.524  1.00  0.00    -0.240 N 
HETATM    5  N   UNL     1      40.458 -13.498  -0.415  1.00  0.00    -0.181 NA
HETATM    6  C   UNL     1      40.982 -14.583   0.161  1.00  0.00     0.160 A 
HETATM    7  C   UNL     1      40.538 -14.775   1.493  1.00  0.00     0.096 A 
HETATM    8  C   UNL     1      38.798 -11.852   0.285  1.00  0.00     0.221 C 
HETATM    9  C   UNL     1      37.750 -11.711   1.409  1.00  0.00     0.066 C 
HETATM   10  H   UNL     1      38.295 -13.995   3.185  1.00  0.00     0.161 HD
ENDROOT
BRANCH   7  11
HETATM   11  C   UNL     1      40.953 -15.845   2.389  1.00  0.00     0.261 C 
HETATM   12  N   UNL     1      42.133 -16.456   2.015  1.00  0.00    -0.323 N 
HETATM   13  H   UNL     1      42.510 -16.151   1.122  1.00  0.00     0.169 HD
HETATM   14  O   UNL     1      40.273 -16.132   3.367  1.00  0.00    -0.267 OA
BRANCH  12  15
HETATM   15  C   UNL     1      42.858 -17.445   2.707  1.00  0.00     0.037 A 
HETATM   16  C   UNL     1      42.989 -18.764   2.268  1.00  0.00     0.066 A 
HETATM   17  C   UNL     1      43.707 -19.682   3.034  1.00  0.00     0.067 A 
HETATM   18  C   UNL     1      44.293 -19.312   4.236  1.00  0.00     0.036 A 
HETATM   19  C   UNL     1      44.171 -17.997   4.680  1.00  0.00     0.005 A 
HETATM   20  C   UNL     1      43.459 -17.067   3.916  1.00  0.00     0.029 A 
BRANCH  17  21
HETATM   21  O   UNL     1      43.855 -20.977   2.629  1.00  0.00    -0.361 OA
HETATM   22  H   UNL     1      43.278 -21.126   1.860  1.00  0.00     0.217 HD
ENDBRANCH  17  21
ENDBRANCH  12  15
ENDBRANCH   7  11
BRANCH   1  23
HETATM   23  C   UNL     1      39.419 -10.900   3.207  1.00  0.00    -0.033 A 
HETATM   24  C   UNL     1      40.680 -11.280   3.703  1.00  0.00     0.046 A 
HETATM   25  C   UNL     1      41.646 -10.332   4.048  1.00  0.00     0.068 A 
HETATM   26  C   UNL     1      41.348  -8.976   3.967  1.00  0.00     0.037 A 
HETATM   27  C   UNL     1      40.089  -8.573   3.526  1.00  0.00     0.003 A 
HETATM   28  C   UNL     1      39.132  -9.525   3.157  1.00  0.00     0.009 A 
BRANCH  25  29
HETATM   29  O   UNL     1      42.836 -10.832   4.501  1.00  0.00    -0.356 OA
HETATM   30  C   UNL     1      43.555 -11.587   3.531  1.00  0.00     0.210 C 
ENDBRANCH  25  29
ENDBRANCH   1  23
BRANCH   8  31
HETATM   31  C   UNL     1      38.086 -11.928  -1.049  1.00  0.00     0.409 C 
HETATM   32  F   UNL     1      36.983 -11.145  -1.087  1.00  0.00    -0.169 F 
HETATM   33  F   UNL     1      38.915 -11.467  -2.028  1.00  0.00    -0.169 F 
HETATM   34  F   UNL     1      37.738 -13.177  -1.414  1.00  0.00    -0.169 F 
ENDBRANCH   8  31
TORSDOF 6
ENDMDL
MODEL 6
REMARK VINA RESULT:      -8.3      3.752      7.045
REMARK  6 active torsions:
REMARK  status: ('A' for Active; 'I' for Inactive)
REMARK    1  A    between atoms: O_2  and  C_3 
REMARK    2  A    between atoms: C_5  and  C_6 
REMARK    3  A    between atoms: C_12  and  C_13 
REMARK       I    between atoms: C_13  and  N_14 
REMARK    4  A    between atoms: N_14  and  C_15 
REMARK    5  A    between atoms: C_17  and  O_18 
REMARK    6  A    between atoms: C_23  and  C_24 
ROOT
HETATM    1  C   UNL     1      41.340 -11.711   6.053  1.00  0.00     0.118 C 
HETATM    2  N   UNL     1      41.256 -13.037   5.405  1.00  0.00    -0.365 N 
HETATM    3  C   UNL     1      41.656 -13.151   4.103  1.00  0.00     0.138 A 
HETATM    4  N   UNL     1      41.823 -12.036   3.313  1.00  0.00    -0.240 N 
HETATM    5  N   UNL     1      42.282 -12.312   2.085  1.00  0.00    -0.181 NA
HETATM    6  C   UNL     1      42.330 -13.647   2.064  1.00  0.00     0.160 A 
HETATM    7  C   UNL     1      41.952 -14.236   3.297  1.00  0.00     0.096 A 
HETATM    8  C   UNL     1      41.557 -10.675   3.742  1.00  0.00     0.221 C 
HETATM    9  C   UNL     1      40.764 -10.682   5.067  1.00  0.00     0.066 C 
HETATM   10  H   UNL     1      40.406 -13.541   5.670  1.00  0.00     0.161 HD
ENDROOT
BRANCH   7  11
HETATM   11  C   UNL     1      41.932 -15.660   3.597  1.00  0.00     0.261 C 
HETATM   12  N   UNL     1      43.056 -16.333   3.161  1.00  0.00    -0.323 N 
HETATM   13  H   UNL     1      43.703 -15.777   2.611  1.00  0.00     0.169 HD
HETATM   14  O   UNL     1      40.977 -16.156   4.181  1.00  0.00    -0.267 OA
BRANCH  12  15
HETATM   15  C   UNL     1      43.399 -17.682   3.376  1.00  0.00     0.037 A 
HETATM   16  C   UNL     1      43.336 -18.668   2.388  1.00  0.00     0.066 A 
HETATM   17  C   UNL     1      43.672 -19.985   2.701  1.00  0.00     0.067 A 
HETATM   18  C   UNL     1      44.065 -20.341   3.983  1.00  0.00     0.036 A 
HETATM   19  C   UNL     1      44.135 -19.364   4.973  1.00  0.00     0.005 A 
HETATM   20  C   UNL     1      43.807 -18.039   4.669  1.00  0.00     0.029 A 
BRANCH  17  21
HETATM   21  O   UNL     1      43.623 -20.969   1.756  1.00  0.00    -0.361 OA
HETATM   22  H   UNL     1      42.699 -21.260   1.663  1.00  0.00     0.217 HD
ENDBRANCH  17  21
ENDBRANCH  12  15
ENDBRANCH   7  11
BRANCH   1  23
HETATM   23  C   UNL     1      42.755 -11.406   6.546  1.00  0.00    -0.033 A 
HETATM   24  C   UNL     1      43.059 -10.191   7.187  1.00  0.00     0.046 A 
HETATM   25  C   UNL     1      44.339  -9.922   7.676  1.00  0.00     0.068 A 
HETATM   26  C   UNL     1      45.366 -10.839   7.475  1.00  0.00     0.037 A 
HETATM   27  C   UNL     1      45.103 -12.029   6.799  1.00  0.00     0.003 A 
HETATM   28  C   UNL     1      43.813 -12.306   6.333  1.00  0.00     0.009 A 
BRANCH  25  29
HETATM   29  O   UNL     1      44.500  -8.712   8.293  1.00  0.00    -0.356 OA
HETATM   30  C   UNL     1      43.276  -8.074   8.647  1.00  0.00     0.210 C 
ENDBRANCH  25  29
ENDBRANCH   1  23
BRANCH   8  31
HETATM   31  C   UNL     1      40.780  -9.892   2.705  1.00  0.00     0.409 C 
HETATM   32  F   UNL     1      39.643 -10.524   2.331  1.00  0.00    -0.169 F 
HETATM   33  F   UNL     1      40.397  -8.698   3.236  1.00  0.00    -0.169 F 
HETATM   34  F   UNL     1      41.490  -9.596   1.598  1.00  0.00    -0.169 F 
ENDBRANCH   8  31
TORSDOF 6
ENDMDL
MODEL 7
REMARK VINA RESULT:      -8.2      3.938      7.464
REMARK  6 active torsions:
REMARK  status: ('A' for Active; 'I' for Inactive)
REMARK    1  A    between atoms: O_2  and  C_3 
REMARK    2  A    between atoms: C_5  and  C_6 
REMARK    3  A    between atoms: C_12  and  C_13 
REMARK       I    between atoms: C_13  and  N_14 
REMARK    4  A    between atoms: N_14  and  C_15 
REMARK    5  A    between atoms: C_17  and  O_18 
REMARK    6  A    between atoms: C_23  and  C_24 
ROOT
HETATM    1  C   UNL     1      43.308 -14.260   2.064  1.00  0.00     0.118 C 
HETATM    2  N   UNL     1      43.473 -13.128   3.002  1.00  0.00    -0.365 N 
HETATM    3  C   UNL     1      42.373 -12.676   3.676  1.00  0.00     0.138 A 
HETATM    4  N   UNL     1      41.103 -13.024   3.274  1.00  0.00    -0.240 N 
HETATM    5  N   UNL     1      40.138 -12.556   4.076  1.00  0.00    -0.181 NA
HETATM    6  C   UNL     1      40.807 -11.819   4.968  1.00  0.00     0.160 A 
HETATM    7  C   UNL     1      42.211 -11.853   4.775  1.00  0.00     0.096 A 
HETATM    8  C   UNL     1      40.802 -13.836   2.109  1.00  0.00     0.221 C 
HETATM    9  C   UNL     1      42.056 -13.974   1.219  1.00  0.00     0.066 C 
HETATM   10  H   UNL     1      44.113 -12.418   2.638  1.00  0.00     0.161 HD
ENDROOT
BRANCH   7  11
HETATM   11  C   UNL     1      43.206 -11.181   5.599  1.00  0.00     0.261 C 
HETATM   12  N   UNL     1      42.706 -10.706   6.795  1.00  0.00    -0.323 N 
HETATM   13  H   UNL     1      41.701 -10.799   6.907  1.00  0.00     0.169 HD
HETATM   14  O   UNL     1      44.363 -11.076   5.210  1.00  0.00    -0.267 OA
BRANCH  12  15
HETATM   15  C   UNL     1      43.412 -10.105   7.856  1.00  0.00     0.037 A 
HETATM   16  C   UNL     1      44.117 -10.822   8.825  1.00  0.00     0.066 A 
HETATM   17  C   UNL     1      44.767 -10.142   9.854  1.00  0.00     0.067 A 
HETATM   18  C   UNL     1      44.721  -8.758   9.941  1.00  0.00     0.036 A 
HETATM   19  C   UNL     1      44.024  -8.035   8.977  1.00  0.00     0.005 A 
HETATM   20  C   UNL     1      43.375  -8.707   7.936  1.00  0.00     0.029 A 
BRANCH  17  21
HETATM   21  O   UNL     1      45.466 -10.815  10.814  1.00  0.00    -0.361 OA
HETATM   22  H   UNL     1      45.344 -10.355  11.663  1.00  0.00     0.217 HD
ENDBRANCH  17  21
ENDBRANCH  12  15
ENDBRANCH   7  11
BRANCH   1  23
HETATM   23  C   UNL     1      43.300 -15.605   2.790  1.00  0.00    -0.033 A 
HETATM   24  C   UNL     1      43.141 -16.813   2.086  1.00  0.00     0.046 A 
HETATM   25  C   UNL     1      43.173 -18.049   2.738  1.00  0.00     0.068 A 
HETATM   26  C   UNL     1      43.298 -18.101   4.122  1.00  0.00     0.037 A 
HETATM   27  C   UNL     1      43.407 -16.916   4.848  1.00  0.00     0.003 A 
HETATM   28  C   UNL     1      43.400 -15.681   4.190  1.00  0.00     0.009 A 
BRANCH  25  29
HETATM   29  O   UNL     1      43.023 -19.148   1.938  1.00  0.00    -0.356 OA
HETATM   30  C   UNL     1      43.681 -20.314   2.426  1.00  0.00     0.210 C 
ENDBRANCH  25  29
ENDBRANCH   1  23
BRANCH   8  31
HETATM   31  C   UNL     1      39.673 -13.254   1.286  1.00  0.00     0.409 C 
HETATM   32  F   UNL     1      38.523 -13.149   1.993  1.00  0.00    -0.169 F 
HETATM   33  F   UNL     1      40.002 -11.989   0.902  1.00  0.00    -0.169 F 
HETATM   34  F   UNL     1      39.417 -13.932   0.150  1.00  0.00    -0.169 F 
ENDBRANCH   8  31
TORSDOF 6
ENDMDL
MODEL 8
REMARK VINA RESULT:      -8.1      3.852      6.901
REMARK  6 active torsions:
REMARK  status: ('A' for Active; 'I' for Inactive)
REMARK    1  A    between atoms: O_2  and  C_3 
REMARK    2  A    between atoms: C_5  and  C_6 
REMARK    3  A    between atoms: C_12  and  C_13 
REMARK       I    between atoms: C_13  and  N_14 
REMARK    4  A    between atoms: N_14  and  C_15 
REMARK    5  A    between atoms: C_17  and  O_18 
REMARK    6  A    between atoms: C_23  and  C_24 
ROOT
HETATM    1  C   UNL     1      39.523 -11.910   5.185  1.00  0.00     0.118 C 
HETATM    2  N   UNL     1      39.813 -13.258   4.650  1.00  0.00    -0.365 N 
HETATM    3  C   UNL     1      40.455 -13.357   3.448  1.00  0.00     0.138 A 
HETATM    4  N   UNL     1      40.543 -12.275   2.601  1.00  0.00    -0.240 N 
HETATM    5  N   UNL     1      41.260 -12.515   1.495  1.00  0.00    -0.181 NA
HETATM    6  C   UNL     1      41.566 -13.811   1.600  1.00  0.00     0.160 A 
HETATM    7  C   UNL     1      41.094 -14.399   2.801  1.00  0.00     0.096 A 
HETATM    8  C   UNL     1      39.948 -10.976   2.860  1.00  0.00     0.221 C 
HETATM    9  C   UNL     1      38.947 -11.075   4.030  1.00  0.00     0.066 C 
HETATM   10  H   UNL     1      39.043 -13.911   4.815  1.00  0.00     0.161 HD
ENDROOT
BRANCH   7  11
HETATM   11  C   UNL     1      41.295 -15.779   3.217  1.00  0.00     0.261 C 
HETATM   12  N   UNL     1      42.510 -16.305   2.824  1.00  0.00    -0.323 N 
HETATM   13  H   UNL     1      43.063 -15.704   2.221  1.00  0.00     0.169 HD
HETATM   14  O   UNL     1      40.429 -16.367   3.853  1.00  0.00    -0.267 OA
BRANCH  12  15
HETATM   15  C   UNL     1      43.058 -17.562   3.145  1.00  0.00     0.037 A 
HETATM   16  C   UNL     1      43.098 -18.642   2.260  1.00  0.00     0.066 A 
HETATM   17  C   UNL     1      43.639 -19.859   2.675  1.00  0.00     0.067 A 
HETATM   18  C   UNL     1      44.136 -20.023   3.960  1.00  0.00     0.036 A 
HETATM   19  C   UNL     1      44.104 -18.950   4.847  1.00  0.00     0.005 A 
HETATM   20  C   UNL     1      43.570 -17.723   4.439  1.00  0.00     0.029 A 
BRANCH  17  21
HETATM   21  O   UNL     1      43.694 -20.931   1.832  1.00  0.00    -0.361 OA
HETATM   22  H   UNL     1      42.804 -21.083   1.470  1.00  0.00     0.217 HD
ENDBRANCH  17  21
ENDBRANCH  12  15
ENDBRANCH   7  11
BRANCH   1  23
HETATM   23  C   UNL     1      40.741 -11.296   5.876  1.00  0.00    -0.033 A 
HETATM   24  C   UNL     1      41.949 -12.008   5.993  1.00  0.00     0.046 A 
HETATM   25  C   UNL     1      43.078 -11.439   6.588  1.00  0.00     0.068 A 
HETATM   26  C   UNL     1      43.004 -10.164   7.141  1.00  0.00     0.037 A 
HETATM   27  C   UNL     1      41.804  -9.458   7.082  1.00  0.00     0.003 A 
HETATM   28  C   UNL     1      40.682 -10.021   6.463  1.00  0.00     0.009 A 
BRANCH  25  29
HETATM   29  O   UNL     1      44.195 -12.228   6.625  1.00  0.00    -0.356 OA
HETATM   30  C   UNL     1      45.417 -11.500   6.683  1.00  0.00     0.210 C 
ENDBRANCH  25  29
ENDBRANCH   1  23
BRANCH   8  31
HETATM   31  C   UNL     1      39.234 -10.426   1.643  1.00  0.00     0.409 C 
HETATM   32  F   UNL     1      38.384 -11.326   1.095  1.00  0.00    -0.169 F 
HETATM   33  F   UNL     1      38.473  -9.358   2.013  1.00  0.00    -0.169 F 
HETATM   34  F   UNL     1      40.062  -9.976   0.680  1.00  0.00    -0.169 F 
ENDBRANCH   8  31
TORSDOF 6
ENDMDL
MODEL 9
REMARK VINA RESULT:      -8.0      4.523      7.171
REMARK  6 active torsions:
REMARK  status: ('A' for Active; 'I' for Inactive)
REMARK    1  A    between atoms: O_2  and  C_3 
REMARK    2  A    between atoms: C_5  and  C_6 
REMARK    3  A    between atoms: C_12  and  C_13 
REMARK       I    between atoms: C_13  and  N_14 
REMARK    4  A    between atoms: N_14  and  C_15 
REMARK    5  A    between atoms: C_17  and  O_18 
REMARK    6  A    between atoms: C_23  and  C_24 
ROOT
HETATM    1  C   UNL     1      42.099  -8.594   7.789  1.00  0.00     0.118 C 
HETATM    2  N   UNL     1      42.024  -9.493   6.617  1.00  0.00    -0.365 N 
HETATM    3  C   UNL     1      42.752 -10.650   6.637  1.00  0.00     0.138 A 
HETATM    4  N   UNL     1      43.767 -10.832   7.548  1.00  0.00    -0.240 N 
HETATM    5  N   UNL     1      44.338 -12.042   7.482  1.00  0.00    -0.181 NA
HETATM    6  C   UNL     1      43.725 -12.617   6.443  1.00  0.00     0.160 A 
HETATM    7  C   UNL     1      42.719 -11.799   5.869  1.00  0.00     0.096 A 
HETATM    8  C   UNL     1      44.191  -9.839   8.519  1.00  0.00     0.221 C 
HETATM    9  C   UNL     1      43.582  -8.464   8.172  1.00  0.00     0.066 C 
HETATM   10  H   UNL     1      42.009  -8.974   5.736  1.00  0.00     0.161 HD
ENDROOT
BRANCH   7  11
HETATM   11  C   UNL     1      41.860 -12.156   4.750  1.00  0.00     0.261 C 
HETATM   12  N   UNL     1      42.224 -13.332   4.124  1.00  0.00    -0.323 N 
HETATM   13  H   UNL     1      43.089 -13.746   4.458  1.00  0.00     0.169 HD
HETATM   14  O   UNL     1      40.918 -11.437   4.438  1.00  0.00    -0.267 OA
BRANCH  12  15
HETATM   15  C   UNL     1      41.554 -14.008   3.086  1.00  0.00     0.037 A 
HETATM   16  C   UNL     1      41.648 -13.653   1.739  1.00  0.00     0.066 A 
HETATM   17  C   UNL     1      40.927 -14.367   0.782  1.00  0.00     0.067 A 
HETATM   18  C   UNL     1      40.106 -15.426   1.143  1.00  0.00     0.036 A 
HETATM   19  C   UNL     1      40.010 -15.790   2.483  1.00  0.00     0.005 A 
HETATM   20  C   UNL     1      40.734 -15.085   3.451  1.00  0.00     0.029 A 
BRANCH  17  21
HETATM   21  O   UNL     1      41.001 -14.045  -0.543  1.00  0.00    -0.361 OA
HETATM   22  H   UNL     1      40.847 -14.852  -1.064  1.00  0.00     0.217 HD
ENDBRANCH  17  21
ENDBRANCH  12  15
ENDBRANCH   7  11
BRANCH   1  23
HETATM   23  C   UNL     1      41.182  -9.056   8.922  1.00  0.00    -0.033 A 
HETATM   24  C   UNL     1      41.635  -9.108  10.253  1.00  0.00     0.046 A 
HETATM   25  C   UNL     1      40.791  -9.491  11.298  1.00  0.00     0.068 A 
HETATM   26  C   UNL     1      39.489  -9.897  11.026  1.00  0.00     0.037 A 
HETATM   27  C   UNL     1      39.031  -9.902   9.710  1.00  0.00     0.003 A 
HETATM   28  C   UNL     1      39.871  -9.494   8.668  1.00  0.00     0.009 A 
BRANCH  25  29
HETATM   29  O   UNL     1      41.349  -9.484  12.548  1.00  0.00    -0.356 OA
HETATM   30  C   UNL     1      42.581 -10.193  12.636  1.00  0.00     0.210 C 
ENDBRANCH  25  29
ENDBRANCH   1  23
BRANCH   8  31
HETATM   31  C   UNL     1      45.699  -9.711   8.580  1.00  0.00     0.409 C 
HETATM   32  F   UNL     1      46.167  -8.750   7.750  1.00  0.00    -0.169 F 
HETATM   33  F   UNL     1      46.068  -9.342   9.838  1.00  0.00    -0.169 F 
HETATM   34  F   UNL     1      46.356 -10.858   8.321  1.00  0.00    -0.169 F 
ENDBRANCH   8  31
TORSDOF 6
ENDMDL
MODEL 10
REMARK VINA RESULT:      -8.0      3.983      7.661
REMARK  6 active torsions:
REMARK  status: ('A' for Active; 'I' for Inactive)
REMARK    1  A    between atoms: O_2  and  C_3 
REMARK    2  A    between atoms: C_5  and  C_6 
REMARK    3  A    between atoms: C_12  and  C_13 
REMARK       I    between atoms: C_13  and  N_14 
REMARK    4  A    between atoms: N_14  and  C_15 
REMARK    5  A    between atoms: C_17  and  O_18 
REMARK    6  A    between atoms: C_23  and  C_24 
ROOT
HETATM    1  C   UNL     1      43.225 -13.939   2.313  1.00  0.00     0.118 C 
HETATM    2  N   UNL     1      43.374 -12.896   3.352  1.00  0.00    -0.365 N 
HETATM    3  C   UNL     1      42.276 -12.550   4.087  1.00  0.00     0.138 A 
HETATM    4  N   UNL     1      41.009 -12.903   3.679  1.00  0.00    -0.240 N 
HETATM    5  N   UNL     1      40.048 -12.548   4.543  1.00  0.00    -0.181 NA
HETATM    6  C   UNL     1      40.713 -11.876   5.487  1.00  0.00     0.160 A 
HETATM    7  C   UNL     1      42.112 -11.841   5.264  1.00  0.00     0.096 A 
HETATM    8  C   UNL     1      40.709 -13.612   2.449  1.00  0.00     0.221 C 
HETATM    9  C   UNL     1      41.945 -13.620   1.525  1.00  0.00     0.066 C 
HETATM   10  H   UNL     1      43.981 -12.132   3.044  1.00  0.00     0.161 HD
ENDROOT
BRANCH   7  11
HETATM   11  C   UNL     1      43.103 -11.215   6.127  1.00  0.00     0.261 C 
HETATM   12  N   UNL     1      42.580 -10.731   7.310  1.00  0.00    -0.323 N 
HETATM   13  H   UNL     1      41.569 -10.786   7.387  1.00  0.00     0.169 HD
HETATM   14  O   UNL     1      44.276 -11.151   5.779  1.00  0.00    -0.267 OA
BRANCH  12  15
HETATM   15  C   UNL     1      43.271 -10.167   8.400  1.00  0.00     0.037 A 
HETATM   16  C   UNL     1      42.830  -9.044   9.103  1.00  0.00     0.066 A 
HETATM   17  C   UNL     1      43.595  -8.540  10.156  1.00  0.00     0.067 A 
HETATM   18  C   UNL     1      44.798  -9.132  10.517  1.00  0.00     0.036 A 
HETATM   19  C   UNL     1      45.242 -10.255   9.824  1.00  0.00     0.005 A 
HETATM   20  C   UNL     1      44.479 -10.772   8.772  1.00  0.00     0.029 A 
BRANCH  17  21
HETATM   21  O   UNL     1      43.189  -7.446  10.863  1.00  0.00    -0.361 OA
HETATM   22  H   UNL     1      43.667  -7.434  11.711  1.00  0.00     0.217 HD
ENDBRANCH  17  21
ENDBRANCH  12  15
ENDBRANCH   7  11
BRANCH   1  23
HETATM   23  C   UNL     1      43.280 -15.346   2.907  1.00  0.00    -0.033 A 
HETATM   24  C   UNL     1      43.397 -15.549   4.294  1.00  0.00     0.046 A 
HETATM   25  C   UNL     1      43.407 -16.832   4.848  1.00  0.00     0.068 A 
HETATM   26  C   UNL     1      43.368 -17.947   4.017  1.00  0.00     0.037 A 
HETATM   27  C   UNL     1      43.302 -17.773   2.636  1.00  0.00     0.003 A 
HETATM   28  C   UNL     1      43.266 -16.487   2.086  1.00  0.00     0.009 A 
BRANCH  25  29
HETATM   29  O   UNL     1      43.510 -16.893   6.211  1.00  0.00    -0.356 OA
HETATM   30  C   UNL     1      42.347 -16.442   6.900  1.00  0.00     0.210 C 
ENDBRANCH  25  29
ENDBRANCH   1  23
BRANCH   8  31
HETATM   31  C   UNL     1      39.541 -12.995   1.708  1.00  0.00     0.409 C 
HETATM   32  F   UNL     1      39.383 -13.519   0.470  1.00  0.00    -0.169 F 
HETATM   33  F   UNL     1      38.389 -13.260   2.385  1.00  0.00    -0.169 F 
HETATM   34  F   UNL     1      39.608 -11.653   1.600  1.00  0.00    -0.169 F 
ENDBRANCH   8  31
TORSDOF 6
ENDMDL
