MODEL 1
REMARK VINA RESULT:      -9.0      0.000      0.000
REMARK  2 active torsions:
REMARK  status: ('A' for Active; 'I' for Inactive)
REMARK    1  A    between atoms: C_2  and  N_3 
REMARK    2  A    between atoms: N_3  and  C_4 
ROOT
HETATM    1  C   UNL     1      41.719 -13.317   2.684  1.00  0.00     0.143 A 
HETATM    2  N   UNL     1      42.339 -12.498   3.571  1.00  0.00    -0.223 NA
HETATM    3  C   UNL     1      42.578 -11.222   3.249  1.00  0.00     0.236 A 
HETATM    4  N   UNL     1      42.274 -10.611   2.109  1.00  0.00    -0.234 NA
HETATM    5  C   UNL     1      41.663 -11.428   1.238  1.00  0.00     0.114 A 
HETATM    6  C   UNL     1      41.340 -12.768   1.428  1.00  0.00     0.053 A 
HETATM    7  S   UNL     1      41.209 -10.832  -0.290  1.00  0.00    -0.073 SA
HETATM    8  C   UNL     1      40.587 -12.337  -0.758  1.00  0.00    -0.008 A 
HETATM    9  C   UNL     1      40.678 -13.293   0.242  1.00  0.00    -0.028 A 
HETATM   10  C   UNL     1      40.179 -14.694   0.009  1.00  0.00     0.041 C 
HETATM   11  C   UNL     1      39.330 -14.827  -1.266  1.00  0.00     0.005 C 
HETATM   12  C   UNL     1      39.919 -14.041  -2.440  1.00  0.00     0.005 C 
HETATM   13  C   UNL     1      39.994 -12.543  -2.118  1.00  0.00     0.047 C 
ENDROOT
BRANCH   1  14
HETATM   14  N   UNL     1      41.444 -14.644   3.044  1.00  0.00    -0.340 N 
HETATM   15  H   UNL     1      40.466 -14.874   3.074  1.00  0.00     0.167 HD
BRANCH  14  16
HETATM   16  C   UNL     1      42.288 -15.709   3.410  1.00  0.00     0.036 A 
HETATM   17  C   UNL     1      42.894 -15.816   4.667  1.00  0.00     0.032 A 
HETATM   18  C   UNL     1      43.697 -16.914   4.993  1.00  0.00     0.042 A 
HETATM   19  C   UNL     1      43.866 -17.950   4.080  1.00  0.00     0.102 A 
HETATM   20  C   UNL     1      43.260 -17.871   2.828  1.00  0.00     0.104 A 
HETATM   21  O   UNL     1      44.713 -18.962   4.440  1.00  0.00    -0.348 OA
HETATM   22  C   UNL     1      42.493 -16.751   2.492  1.00  0.00     0.069 A 
HETATM   23  O   UNL     1      43.443 -18.807   1.847  1.00  0.00    -0.348 OA
HETATM   24  C   UNL     1      42.942 -20.088   2.231  1.00  0.00     0.178 C 
HETATM   25  C   UNL     1      43.930 -20.852   3.101  1.00  0.00     0.053 C 
HETATM   26  C   UNL     1      44.047 -20.224   4.482  1.00  0.00     0.178 C 
ENDBRANCH  14  16
ENDBRANCH   1  14
TORSDOF 2
ENDMDL
MODEL 2
REMARK VINA RESULT:      -8.8      3.703      7.336
REMARK  2 active torsions:
REMARK  status: ('A' for Active; 'I' for Inactive)
REMARK    1  A    between atoms: C_2  and  N_3 
REMARK    2  A    between atoms: N_3  and  C_4 
ROOT
HETATM    1  C   UNL     1      40.921 -15.142   4.479  1.00  0.00     0.143 A 
HETATM    2  N   UNL     1      40.666 -14.156   5.375  1.00  0.00    -0.223 NA
HETATM    3  C   UNL     1      41.497 -13.955   6.403  1.00  0.00     0.236 A 
HETATM    4  N   UNL     1      42.605 -14.633   6.685  1.00  0.00    -0.234 NA
HETATM    5  C   UNL     1      42.848 -15.606   5.795  1.00  0.00     0.114 A 
HETATM    6  C   UNL     1      42.088 -15.932   4.675  1.00  0.00     0.053 A 
HETATM    7  S   UNL     1      44.217 -16.598   5.994  1.00  0.00    -0.073 SA
HETATM    8  C   UNL     1      43.834 -17.505   4.615  1.00  0.00    -0.008 A 
HETATM    9  C   UNL     1      42.697 -17.048   3.966  1.00  0.00    -0.028 A 
HETATM   10  C   UNL     1      42.198 -17.731   2.721  1.00  0.00     0.041 C 
HETATM   11  C   UNL     1      43.217 -18.719   2.128  1.00  0.00     0.005 C 
HETATM   12  C   UNL     1      43.913 -19.552   3.207  1.00  0.00     0.005 C 
HETATM   13  C   UNL     1      44.689 -18.655   4.179  1.00  0.00     0.047 C 
ENDROOT
BRANCH   1  14
HETATM   14  N   UNL     1      40.060 -15.323   3.386  1.00  0.00    -0.340 N 
HETATM   15  H   UNL     1      39.425 -16.096   3.479  1.00  0.00     0.167 HD
BRANCH  14  16
HETATM   16  C   UNL     1      39.948 -14.641   2.161  1.00  0.00     0.036 A 
HETATM   17  C   UNL     1      40.162 -15.247   0.917  1.00  0.00     0.032 A 
HETATM   18  C   UNL     1      40.003 -14.532  -0.275  1.00  0.00     0.042 A 
HETATM   19  C   UNL     1      39.577 -13.208  -0.242  1.00  0.00     0.102 A 
HETATM   20  C   UNL     1      39.344 -12.589   0.985  1.00  0.00     0.104 A 
HETATM   21  O   UNL     1      39.501 -12.551  -1.439  1.00  0.00    -0.348 OA
HETATM   22  C   UNL     1      39.545 -13.296   2.174  1.00  0.00     0.069 A 
HETATM   23  O   UNL     1      39.001 -11.269   1.105  1.00  0.00    -0.348 OA
HETATM   24  C   UNL     1      37.742 -10.987   0.494  1.00  0.00     0.178 C 
HETATM   25  C   UNL     1      37.865 -10.786  -1.009  1.00  0.00     0.053 C 
HETATM   26  C   UNL     1      38.177 -12.097  -1.715  1.00  0.00     0.178 C 
ENDBRANCH  14  16
ENDBRANCH   1  14
TORSDOF 2
ENDMDL
MODEL 3
REMARK VINA RESULT:      -8.7      3.179      7.076
REMARK  2 active torsions:
REMARK  status: ('A' for Active; 'I' for Inactive)
REMARK    1  A    between atoms: C_2  and  N_3 
REMARK    2  A    between atoms: N_3  and  C_4 
ROOT
HETATM    1  C   UNL     1      42.789 -14.658   3.471  1.00  0.00     0.143 A 
HETATM    2  N   UNL     1      42.635 -13.525   4.203  1.00  0.00    -0.223 NA
HETATM    3  C   UNL     1      42.865 -13.544   5.520  1.00  0.00     0.236 A 
HETATM    4  N   UNL     1      43.245 -14.583   6.255  1.00  0.00    -0.234 NA
HETATM    5  C   UNL     1      43.394 -15.698   5.524  1.00  0.00     0.114 A 
HETATM    6  C   UNL     1      43.202 -15.836   4.152  1.00  0.00     0.053 A 
HETATM    7  S   UNL     1      43.862 -17.144   6.290  1.00  0.00    -0.073 SA
HETATM    8  C   UNL     1      43.804 -18.005   4.832  1.00  0.00    -0.008 A 
HETATM    9  C   UNL     1      43.472 -17.208   3.747  1.00  0.00    -0.028 A 
HETATM   10  C   UNL     1      43.369 -17.799   2.366  1.00  0.00     0.041 C 
HETATM   11  C   UNL     1      43.951 -19.219   2.274  1.00  0.00     0.005 C 
HETATM   12  C   UNL     1      43.574 -20.080   3.483  1.00  0.00     0.005 C 
HETATM   13  C   UNL     1      44.113 -19.470   4.782  1.00  0.00     0.047 C 
ENDROOT
BRANCH   1  14
HETATM   14  N   UNL     1      42.578 -14.619   2.085  1.00  0.00    -0.340 N 
HETATM   15  H   UNL     1      43.292 -15.072   1.542  1.00  0.00     0.167 HD
BRANCH  14  16
HETATM   16  C   UNL     1      41.564 -14.028   1.309  1.00  0.00     0.036 A 
HETATM   17  C   UNL     1      41.323 -12.649   1.275  1.00  0.00     0.032 A 
HETATM   18  C   UNL     1      40.325 -12.107   0.459  1.00  0.00     0.042 A 
HETATM   19  C   UNL     1      39.582 -12.935  -0.376  1.00  0.00     0.102 A 
HETATM   20  C   UNL     1      39.815 -14.309  -0.370  1.00  0.00     0.104 A 
HETATM   21  O   UNL     1      38.582 -12.349  -1.102  1.00  0.00    -0.348 OA
HETATM   22  C   UNL     1      40.786 -14.850   0.479  1.00  0.00     0.069 A 
HETATM   23  O   UNL     1      39.075 -15.198  -1.101  1.00  0.00    -0.348 OA
HETATM   24  C   UNL     1      39.211 -14.978  -2.505  1.00  0.00     0.178 C 
HETATM   25  C   UNL     1      38.303 -13.862  -3.002  1.00  0.00     0.053 C 
HETATM   26  C   UNL     1      38.780 -12.505  -2.507  1.00  0.00     0.178 C 
ENDBRANCH  14  16
ENDBRANCH   1  14
TORSDOF 2
ENDMDL
MODEL 4
REMARK VINA RESULT:      -8.5      2.550      4.329
REMARK  2 active torsions:
REMARK  status: ('A' for Active; 'I' for Inactive)
REMARK    1  A    between atoms: C_2  and  N_3 
REMARK    2  A    between atoms: N_3  and  C_4 
ROOT
HETATM    1  C   UNL     1      39.599 -14.292  -0.631  1.00  0.00     0.143 A 
HETATM    2  N   UNL     1      39.126 -15.157  -1.563  1.00  0.00    -0.223 NA
HETATM    3  C   UNL     1      39.188 -14.839  -2.861  1.00  0.00     0.236 A 
HETATM    4  N   UNL     1      39.676 -13.724  -3.394  1.00  0.00    -0.234 NA
HETATM    5  C   UNL     1      40.140 -12.875  -2.465  1.00  0.00     0.114 A 
HETATM    6  C   UNL     1      40.154 -13.064  -1.085  1.00  0.00     0.053 A 
HETATM    7  S   UNL     1      40.792 -11.380  -2.950  1.00  0.00    -0.073 SA
HETATM    8  C   UNL     1      41.095 -10.925  -1.346  1.00  0.00    -0.008 A 
HETATM    9  C   UNL     1      40.748 -11.906  -0.431  1.00  0.00    -0.028 A 
HETATM   10  C   UNL     1      40.941 -11.681   1.045  1.00  0.00     0.041 C 
HETATM   11  C   UNL     1      41.808 -10.450   1.357  1.00  0.00     0.005 C 
HETATM   12  C   UNL     1      41.465  -9.257   0.460  1.00  0.00     0.005 C 
HETATM   13  C   UNL     1      41.700  -9.594  -1.017  1.00  0.00     0.047 C 
ENDROOT
BRANCH   1  14
HETATM   14  N   UNL     1      39.561 -14.649   0.725  1.00  0.00    -0.340 N 
HETATM   15  H   UNL     1      38.712 -14.394   1.199  1.00  0.00     0.167 HD
BRANCH  14  16
HETATM   16  C   UNL     1      40.511 -15.268   1.558  1.00  0.00     0.036 A 
HETATM   17  C   UNL     1      41.844 -15.479   1.184  1.00  0.00     0.032 A 
HETATM   18  C   UNL     1      42.759 -16.068   2.063  1.00  0.00     0.042 A 
HETATM   19  C   UNL     1      42.365 -16.410   3.353  1.00  0.00     0.102 A 
HETATM   20  C   UNL     1      41.047 -16.196   3.751  1.00  0.00     0.104 A 
HETATM   21  O   UNL     1      43.292 -17.037   4.138  1.00  0.00    -0.348 OA
HETATM   22  C   UNL     1      40.126 -15.646   2.854  1.00  0.00     0.069 A 
HETATM   23  O   UNL     1      40.561 -16.578   4.972  1.00  0.00    -0.348 OA
HETATM   24  C   UNL     1      41.209 -15.891   6.043  1.00  0.00     0.178 C 
HETATM   25  C   UNL     1      42.542 -16.526   6.409  1.00  0.00     0.053 C 
HETATM   26  C   UNL     1      43.580 -16.292   5.321  1.00  0.00     0.178 C 
ENDBRANCH  14  16
ENDBRANCH   1  14
TORSDOF 2
ENDMDL
MODEL 5
REMARK VINA RESULT:      -8.4      3.491      7.221
REMARK  2 active torsions:
REMARK  status: ('A' for Active; 'I' for Inactive)
REMARK    1  A    between atoms: C_2  and  N_3 
REMARK    2  A    between atoms: N_3  and  C_4 
ROOT
HETATM    1  C   UNL     1      40.143 -14.058   3.378  1.00  0.00     0.143 A 
HETATM    2  N   UNL     1      39.583 -13.036   4.073  1.00  0.00    -0.223 NA
HETATM    3  C   UNL     1      40.047 -12.719   5.286  1.00  0.00     0.236 A 
HETATM    4  N   UNL     1      41.041 -13.305   5.945  1.00  0.00    -0.234 NA
HETATM    5  C   UNL     1      41.588 -14.315   5.251  1.00  0.00     0.114 A 
HETATM    6  C   UNL     1      41.224 -14.757   3.982  1.00  0.00     0.053 A 
HETATM    7  S   UNL     1      42.868 -15.202   5.936  1.00  0.00    -0.073 SA
HETATM    8  C   UNL     1      42.968 -16.215   4.581  1.00  0.00    -0.008 A 
HETATM    9  C   UNL     1      42.069 -15.874   3.584  1.00  0.00    -0.028 A 
HETATM   10  C   UNL     1      42.008 -16.663   2.304  1.00  0.00     0.041 C 
HETATM   11  C   UNL     1      43.200 -17.619   2.129  1.00  0.00     0.005 C 
HETATM   12  C   UNL     1      43.564 -18.337   3.431  1.00  0.00     0.005 C 
HETATM   13  C   UNL     1      43.963 -17.334   4.520  1.00  0.00     0.047 C 
ENDROOT
BRANCH   1  14
HETATM   14  N   UNL     1      39.671 -14.360   2.092  1.00  0.00    -0.340 N 
HETATM   15  H   UNL     1      38.966 -15.077   2.065  1.00  0.00     0.167 HD
BRANCH  14  16
HETATM   16  C   UNL     1      40.030 -13.870   0.824  1.00  0.00     0.036 A 
HETATM   17  C   UNL     1      39.824 -14.580  -0.365  1.00  0.00     0.032 A 
HETATM   18  C   UNL     1      40.168 -14.033  -1.605  1.00  0.00     0.042 A 
HETATM   19  C   UNL     1      40.679 -12.741  -1.680  1.00  0.00     0.102 A 
HETATM   20  C   UNL     1      40.879 -12.010  -0.510  1.00  0.00     0.104 A 
HETATM   21  O   UNL     1      41.051 -12.291  -2.916  1.00  0.00    -0.348 OA
HETATM   22  C   UNL     1      40.573 -12.579   0.730  1.00  0.00     0.069 A 
HETATM   23  O   UNL     1      41.451 -10.767  -0.491  1.00  0.00    -0.348 OA
HETATM   24  C   UNL     1      40.664  -9.807  -1.196  1.00  0.00     0.178 C 
HETATM   25  C   UNL     1      40.903  -9.860  -2.698  1.00  0.00     0.053 C 
HETATM   26  C   UNL     1      40.319 -11.128  -3.303  1.00  0.00     0.178 C 
ENDBRANCH  14  16
ENDBRANCH   1  14
TORSDOF 2
ENDMDL
MODEL 6
REMARK VINA RESULT:      -8.4      2.178      2.881
REMARK  2 active torsions:
REMARK  status: ('A' for Active; 'I' for Inactive)
REMARK    1  A    between atoms: C_2  and  N_3 
REMARK    2  A    between atoms: N_3  and  C_4 
ROOT
HETATM    1  C   UNL     1      39.355 -13.196   2.405  1.00  0.00     0.143 A 
HETATM    2  N   UNL     1      39.188 -12.446   3.523  1.00  0.00    -0.223 NA
HETATM    3  C   UNL     1      39.080 -11.116   3.426  1.00  0.00     0.236 A 
HETATM    4  N   UNL     1      39.117 -10.385   2.317  1.00  0.00    -0.234 NA
HETATM    5  C   UNL     1      39.284 -11.135   1.217  1.00  0.00     0.114 A 
HETATM    6  C   UNL     1      39.403 -12.520   1.154  1.00  0.00     0.053 A 
HETATM    7  S   UNL     1      39.373 -10.378  -0.305  1.00  0.00    -0.073 SA
HETATM    8  C   UNL     1      39.595 -11.860  -1.095  1.00  0.00    -0.008 A 
HETATM    9  C   UNL     1      39.564 -12.943  -0.230  1.00  0.00    -0.028 A 
HETATM   10  C   UNL     1      39.747 -14.344  -0.750  1.00  0.00     0.041 C 
HETATM   11  C   UNL     1      39.654 -14.434  -2.282  1.00  0.00     0.005 C 
HETATM   12  C   UNL     1      40.383 -13.280  -2.977  1.00  0.00     0.005 C 
HETATM   13  C   UNL     1      39.777 -11.928  -2.580  1.00  0.00     0.047 C 
ENDROOT
BRANCH   1  14
HETATM   14  N   UNL     1      39.435 -14.592   2.514  1.00  0.00    -0.340 N 
HETATM   15  H   UNL     1      38.602 -15.080   2.233  1.00  0.00     0.167 HD
BRANCH  14  16
HETATM   16  C   UNL     1      40.456 -15.437   2.983  1.00  0.00     0.036 A 
HETATM   17  C   UNL     1      41.380 -16.071   2.144  1.00  0.00     0.032 A 
HETATM   18  C   UNL     1      42.400 -16.875   2.664  1.00  0.00     0.042 A 
HETATM   19  C   UNL     1      42.542 -17.017   4.041  1.00  0.00     0.102 A 
HETATM   20  C   UNL     1      41.643 -16.382   4.896  1.00  0.00     0.104 A 
HETATM   21  O   UNL     1      43.521 -17.864   4.479  1.00  0.00    -0.348 OA
HETATM   22  C   UNL     1      40.600 -15.615   4.369  1.00  0.00     0.069 A 
HETATM   23  O   UNL     1      41.666 -16.536   6.255  1.00  0.00    -0.348 OA
HETATM   24  C   UNL     1      42.874 -16.037   6.829  1.00  0.00     0.178 C 
HETATM   25  C   UNL     1      44.014 -17.039   6.728  1.00  0.00     0.053 C 
HETATM   26  C   UNL     1      44.486 -17.192   5.289  1.00  0.00     0.178 C 
ENDBRANCH  14  16
ENDBRANCH   1  14
TORSDOF 2
ENDMDL
MODEL 7
REMARK VINA RESULT:      -8.2      3.416      7.415
REMARK  2 active torsions:
REMARK  status: ('A' for Active; 'I' for Inactive)
REMARK    1  A    between atoms: C_2  and  N_3 
REMARK    2  A    between atoms: N_3  and  C_4 
ROOT
HETATM    1  C   UNL     1      43.116 -15.724   2.384  1.00  0.00     0.143 A 
HETATM    2  N   UNL     1      43.217 -16.920   1.751  1.00  0.00    -0.223 NA
HETATM    3  C   UNL     1      43.383 -18.041   2.461  1.00  0.00     0.236 A 
HETATM    4  N   UNL     1      43.470 -18.150   3.783  1.00  0.00    -0.234 NA
HETATM    5  C   UNL     1      43.370 -16.963   4.400  1.00  0.00     0.114 A 
HETATM    6  C   UNL     1      43.188 -15.718   3.805  1.00  0.00     0.053 A 
HETATM    7  S   UNL     1      43.475 -16.892   6.098  1.00  0.00    -0.073 SA
HETATM    8  C   UNL     1      43.302 -15.207   6.097  1.00  0.00    -0.008 A 
HETATM    9  C   UNL     1      43.125 -14.682   4.826  1.00  0.00    -0.028 A 
HETATM   10  C   UNL     1      42.957 -13.200   4.625  1.00  0.00     0.041 C 
HETATM   11  C   UNL     1      42.704 -12.440   5.938  1.00  0.00     0.005 C 
HETATM   12  C   UNL     1      43.592 -12.942   7.080  1.00  0.00     0.005 C 
HETATM   13  C   UNL     1      43.326 -14.423   7.373  1.00  0.00     0.047 C 
ENDROOT
BRANCH   1  14
HETATM   14  N   UNL     1      42.908 -14.559   1.632  1.00  0.00    -0.340 N 
HETATM   15  H   UNL     1      43.741 -14.028   1.448  1.00  0.00     0.167 HD
BRANCH  14  16
HETATM   16  C   UNL     1      41.737 -13.974   1.116  1.00  0.00     0.036 A 
HETATM   17  C   UNL     1      41.321 -12.675   1.428  1.00  0.00     0.032 A 
HETATM   18  C   UNL     1      40.166 -12.127   0.861  1.00  0.00     0.042 A 
HETATM   19  C   UNL     1      39.434 -12.856  -0.070  1.00  0.00     0.102 A 
HETATM   20  C   UNL     1      39.837 -14.147  -0.407  1.00  0.00     0.104 A 
HETATM   21  O   UNL     1      38.283 -12.285  -0.539  1.00  0.00    -0.348 OA
HETATM   22  C   UNL     1      40.969 -14.705   0.196  1.00  0.00     0.069 A 
HETATM   23  O   UNL     1      39.128 -14.957  -1.251  1.00  0.00    -0.348 OA
HETATM   24  C   UNL     1      39.055 -14.419  -2.572  1.00  0.00     0.178 C 
HETATM   25  C   UNL     1      37.957 -13.373  -2.704  1.00  0.00     0.053 C 
HETATM   26  C   UNL     1      38.317 -12.100  -1.954  1.00  0.00     0.178 C 
ENDBRANCH  14  16
ENDBRANCH   1  14
TORSDOF 2
ENDMDL
MODEL 8
REMARK VINA RESULT:      -8.1      1.878      2.020
REMARK  2 active torsions:
REMARK  status: ('A' for Active; 'I' for Inactive)
REMARK    1  A    between atoms: C_2  and  N_3 
REMARK    2  A    between atoms: N_3  and  C_4 
ROOT
HETATM    1  C   UNL     1      39.305 -13.042   2.457  1.00  0.00     0.143 A 
HETATM    2  N   UNL     1      39.081 -12.240   3.528  1.00  0.00    -0.223 NA
HETATM    3  C   UNL     1      38.804 -10.944   3.346  1.00  0.00     0.236 A 
HETATM    4  N   UNL     1      38.715 -10.295   2.190  1.00  0.00    -0.234 NA
HETATM    5  C   UNL     1      38.939 -11.096   1.137  1.00  0.00     0.114 A 
HETATM    6  C   UNL     1      39.228 -12.457   1.162  1.00  0.00     0.053 A 
HETATM    7  S   UNL     1      38.885 -10.445  -0.435  1.00  0.00    -0.073 SA
HETATM    8  C   UNL     1      39.264 -11.942  -1.131  1.00  0.00    -0.008 A 
HETATM    9  C   UNL     1      39.397 -12.956  -0.195  1.00  0.00    -0.028 A 
HETATM   10  C   UNL     1      39.736 -14.357  -0.626  1.00  0.00     0.041 C 
HETATM   11  C   UNL     1      39.607 -14.568  -2.144  1.00  0.00     0.005 C 
HETATM   12  C   UNL     1      40.164 -13.386  -2.943  1.00  0.00     0.005 C 
HETATM   13  C   UNL     1      39.407 -12.094  -2.615  1.00  0.00     0.047 C 
ENDROOT
BRANCH   1  14
HETATM   14  N   UNL     1      39.561 -14.406   2.657  1.00  0.00    -0.340 N 
HETATM   15  H   UNL     1      38.798 -15.014   2.416  1.00  0.00     0.167 HD
BRANCH  14  16
HETATM   16  C   UNL     1      40.683 -15.082   3.171  1.00  0.00     0.036 A 
HETATM   17  C   UNL     1      41.109 -14.971   4.500  1.00  0.00     0.032 A 
HETATM   18  C   UNL     1      42.212 -15.692   4.970  1.00  0.00     0.042 A 
HETATM   19  C   UNL     1      42.877 -16.577   4.128  1.00  0.00     0.102 A 
HETATM   20  C   UNL     1      42.460 -16.715   2.805  1.00  0.00     0.104 A 
HETATM   21  O   UNL     1      43.982 -17.203   4.634  1.00  0.00    -0.348 OA
HETATM   22  C   UNL     1      41.384 -15.959   2.329  1.00  0.00     0.069 A 
HETATM   23  O   UNL     1      43.110 -17.502   1.893  1.00  0.00    -0.348 OA
HETATM   24  C   UNL     1      43.076 -18.882   2.259  1.00  0.00     0.178 C 
HETATM   25  C   UNL     1      44.149 -19.232   3.278  1.00  0.00     0.053 C 
HETATM   26  C   UNL     1      43.836 -18.623   4.637  1.00  0.00     0.178 C 
ENDBRANCH  14  16
ENDBRANCH   1  14
TORSDOF 2
ENDMDL
MODEL 9
REMARK VINA RESULT:      -8.1      5.462      8.445
REMARK  2 active torsions:
REMARK  status: ('A' for Active; 'I' for Inactive)
REMARK    1  A    between atoms: C_2  and  N_3 
REMARK    2  A    between atoms: N_3  and  C_4 
ROOT
HETATM    1  C   UNL     1      43.498 -11.849   4.817  1.00  0.00     0.143 A 
HETATM    2  N   UNL     1      43.383 -11.036   3.736  1.00  0.00    -0.223 NA
HETATM    3  C   UNL     1      42.725 -11.457   2.650  1.00  0.00     0.236 A 
HETATM    4  N   UNL     1      42.135 -12.634   2.474  1.00  0.00    -0.234 NA
HETATM    5  C   UNL     1      42.255 -13.431   3.546  1.00  0.00     0.114 A 
HETATM    6  C   UNL     1      42.897 -13.137   4.745  1.00  0.00     0.053 A 
HETATM    7  S   UNL     1      41.577 -14.992   3.507  1.00  0.00    -0.073 SA
HETATM    8  C   UNL     1      42.131 -15.336   5.071  1.00  0.00    -0.008 A 
HETATM    9  C   UNL     1      42.796 -14.269   5.655  1.00  0.00    -0.028 A 
HETATM   10  C   UNL     1      43.365 -14.388   7.044  1.00  0.00     0.041 C 
HETATM   11  C   UNL     1      42.866 -15.635   7.793  1.00  0.00     0.005 C 
HETATM   12  C   UNL     1      42.828 -16.874   6.895  1.00  0.00     0.005 C 
HETATM   13  C   UNL     1      41.877 -16.666   5.711  1.00  0.00     0.047 C 
ENDROOT
BRANCH   1  14
HETATM   14  N   UNL     1      44.161 -11.386   5.963  1.00  0.00    -0.340 N 
HETATM   15  H   UNL     1      45.140 -11.613   5.998  1.00  0.00     0.167 HD
BRANCH  14  16
HETATM   16  C   UNL     1      43.698 -10.692   7.095  1.00  0.00     0.036 A 
HETATM   17  C   UNL     1      42.607  -9.816   7.071  1.00  0.00     0.032 A 
HETATM   18  C   UNL     1      42.165  -9.176   8.234  1.00  0.00     0.042 A 
HETATM   19  C   UNL     1      42.779  -9.443   9.453  1.00  0.00     0.102 A 
HETATM   20  C   UNL     1      43.858 -10.323   9.503  1.00  0.00     0.104 A 
HETATM   21  O   UNL     1      42.337  -8.738  10.538  1.00  0.00    -0.348 OA
HETATM   22  C   UNL     1      44.323 -10.927   8.330  1.00  0.00     0.069 A 
HETATM   23  O   UNL     1      44.566 -10.577  10.646  1.00  0.00    -0.348 OA
HETATM   24  C   UNL     1      43.758 -11.193  11.649  1.00  0.00     0.178 C 
HETATM   25  C   UNL     1      42.931 -10.177  12.424  1.00  0.00     0.053 C 
HETATM   26  C   UNL     1      41.824  -9.595  11.558  1.00  0.00     0.178 C 
ENDBRANCH  14  16
ENDBRANCH   1  14
TORSDOF 2
ENDMDL
MODEL 10
REMARK VINA RESULT:      -8.1      4.692      7.726
REMARK  2 active torsions:
REMARK  status: ('A' for Active; 'I' for Inactive)
REMARK    1  A    between atoms: C_2  and  N_3 
REMARK    2  A    between atoms: N_3  and  C_4 
ROOT
HETATM    1  C   UNL     1      43.068 -13.350   4.444  1.00  0.00     0.143 A 
HETATM    2  N   UNL     1      42.637 -12.177   3.914  1.00  0.00    -0.223 NA
HETATM    3  C   UNL     1      42.099 -12.155   2.690  1.00  0.00     0.236 A 
HETATM    4  N   UNL     1      41.919 -13.186   1.872  1.00  0.00    -0.234 NA
HETATM    5  C   UNL     1      42.349 -14.340   2.403  1.00  0.00     0.114 A 
HETATM    6  C   UNL     1      42.920 -14.527   3.658  1.00  0.00     0.053 A 
HETATM    7  S   UNL     1      42.220 -15.776   1.498  1.00  0.00    -0.073 SA
HETATM    8  C   UNL     1      42.936 -16.688   2.733  1.00  0.00    -0.008 A 
HETATM    9  C   UNL     1      43.244 -15.933   3.854  1.00  0.00    -0.028 A 
HETATM   10  C   UNL     1      43.891 -16.571   5.054  1.00  0.00     0.041 C 
HETATM   11  C   UNL     1      43.869 -18.108   5.004  1.00  0.00     0.005 C 
HETATM   12  C   UNL     1      44.194 -18.647   3.608  1.00  0.00     0.005 C 
HETATM   13  C   UNL     1      43.166 -18.160   2.578  1.00  0.00     0.047 C 
ENDROOT
BRANCH   1  14
HETATM   14  N   UNL     1      43.601 -13.368   5.741  1.00  0.00    -0.340 N 
HETATM   15  H   UNL     1      43.539 -14.257   6.205  1.00  0.00     0.167 HD
BRANCH  14  16
HETATM   16  C   UNL     1      44.176 -12.355   6.531  1.00  0.00     0.036 A 
HETATM   17  C   UNL     1      45.422 -11.778   6.259  1.00  0.00     0.032 A 
HETATM   18  C   UNL     1      45.934 -10.749   7.056  1.00  0.00     0.042 A 
HETATM   19  C   UNL     1      45.181 -10.245   8.112  1.00  0.00     0.102 A 
HETATM   20  C   UNL     1      43.931 -10.795   8.392  1.00  0.00     0.104 A 
HETATM   21  O   UNL     1      45.766  -9.282   8.887  1.00  0.00    -0.348 OA
HETATM   22  C   UNL     1      43.444 -11.853   7.618  1.00  0.00     0.069 A 
HETATM   23  O   UNL     1      43.166 -10.412   9.460  1.00  0.00    -0.348 OA
HETATM   24  C   UNL     1      42.767  -9.044   9.366  1.00  0.00     0.178 C 
HETATM   25  C   UNL     1      43.855  -8.095   9.846  1.00  0.00     0.053 C 
HETATM   26  C   UNL     1      45.024  -8.063   8.873  1.00  0.00     0.178 C 
ENDBRANCH  14  16
ENDBRANCH   1  14
TORSDOF 2
ENDMDL
