MODEL 1
REMARK VINA RESULT:      -9.6      0.000      0.000
REMARK  8 active torsions:
REMARK  status: ('A' for Active; 'I' for Inactive)
REMARK    1  A    between atoms: C_4  and  C_5 
REMARK    2  A    between atoms: C_5  and  C_6 
REMARK    3  A    between atoms: C_6  and  C_7 
REMARK    4  A    between atoms: C_7  and  N_8 
REMARK    5  A    between atoms: C_17  and  C_18 
REMARK    6  A    between atoms: C_18  and  N_19 
REMARK    7  A    between atoms: C_23  and  O_24 
REMARK    8  A    between atoms: C_23  and  C_25 
ROOT
HETATM    1  N   UNL     1      40.172 -14.899   1.468  1.00  0.00    -0.065 N 
HETATM    2  H   UNL     1      39.413 -15.591   1.443  1.00  0.00     0.280 HD
HETATM    3  C   UNL     1      39.863 -14.034   2.676  1.00  0.00     0.276 C 
HETATM    4  C   UNL     1      40.904 -13.006   3.022  1.00  0.00     0.001 A 
HETATM    5  C   UNL     1      41.215 -11.985   2.122  1.00  0.00     0.076 A 
HETATM    6  O   UNL     1      40.567 -11.879   0.924  1.00  0.00    -0.349 OA
HETATM    7  C   UNL     1      40.936 -12.930   0.022  1.00  0.00     0.203 C 
HETATM    8  C   UNL     1      39.998 -14.133   0.155  1.00  0.00     0.261 C 
HETATM    9  C   UNL     1      41.552 -13.015   4.271  1.00  0.00     0.020 A 
HETATM   10  C   UNL     1      42.499 -12.027   4.614  1.00  0.00    -0.032 A 
HETATM   11  C   UNL     1      42.787 -11.020   3.683  1.00  0.00     0.011 A 
HETATM   12  C   UNL     1      42.133 -10.991   2.450  1.00  0.00     0.038 A 
ENDROOT
BRANCH  10  13
HETATM   13  C   UNL     1      43.186 -12.060   5.959  1.00  0.00     0.273 C 
BRANCH  13  14
HETATM   14  N   UNL     1      43.732 -10.727   6.444  1.00  0.00    -0.067 N 
HETATM   15  H   UNL     1      44.027 -10.207   5.605  1.00  0.00     0.280 HD
HETATM   16  C   UNL     1      42.698  -9.880   7.149  1.00  0.00     0.238 C 
HETATM   17  C   UNL     1      43.322  -8.572   7.598  1.00  0.00     0.071 C 
HETATM   18  C   UNL     1      44.488  -8.805   8.579  1.00  0.00     0.089 C 
HETATM   19  C   UNL     1      45.531  -9.646   7.816  1.00  0.00     0.071 C 
HETATM   20  C   UNL     1      44.970 -10.958   7.288  1.00  0.00     0.238 C 
BRANCH  18  21
HETATM   21  O   UNL     1      45.089  -7.529   8.802  1.00  0.00    -0.385 OA
HETATM   22  H   UNL     1      44.583  -6.833   8.342  1.00  0.00     0.211 HD
ENDBRANCH  18  21
BRANCH  18  23
HETATM   23  C   UNL     1      44.023  -9.357   9.922  1.00  0.00    -0.006 A 
HETATM   24  C   UNL     1      44.398 -10.609  10.407  1.00  0.00     0.126 A 
HETATM   25  N   UNL     1      43.938 -11.159  11.550  1.00  0.00    -0.272 NA
HETATM   26  C   UNL     1      43.125 -10.408  12.319  1.00  0.00     0.116 A 
HETATM   27  C   UNL     1      42.739  -9.127  11.977  1.00  0.00     0.020 A 
HETATM   28  C   UNL     1      43.197  -8.600  10.771  1.00  0.00     0.013 A 
ENDBRANCH  18  23
ENDBRANCH  13  14
ENDBRANCH  10  13
BRANCH   1  29
HETATM   29  C   UNL     1      41.465 -15.688   1.517  1.00  0.00     0.236 C 
BRANCH  29  30
HETATM   30  C   UNL     1      41.652 -16.492   2.802  1.00  0.00     0.039 C 
BRANCH  30  31
HETATM   31  C   UNL     1      43.107 -16.750   3.234  1.00  0.00     0.040 C 
HETATM   32  C   UNL     1      43.411 -16.152   4.609  1.00  0.00     0.017 C 
BRANCH  31  33
HETATM   33  C   UNL     1      43.379 -18.218   3.184  1.00  0.00     0.057 A 
HETATM   34  O   UNL     1      43.810 -18.775   4.356  1.00  0.00    -0.319 OA
HETATM   35  C   UNL     1      43.991 -20.106   4.123  1.00  0.00     0.049 A 
HETATM   36  C   UNL     1      44.429 -20.937   5.262  1.00  0.00     0.076 C 
HETATM   37  C   UNL     1      43.702 -20.400   2.808  1.00  0.00     0.035 A 
HETATM   38  C   UNL     1      43.312 -19.184   2.201  1.00  0.00     0.035 A 
ENDBRANCH  31  33
ENDBRANCH  30  31
ENDBRANCH  29  30
ENDBRANCH   1  29
TORSDOF 8
ENDMDL
MODEL 2
REMARK VINA RESULT:      -9.2      2.775      9.447
REMARK  8 active torsions:
REMARK  status: ('A' for Active; 'I' for Inactive)
REMARK    1  A    between atoms: C_4  and  C_5 
REMARK    2  A    between atoms: C_5  and  C_6 
REMARK    3  A    between atoms: C_6  and  C_7 
REMARK    4  A    between atoms: C_7  and  N_8 
REMARK    5  A    between atoms: C_17  and  C_18 
REMARK    6  A    between atoms: C_18  and  N_19 
REMARK    7  A    between atoms: C_23  and  O_24 
REMARK    8  A    between atoms: C_23  and  C_25 
ROOT
HETATM    1  N   UNL     1      42.928 -16.632   6.632  1.00  0.00    -0.065 N 
HETATM    2  H   UNL     1      42.447 -16.686   7.538  1.00  0.00     0.280 HD
HETATM    3  C   UNL     1      41.818 -16.421   5.621  1.00  0.00     0.276 C 
HETATM    4  C   UNL     1      42.266 -16.176   4.206  1.00  0.00     0.001 A 
HETATM    5  C   UNL     1      42.982 -17.153   3.513  1.00  0.00     0.076 A 
HETATM    6  O   UNL     1      43.269 -18.358   4.088  1.00  0.00    -0.349 OA
HETATM    7  C   UNL     1      44.244 -18.235   5.131  1.00  0.00     0.203 C 
HETATM    8  C   UNL     1      43.577 -18.011   6.492  1.00  0.00     0.261 C 
HETATM    9  C   UNL     1      41.936 -14.985   3.532  1.00  0.00     0.020 A 
HETATM   10  C   UNL     1      42.320 -14.771   2.192  1.00  0.00    -0.032 A 
HETATM   11  C   UNL     1      43.040 -15.774   1.529  1.00  0.00     0.011 A 
HETATM   12  C   UNL     1      43.354 -16.967   2.184  1.00  0.00     0.038 A 
ENDROOT
BRANCH  10  13
HETATM   13  C   UNL     1      41.958 -13.483   1.489  1.00  0.00     0.273 C 
BRANCH  13  14
HETATM   14  N   UNL     1      40.565 -13.439   0.884  1.00  0.00    -0.067 N 
HETATM   15  H   UNL     1      39.973 -14.053   1.463  1.00  0.00     0.280 HD
HETATM   16  C   UNL     1      39.942 -12.063   0.920  1.00  0.00     0.238 C 
HETATM   17  C   UNL     1      38.558 -12.107   0.300  1.00  0.00     0.071 C 
HETATM   18  C   UNL     1      38.607 -12.565  -1.171  1.00  0.00     0.089 C 
HETATM   19  C   UNL     1      39.220 -13.979  -1.161  1.00  0.00     0.071 C 
HETATM   20  C   UNL     1      40.594 -14.030  -0.511  1.00  0.00     0.238 C 
BRANCH  18  21
HETATM   21  O   UNL     1      37.251 -12.719  -1.591  1.00  0.00    -0.385 OA
HETATM   22  H   UNL     1      37.090 -12.211  -2.408  1.00  0.00     0.211 HD
ENDBRANCH  18  21
BRANCH  18  23
HETATM   23  C   UNL     1      39.276 -11.541  -2.081  1.00  0.00    -0.006 A 
HETATM   24  C   UNL     1      40.299 -11.862  -2.973  1.00  0.00     0.126 A 
HETATM   25  N   UNL     1      40.968 -10.966  -3.729  1.00  0.00    -0.272 NA
HETATM   26  C   UNL     1      40.558  -9.683  -3.682  1.00  0.00     0.116 A 
HETATM   27  C   UNL     1      39.511  -9.257  -2.889  1.00  0.00     0.020 A 
HETATM   28  C   UNL     1      38.866 -10.197  -2.087  1.00  0.00     0.013 A 
ENDBRANCH  18  23
ENDBRANCH  13  14
ENDBRANCH  10  13
BRANCH   1  29
HETATM   29  C   UNL     1      43.947 -15.518   6.759  1.00  0.00     0.236 C 
BRANCH  29  30
HETATM   30  C   UNL     1      43.360 -14.195   7.248  1.00  0.00     0.039 C 
BRANCH  30  31
HETATM   31  C   UNL     1      43.517 -12.992   6.299  1.00  0.00     0.040 C 
HETATM   32  C   UNL     1      42.175 -12.325   5.994  1.00  0.00     0.017 C 
BRANCH  31  33
HETATM   33  C   UNL     1      44.504 -12.035   6.883  1.00  0.00     0.057 A 
HETATM   34  O   UNL     1      44.218 -11.594   8.145  1.00  0.00    -0.319 OA
HETATM   35  C   UNL     1      45.225 -10.750   8.512  1.00  0.00     0.049 A 
HETATM   36  C   UNL     1      45.155 -10.164   9.865  1.00  0.00     0.076 C 
HETATM   37  C   UNL     1      46.139 -10.631   7.487  1.00  0.00     0.035 A 
HETATM   38  C   UNL     1      45.673 -11.454   6.436  1.00  0.00     0.035 A 
ENDBRANCH  31  33
ENDBRANCH  30  31
ENDBRANCH  29  30
ENDBRANCH   1  29
TORSDOF 8
ENDMDL
MODEL 3
REMARK VINA RESULT:      -9.1      1.872      2.414
REMARK  8 active torsions:
REMARK  status: ('A' for Active; 'I' for Inactive)
REMARK    1  A    between atoms: C_4  and  C_5 
REMARK    2  A    between atoms: C_5  and  C_6 
REMARK    3  A    between atoms: C_6  and  C_7 
REMARK    4  A    between atoms: C_7  and  N_8 
REMARK    5  A    between atoms: C_17  and  C_18 
REMARK    6  A    between atoms: C_18  and  N_19 
REMARK    7  A    between atoms: C_23  and  O_24 
REMARK    8  A    between atoms: C_23  and  C_25 
ROOT
HETATM    1  N   UNL     1      39.667 -14.298   0.916  1.00  0.00    -0.065 N 
HETATM    2  H   UNL     1      38.840 -14.896   0.793  1.00  0.00     0.280 HD
HETATM    3  C   UNL     1      39.323 -13.407   2.095  1.00  0.00     0.276 C 
HETATM    4  C   UNL     1      40.430 -12.510   2.575  1.00  0.00     0.001 A 
HETATM    5  C   UNL     1      40.960 -11.530   1.734  1.00  0.00     0.076 A 
HETATM    6  O   UNL     1      40.472 -11.345   0.472  1.00  0.00    -0.349 OA
HETATM    7  C   UNL     1      40.818 -12.429  -0.400  1.00  0.00     0.203 C 
HETATM    8  C   UNL     1      39.736 -13.513  -0.395  1.00  0.00     0.261 C 
HETATM    9  C   UNL     1      40.924 -12.601   3.890  1.00  0.00     0.020 A 
HETATM   10  C   UNL     1      41.934 -11.732   4.356  1.00  0.00    -0.032 A 
HETATM   11  C   UNL     1      42.443 -10.762   3.481  1.00  0.00     0.011 A 
HETATM   12  C   UNL     1      41.944 -10.653   2.182  1.00  0.00     0.038 A 
ENDROOT
BRANCH  10  13
HETATM   13  C   UNL     1      42.452 -11.850   5.770  1.00  0.00     0.273 C 
BRANCH  13  14
HETATM   14  N   UNL     1      43.188 -10.630   6.298  1.00  0.00    -0.067 N 
HETATM   15  H   UNL     1      43.588 -10.149   5.479  1.00  0.00     0.280 HD
HETATM   16  C   UNL     1      42.280  -9.640   6.992  1.00  0.00     0.238 C 
HETATM   17  C   UNL     1      43.090  -8.456   7.486  1.00  0.00     0.071 C 
HETATM   18  C   UNL     1      44.174  -8.889   8.494  1.00  0.00     0.089 C 
HETATM   19  C   UNL     1      45.092  -9.872   7.742  1.00  0.00     0.071 C 
HETATM   20  C   UNL     1      44.346 -11.069   7.171  1.00  0.00     0.238 C 
BRANCH  18  21
HETATM   21  O   UNL     1      44.963  -7.728   8.760  1.00  0.00    -0.385 OA
HETATM   22  H   UNL     1      44.454  -6.921   8.558  1.00  0.00     0.211 HD
ENDBRANCH  18  21
BRANCH  18  23
HETATM   23  C   UNL     1      43.586  -9.381   9.811  1.00  0.00    -0.006 A 
HETATM   24  C   UNL     1      42.369  -8.933  10.322  1.00  0.00     0.126 A 
HETATM   25  N   UNL     1      41.863  -9.285  11.523  1.00  0.00    -0.272 NA
HETATM   26  C   UNL     1      42.542 -10.203  12.239  1.00  0.00     0.116 A 
HETATM   27  C   UNL     1      43.724 -10.771  11.805  1.00  0.00     0.020 A 
HETATM   28  C   UNL     1      44.244 -10.357  10.580  1.00  0.00     0.013 A 
ENDBRANCH  18  23
ENDBRANCH  13  14
ENDBRANCH  10  13
BRANCH   1  29
HETATM   29  C   UNL     1      40.844 -15.235   1.099  1.00  0.00     0.236 C 
BRANCH  29  30
HETATM   30  C   UNL     1      40.710 -16.171   2.299  1.00  0.00     0.039 C 
BRANCH  30  31
HETATM   31  C   UNL     1      41.977 -16.361   3.154  1.00  0.00     0.040 C 
HETATM   32  C   UNL     1      43.124 -15.466   2.685  1.00  0.00     0.017 C 
BRANCH  31  33
HETATM   33  C   UNL     1      41.634 -16.136   4.590  1.00  0.00     0.057 A 
HETATM   34  O   UNL     1      42.657 -15.670   5.370  1.00  0.00    -0.319 OA
HETATM   35  C   UNL     1      42.159 -15.515   6.631  1.00  0.00     0.049 A 
HETATM   36  C   UNL     1      43.078 -14.986   7.658  1.00  0.00     0.076 C 
HETATM   37  C   UNL     1      40.836 -15.899   6.668  1.00  0.00     0.035 A 
HETATM   38  C   UNL     1      40.499 -16.304   5.355  1.00  0.00     0.035 A 
ENDBRANCH  31  33
ENDBRANCH  30  31
ENDBRANCH  29  30
ENDBRANCH   1  29
TORSDOF 8
ENDMDL
MODEL 4
REMARK VINA RESULT:      -9.0      2.576      9.590
REMARK  8 active torsions:
REMARK  status: ('A' for Active; 'I' for Inactive)
REMARK    1  A    between atoms: C_4  and  C_5 
REMARK    2  A    between atoms: C_5  and  C_6 
REMARK    3  A    between atoms: C_6  and  C_7 
REMARK    4  A    between atoms: C_7  and  N_8 
REMARK    5  A    between atoms: C_17  and  C_18 
REMARK    6  A    between atoms: C_18  and  N_19 
REMARK    7  A    between atoms: C_23  and  O_24 
REMARK    8  A    between atoms: C_23  and  C_25 
ROOT
HETATM    1  N   UNL     1      42.553 -15.437   6.796  1.00  0.00    -0.065 N 
HETATM    2  H   UNL     1      42.218 -15.349   7.764  1.00  0.00     0.280 HD
HETATM    3  C   UNL     1      41.435 -16.161   6.069  1.00  0.00     0.276 C 
HETATM    4  C   UNL     1      41.615 -16.305   4.583  1.00  0.00     0.001 A 
HETATM    5  C   UNL     1      42.690 -17.034   4.069  1.00  0.00     0.076 A 
HETATM    6  O   UNL     1      43.584 -17.651   4.897  1.00  0.00    -0.349 OA
HETATM    7  C   UNL     1      44.415 -16.707   5.585  1.00  0.00     0.203 C 
HETATM    8  C   UNL     1      43.805 -16.305   6.931  1.00  0.00     0.261 C 
HETATM    9  C   UNL     1      40.686 -15.758   3.678  1.00  0.00     0.020 A 
HETATM   10  C   UNL     1      40.830 -15.928   2.286  1.00  0.00    -0.032 A 
HETATM   11  C   UNL     1      41.924 -16.663   1.807  1.00  0.00     0.011 A 
HETATM   12  C   UNL     1      42.838 -17.228   2.698  1.00  0.00     0.038 A 
ENDROOT
BRANCH  10  13
HETATM   13  C   UNL     1      39.823 -15.327   1.333  1.00  0.00     0.273 C 
BRANCH  13  14
HETATM   14  N   UNL     1      40.411 -14.539   0.174  1.00  0.00    -0.067 N 
HETATM   15  H   UNL     1      41.314 -14.980  -0.053  1.00  0.00     0.280 HD
HETATM   16  C   UNL     1      39.564 -14.596  -1.076  1.00  0.00     0.238 C 
HETATM   17  C   UNL     1      40.220 -13.788  -2.180  1.00  0.00     0.071 C 
HETATM   18  C   UNL     1      40.378 -12.306  -1.784  1.00  0.00     0.089 C 
HETATM   19  C   UNL     1      41.268 -12.290  -0.526  1.00  0.00     0.071 C 
HETATM   20  C   UNL     1      40.703 -13.120   0.617  1.00  0.00     0.238 C 
BRANCH  18  21
HETATM   21  O   UNL     1      41.141 -11.690  -2.822  1.00  0.00    -0.385 OA
HETATM   22  H   UNL     1      40.553 -11.384  -3.538  1.00  0.00     0.211 HD
ENDBRANCH  18  21
BRANCH  18  23
HETATM   23  C   UNL     1      39.041 -11.582  -1.678  1.00  0.00    -0.006 A 
HETATM   24  C   UNL     1      38.763 -10.625  -0.703  1.00  0.00     0.126 A 
HETATM   25  N   UNL     1      37.564 -10.029  -0.531  1.00  0.00    -0.272 NA
HETATM   26  C   UNL     1      36.594 -10.315  -1.421  1.00  0.00     0.116 A 
HETATM   27  C   UNL     1      36.772 -11.195  -2.471  1.00  0.00     0.020 A 
HETATM   28  C   UNL     1      38.007 -11.827  -2.599  1.00  0.00     0.013 A 
ENDBRANCH  18  23
ENDBRANCH  13  14
ENDBRANCH  10  13
BRANCH   1  29
HETATM   29  C   UNL     1      42.864 -14.031   6.326  1.00  0.00     0.236 C 
BRANCH  29  30
HETATM   30  C   UNL     1      43.888 -13.301   7.192  1.00  0.00     0.039 C 
BRANCH  30  31
HETATM   31  C   UNL     1      44.653 -12.150   6.513  1.00  0.00     0.040 C 
HETATM   32  C   UNL     1      43.863 -11.544   5.352  1.00  0.00     0.017 C 
BRANCH  31  33
HETATM   33  C   UNL     1      45.016 -11.130   7.543  1.00  0.00     0.057 A 
HETATM   34  O   UNL     1      44.325 -11.213   8.720  1.00  0.00    -0.319 OA
HETATM   35  C   UNL     1      44.796 -10.223   9.531  1.00  0.00     0.049 A 
HETATM   36  C   UNL     1      44.218 -10.129  10.886  1.00  0.00     0.076 C 
HETATM   37  C   UNL     1      45.765  -9.495   8.875  1.00  0.00     0.035 A 
HETATM   38  C   UNL     1      45.904 -10.075   7.593  1.00  0.00     0.035 A 
ENDBRANCH  31  33
ENDBRANCH  30  31
ENDBRANCH  29  30
ENDBRANCH   1  29
TORSDOF 8
ENDMDL
MODEL 5
REMARK VINA RESULT:      -8.8      3.030     10.054
REMARK  8 active torsions:
REMARK  status: ('A' for Active; 'I' for Inactive)
REMARK    1  A    between atoms: C_4  and  C_5 
REMARK    2  A    between atoms: C_5  and  C_6 
REMARK    3  A    between atoms: C_6  and  C_7 
REMARK    4  A    between atoms: C_7  and  N_8 
REMARK    5  A    between atoms: C_17  and  C_18 
REMARK    6  A    between atoms: C_18  and  N_19 
REMARK    7  A    between atoms: C_23  and  O_24 
REMARK    8  A    between atoms: C_23  and  C_25 
ROOT
HETATM    1  N   UNL     1      42.183 -14.284   6.852  1.00  0.00    -0.065 N 
HETATM    2  H   UNL     1      42.186 -13.892   7.802  1.00  0.00     0.280 HD
HETATM    3  C   UNL     1      40.783 -14.016   6.332  1.00  0.00     0.276 C 
HETATM    4  C   UNL     1      40.546 -14.380   4.892  1.00  0.00     0.001 A 
HETATM    5  C   UNL     1      40.662 -15.706   4.471  1.00  0.00     0.076 A 
HETATM    6  O   UNL     1      40.967 -16.703   5.354  1.00  0.00    -0.349 OA
HETATM    7  C   UNL     1      42.324 -16.617   5.809  1.00  0.00     0.203 C 
HETATM    8  C   UNL     1      42.431 -15.776   7.084  1.00  0.00     0.261 C 
HETATM    9  C   UNL     1      40.154 -13.412   3.949  1.00  0.00     0.020 A 
HETATM   10  C   UNL     1      39.890 -13.759   2.607  1.00  0.00    -0.032 A 
HETATM   11  C   UNL     1      40.020 -15.100   2.221  1.00  0.00     0.011 A 
HETATM   12  C   UNL     1      40.388 -16.071   3.155  1.00  0.00     0.038 A 
ENDROOT
BRANCH  10  13
HETATM   13  C   UNL     1      39.474 -12.702   1.611  1.00  0.00     0.273 C 
BRANCH  13  14
HETATM   14  N   UNL     1      39.127 -13.215   0.223  1.00  0.00    -0.067 N 
HETATM   15  H   UNL     1      38.759 -14.170   0.346  1.00  0.00     0.280 HD
HETATM   16  C   UNL     1      38.045 -12.408  -0.457  1.00  0.00     0.238 C 
HETATM   17  C   UNL     1      37.759 -12.985  -1.831  1.00  0.00     0.071 C 
HETATM   18  C   UNL     1      39.008 -12.954  -2.733  1.00  0.00     0.089 C 
HETATM   19  C   UNL     1      40.075 -13.808  -2.020  1.00  0.00     0.071 C 
HETATM   20  C   UNL     1      40.386 -13.323  -0.612  1.00  0.00     0.238 C 
BRANCH  18  21
HETATM   21  O   UNL     1      38.662 -13.659  -3.926  1.00  0.00    -0.385 OA
HETATM   22  H   UNL     1      37.758 -13.423  -4.207  1.00  0.00     0.211 HD
ENDBRANCH  18  21
BRANCH  18  23
HETATM   23  C   UNL     1      39.419 -11.536  -3.117  1.00  0.00    -0.006 A 
HETATM   24  C   UNL     1      40.743 -11.152  -3.326  1.00  0.00     0.126 A 
HETATM   25  N   UNL     1      41.145  -9.890  -3.582  1.00  0.00    -0.272 NA
HETATM   26  C   UNL     1      40.190  -8.952  -3.734  1.00  0.00     0.116 A 
HETATM   27  C   UNL     1      38.842  -9.225  -3.618  1.00  0.00     0.020 A 
HETATM   28  C   UNL     1      38.458 -10.530  -3.311  1.00  0.00     0.013 A 
ENDBRANCH  18  23
ENDBRANCH  13  14
ENDBRANCH  10  13
BRANCH   1  29
HETATM   29  C   UNL     1      43.320 -13.611   6.111  1.00  0.00     0.236 C 
BRANCH  29  30
HETATM   30  C   UNL     1      44.324 -12.909   7.022  1.00  0.00     0.039 C 
BRANCH  30  31
HETATM   31  C   UNL     1      44.530 -11.404   6.771  1.00  0.00     0.040 C 
HETATM   32  C   UNL     1      43.352 -10.782   6.021  1.00  0.00     0.017 C 
BRANCH  31  33
HETATM   33  C   UNL     1      44.794 -10.723   8.074  1.00  0.00     0.057 A 
HETATM   34  O   UNL     1      44.029 -11.150   9.125  1.00  0.00    -0.319 OA
HETATM   35  C   UNL     1      44.416 -10.433  10.218  1.00  0.00     0.049 A 
HETATM   36  C   UNL     1      43.747 -10.741  11.498  1.00  0.00     0.076 C 
HETATM   37  C   UNL     1      45.403  -9.536   9.872  1.00  0.00     0.035 A 
HETATM   38  C   UNL     1      45.644  -9.719   8.490  1.00  0.00     0.035 A 
ENDBRANCH  31  33
ENDBRANCH  30  31
ENDBRANCH  29  30
ENDBRANCH   1  29
TORSDOF 8
ENDMDL
MODEL 6
REMARK VINA RESULT:      -8.4      3.403      6.514
REMARK  8 active torsions:
REMARK  status: ('A' for Active; 'I' for Inactive)
REMARK    1  A    between atoms: C_4  and  C_5 
REMARK    2  A    between atoms: C_5  and  C_6 
REMARK    3  A    between atoms: C_6  and  C_7 
REMARK    4  A    between atoms: C_7  and  N_8 
REMARK    5  A    between atoms: C_17  and  C_18 
REMARK    6  A    between atoms: C_18  and  N_19 
REMARK    7  A    between atoms: C_23  and  O_24 
REMARK    8  A    between atoms: C_23  and  C_25 
ROOT
HETATM    1  N   UNL     1      43.399 -11.180   5.864  1.00  0.00    -0.065 N 
HETATM    2  H   UNL     1      42.986 -11.041   4.933  1.00  0.00     0.280 HD
HETATM    3  C   UNL     1      43.075  -9.907   6.621  1.00  0.00     0.276 C 
HETATM    4  C   UNL     1      43.461  -9.900   8.075  1.00  0.00     0.001 A 
HETATM    5  C   UNL     1      44.800 -10.019   8.451  1.00  0.00     0.076 A 
HETATM    6  O   UNL     1      45.789 -10.117   7.515  1.00  0.00    -0.349 OA
HETATM    7  C   UNL     1      45.759 -11.378   6.834  1.00  0.00     0.203 C 
HETATM    8  C   UNL     1      44.895 -11.308   5.571  1.00  0.00     0.261 C 
HETATM    9  C   UNL     1      42.496  -9.726   9.085  1.00  0.00     0.020 A 
HETATM   10  C   UNL     1      42.860  -9.678  10.447  1.00  0.00    -0.032 A 
HETATM   11  C   UNL     1      44.214  -9.804  10.786  1.00  0.00     0.011 A 
HETATM   12  C   UNL     1      45.180  -9.956   9.789  1.00  0.00     0.038 A 
ENDROOT
BRANCH  10  13
HETATM   13  C   UNL     1      41.807  -9.495  11.514  1.00  0.00     0.273 C 
BRANCH  13  14
HETATM   14  N   UNL     1      42.284  -8.825  12.793  1.00  0.00    -0.067 N 
HETATM   15  H   UNL     1      43.178  -9.273  13.044  1.00  0.00     0.280 HD
HETATM   16  C   UNL     1      42.562  -7.349  12.624  1.00  0.00     0.238 C 
HETATM   17  C   UNL     1      43.033  -6.760  13.941  1.00  0.00     0.071 C 
HETATM   18  C   UNL     1      41.971  -6.917  15.047  1.00  0.00     0.089 C 
HETATM   19  C   UNL     1      41.737  -8.432  15.207  1.00  0.00     0.071 C 
HETATM   20  C   UNL     1      41.308  -9.111  13.915  1.00  0.00     0.238 C 
BRANCH  18  21
HETATM   21  O   UNL     1      42.584  -6.476  16.260  1.00  0.00    -0.385 OA
HETATM   22  H   UNL     1      43.119  -7.194  16.647  1.00  0.00     0.211 HD
ENDBRANCH  18  21
BRANCH  18  23
HETATM   23  C   UNL     1      40.733  -6.062  14.797  1.00  0.00    -0.006 A 
HETATM   24  C   UNL     1      40.679  -5.056  13.834  1.00  0.00     0.126 A 
HETATM   25  N   UNL     1      39.630  -4.228  13.647  1.00  0.00    -0.272 NA
HETATM   26  C   UNL     1      38.524  -4.448  14.385  1.00  0.00     0.116 A 
HETATM   27  C   UNL     1      38.435  -5.458  15.322  1.00  0.00     0.020 A 
HETATM   28  C   UNL     1      39.548  -6.271  15.523  1.00  0.00     0.013 A 
ENDBRANCH  18  23
ENDBRANCH  13  14
ENDBRANCH  10  13
BRANCH   1  29
HETATM   29  C   UNL     1      42.799 -12.460   6.407  1.00  0.00     0.236 C 
BRANCH  29  30
HETATM   30  C   UNL     1      43.156 -13.705   5.598  1.00  0.00     0.039 C 
BRANCH  30  31
HETATM   31  C   UNL     1      41.997 -14.374   4.837  1.00  0.00     0.040 C 
HETATM   32  C   UNL     1      40.889 -13.379   4.489  1.00  0.00     0.017 C 
BRANCH  31  33
HETATM   33  C   UNL     1      42.539 -15.062   3.627  1.00  0.00     0.057 A 
HETATM   34  O   UNL     1      42.526 -16.429   3.675  1.00  0.00    -0.319 OA
HETATM   35  C   UNL     1      43.040 -16.875   2.492  1.00  0.00     0.049 A 
HETATM   36  C   UNL     1      43.100 -18.336   2.291  1.00  0.00     0.076 C 
HETATM   37  C   UNL     1      43.402 -15.807   1.700  1.00  0.00     0.035 A 
HETATM   38  C   UNL     1      43.084 -14.639   2.432  1.00  0.00     0.035 A 
ENDBRANCH  31  33
ENDBRANCH  30  31
ENDBRANCH  29  30
ENDBRANCH   1  29
TORSDOF 8
ENDMDL
MODEL 7
REMARK VINA RESULT:      -8.3      2.850      8.903
REMARK  8 active torsions:
REMARK  status: ('A' for Active; 'I' for Inactive)
REMARK    1  A    between atoms: C_4  and  C_5 
REMARK    2  A    between atoms: C_5  and  C_6 
REMARK    3  A    between atoms: C_6  and  C_7 
REMARK    4  A    between atoms: C_7  and  N_8 
REMARK    5  A    between atoms: C_17  and  C_18 
REMARK    6  A    between atoms: C_18  and  N_19 
REMARK    7  A    between atoms: C_23  and  O_24 
REMARK    8  A    between atoms: C_23  and  C_25 
ROOT
HETATM    1  N   UNL     1      41.165  -6.765   7.612  1.00  0.00    -0.065 N 
HETATM    2  H   UNL     1      41.769  -5.942   7.491  1.00  0.00     0.280 HD
HETATM    3  C   UNL     1      41.318  -7.546   6.321  1.00  0.00     0.276 C 
HETATM    4  C   UNL     1      40.629  -8.883   6.286  1.00  0.00     0.001 A 
HETATM    5  C   UNL     1      39.241  -8.965   6.405  1.00  0.00     0.076 A 
HETATM    6  O   UNL     1      38.475  -7.840   6.528  1.00  0.00    -0.349 OA
HETATM    7  C   UNL     1      38.652  -7.210   7.803  1.00  0.00     0.203 C 
HETATM    8  C   UNL     1      39.767  -6.161   7.755  1.00  0.00     0.261 C 
HETATM    9  C   UNL     1      41.354 -10.073   6.085  1.00  0.00     0.020 A 
HETATM   10  C   UNL     1      40.706 -11.323   6.011  1.00  0.00    -0.032 A 
HETATM   11  C   UNL     1      39.310 -11.366   6.137  1.00  0.00     0.011 A 
HETATM   12  C   UNL     1      38.582 -10.188   6.315  1.00  0.00     0.038 A 
ENDROOT
BRANCH  10  13
HETATM   13  C   UNL     1      41.505 -12.588   5.799  1.00  0.00     0.273 C 
BRANCH  13  14
HETATM   14  N   UNL     1      41.624 -13.049   4.355  1.00  0.00    -0.067 N 
HETATM   15  H   UNL     1      41.263 -12.282   3.770  1.00  0.00     0.280 HD
HETATM   16  C   UNL     1      43.051 -13.300   3.926  1.00  0.00     0.238 C 
HETATM   17  C   UNL     1      43.081 -13.755   2.478  1.00  0.00     0.071 C 
HETATM   18  C   UNL     1      42.290 -15.062   2.276  1.00  0.00     0.089 C 
HETATM   19  C   UNL     1      40.839 -14.757   2.697  1.00  0.00     0.071 C 
HETATM   20  C   UNL     1      40.726 -14.248   4.126  1.00  0.00     0.238 C 
BRANCH  18  21
HETATM   21  O   UNL     1      42.256 -15.299   0.868  1.00  0.00    -0.385 OA
HETATM   22  H   UNL     1      41.338 -15.442   0.572  1.00  0.00     0.211 HD
ENDBRANCH  18  21
BRANCH  18  23
HETATM   23  C   UNL     1      42.954 -16.259   2.947  1.00  0.00    -0.006 A 
HETATM   24  C   UNL     1      43.427 -16.237   4.259  1.00  0.00     0.126 A 
HETATM   25  N   UNL     1      44.094 -17.249   4.852  1.00  0.00    -0.272 NA
HETATM   26  C   UNL     1      44.235 -18.394   4.155  1.00  0.00     0.116 A 
HETATM   27  C   UNL     1      43.749 -18.559   2.874  1.00  0.00     0.020 A 
HETATM   28  C   UNL     1      43.101 -17.482   2.271  1.00  0.00     0.013 A 
ENDBRANCH  18  23
ENDBRANCH  13  14
ENDBRANCH  10  13
BRANCH   1  29
HETATM   29  C   UNL     1      41.636  -7.453   8.877  1.00  0.00     0.236 C 
BRANCH  29  30
HETATM   30  C   UNL     1      43.151  -7.425   9.071  1.00  0.00     0.039 C 
BRANCH  30  31
HETATM   31  C   UNL     1      43.760  -8.621   9.824  1.00  0.00     0.040 C 
HETATM   32  C   UNL     1      42.685  -9.552  10.387  1.00  0.00     0.017 C 
BRANCH  31  33
HETATM   33  C   UNL     1      44.710  -9.336   8.919  1.00  0.00     0.057 A 
HETATM   34  O   UNL     1      44.221 -10.473   8.337  1.00  0.00    -0.319 OA
HETATM   35  C   UNL     1      45.213 -10.975   7.546  1.00  0.00     0.049 A 
HETATM   36  C   UNL     1      44.909 -12.199   6.779  1.00  0.00     0.076 C 
HETATM   37  C   UNL     1      46.336 -10.182   7.634  1.00  0.00     0.035 A 
HETATM   38  C   UNL     1      46.015  -9.129   8.522  1.00  0.00     0.035 A 
ENDBRANCH  31  33
ENDBRANCH  30  31
ENDBRANCH  29  30
ENDBRANCH   1  29
TORSDOF 8
ENDMDL
MODEL 8
REMARK VINA RESULT:      -8.3      2.918      5.988
REMARK  8 active torsions:
REMARK  status: ('A' for Active; 'I' for Inactive)
REMARK    1  A    between atoms: C_4  and  C_5 
REMARK    2  A    between atoms: C_5  and  C_6 
REMARK    3  A    between atoms: C_6  and  C_7 
REMARK    4  A    between atoms: C_7  and  N_8 
REMARK    5  A    between atoms: C_17  and  C_18 
REMARK    6  A    between atoms: C_18  and  N_19 
REMARK    7  A    between atoms: C_23  and  O_24 
REMARK    8  A    between atoms: C_23  and  C_25 
ROOT
HETATM    1  N   UNL     1      43.350 -11.831   6.373  1.00  0.00    -0.065 N 
HETATM    2  H   UNL     1      42.640 -11.948   5.639  1.00  0.00     0.280 HD
HETATM    3  C   UNL     1      42.887 -10.622   7.164  1.00  0.00     0.276 C 
HETATM    4  C   UNL     1      43.692 -10.306   8.395  1.00  0.00     0.001 A 
HETATM    5  C   UNL     1      45.042  -9.967   8.288  1.00  0.00     0.076 A 
HETATM    6  O   UNL     1      45.656  -9.891   7.070  1.00  0.00    -0.349 OA
HETATM    7  C   UNL     1      45.823 -11.183   6.474  1.00  0.00     0.203 C 
HETATM    8  C   UNL     1      44.629 -11.545   5.585  1.00  0.00     0.261 C 
HETATM    9  C   UNL     1      43.098 -10.293   9.671  1.00  0.00     0.020 A 
HETATM   10  C   UNL     1      43.841  -9.955  10.822  1.00  0.00    -0.032 A 
HETATM   11  C   UNL     1      45.195  -9.624  10.676  1.00  0.00     0.011 A 
HETATM   12  C   UNL     1      45.786  -9.614   9.411  1.00  0.00     0.038 A 
ENDROOT
BRANCH  10  13
HETATM   13  C   UNL     1      43.185  -9.953  12.183  1.00  0.00     0.273 C 
BRANCH  13  14
HETATM   14  N   UNL     1      41.890  -9.162  12.280  1.00  0.00    -0.067 N 
HETATM   15  H   UNL     1      41.851  -8.779  13.236  1.00  0.00     0.280 HD
HETATM   16  C   UNL     1      41.836  -7.988  11.331  1.00  0.00     0.238 C 
HETATM   17  C   UNL     1      40.517  -7.255  11.492  1.00  0.00     0.071 C 
HETATM   18  C   UNL     1      39.316  -8.170  11.181  1.00  0.00     0.089 C 
HETATM   19  C   UNL     1      39.391  -9.336  12.186  1.00  0.00     0.071 C 
HETATM   20  C   UNL     1      40.708 -10.096  12.122  1.00  0.00     0.238 C 
BRANCH  18  21
HETATM   21  O   UNL     1      38.144  -7.426  11.518  1.00  0.00    -0.385 OA
HETATM   22  H   UNL     1      38.298  -6.473  11.379  1.00  0.00     0.211 HD
ENDBRANCH  18  21
BRANCH  18  23
HETATM   23  C   UNL     1      39.234  -8.549   9.706  1.00  0.00    -0.006 A 
HETATM   24  C   UNL     1      39.030  -9.855   9.261  1.00  0.00     0.126 A 
HETATM   25  N   UNL     1      39.038 -10.234   7.966  1.00  0.00    -0.272 NA
HETATM   26  C   UNL     1      39.164  -9.268   7.035  1.00  0.00     0.116 A 
HETATM   27  C   UNL     1      39.303  -7.932   7.353  1.00  0.00     0.020 A 
HETATM   28  C   UNL     1      39.334  -7.574   8.699  1.00  0.00     0.013 A 
ENDBRANCH  18  23
ENDBRANCH  13  14
ENDBRANCH  10  13
BRANCH   1  29
HETATM   29  C   UNL     1      43.406 -13.147   7.122  1.00  0.00     0.236 C 
BRANCH  29  30
HETATM   30  C   UNL     1      43.981 -14.301   6.304  1.00  0.00     0.039 C 
BRANCH  30  31
HETATM   31  C   UNL     1      43.490 -15.710   6.683  1.00  0.00     0.040 C 
HETATM   32  C   UNL     1      42.068 -15.690   7.245  1.00  0.00     0.017 C 
BRANCH  31  33
HETATM   33  C   UNL     1      43.615 -16.607   5.495  1.00  0.00     0.057 A 
HETATM   34  O   UNL     1      43.233 -16.057   4.302  1.00  0.00    -0.319 OA
HETATM   35  C   UNL     1      43.427 -17.007   3.343  1.00  0.00     0.049 A 
HETATM   36  C   UNL     1      43.113 -16.634   1.950  1.00  0.00     0.076 C 
HETATM   37  C   UNL     1      43.907 -18.166   3.915  1.00  0.00     0.035 A 
HETATM   38  C   UNL     1      44.024 -17.911   5.301  1.00  0.00     0.035 A 
ENDBRANCH  31  33
ENDBRANCH  30  31
ENDBRANCH  29  30
ENDBRANCH   1  29
TORSDOF 8
ENDMDL
MODEL 9
REMARK VINA RESULT:      -8.3      2.632      3.987
REMARK  8 active torsions:
REMARK  status: ('A' for Active; 'I' for Inactive)
REMARK    1  A    between atoms: C_4  and  C_5 
REMARK    2  A    between atoms: C_5  and  C_6 
REMARK    3  A    between atoms: C_6  and  C_7 
REMARK    4  A    between atoms: C_7  and  N_8 
REMARK    5  A    between atoms: C_17  and  C_18 
REMARK    6  A    between atoms: C_18  and  N_19 
REMARK    7  A    between atoms: C_23  and  O_24 
REMARK    8  A    between atoms: C_23  and  C_25 
ROOT
HETATM    1  N   UNL     1      41.032 -12.957   4.218  1.00  0.00    -0.065 N 
HETATM    2  H   UNL     1      40.630 -13.902   4.257  1.00  0.00     0.280 HD
HETATM    3  C   UNL     1      40.370 -12.212   5.361  1.00  0.00     0.276 C 
HETATM    4  C   UNL     1      40.884 -10.820   5.612  1.00  0.00     0.001 A 
HETATM    5  C   UNL     1      40.758  -9.834   4.632  1.00  0.00     0.076 A 
HETATM    6  O   UNL     1      40.145 -10.097   3.440  1.00  0.00    -0.349 OA
HETATM    7  C   UNL     1      40.933 -10.965   2.615  1.00  0.00     0.203 C 
HETATM    8  C   UNL     1      40.578 -12.435   2.853  1.00  0.00     0.261 C 
HETATM    9  C   UNL     1      41.455 -10.466   6.848  1.00  0.00     0.020 A 
HETATM   10  C   UNL     1      41.900  -9.151   7.100  1.00  0.00    -0.032 A 
HETATM   11  C   UNL     1      41.759  -8.188   6.091  1.00  0.00     0.011 A 
HETATM   12  C   UNL     1      41.174  -8.526   4.870  1.00  0.00     0.038 A 
ENDROOT
BRANCH  10  13
HETATM   13  C   UNL     1      42.514  -8.793   8.433  1.00  0.00     0.273 C 
BRANCH  13  14
HETATM   14  N   UNL     1      41.997  -9.585   9.623  1.00  0.00    -0.067 N 
HETATM   15  H   UNL     1      41.840 -10.548   9.290  1.00  0.00     0.280 HD
HETATM   16  C   UNL     1      42.988  -9.667  10.760  1.00  0.00     0.238 C 
HETATM   17  C   UNL     1      42.396 -10.472  11.903  1.00  0.00     0.071 C 
HETATM   18  C   UNL     1      41.107  -9.826  12.446  1.00  0.00     0.089 C 
HETATM   19  C   UNL     1      40.115  -9.787  11.267  1.00  0.00     0.071 C 
HETATM   20  C   UNL     1      40.654  -9.036  10.058  1.00  0.00     0.238 C 
BRANCH  18  21
HETATM   21  O   UNL     1      40.563 -10.746  13.395  1.00  0.00    -0.385 OA
HETATM   22  H   UNL     1      41.252 -11.022  14.029  1.00  0.00     0.211 HD
ENDBRANCH  18  21
BRANCH  18  23
HETATM   23  C   UNL     1      41.368  -8.503  13.157  1.00  0.00    -0.006 A 
HETATM   24  C   UNL     1      40.474  -7.433  13.138  1.00  0.00     0.126 A 
HETATM   25  N   UNL     1      40.714  -6.223  13.685  1.00  0.00    -0.272 NA
HETATM   26  C   UNL     1      41.861  -6.067  14.373  1.00  0.00     0.116 A 
HETATM   27  C   UNL     1      42.793  -7.076  14.520  1.00  0.00     0.020 A 
HETATM   28  C   UNL     1      42.539  -8.302  13.909  1.00  0.00     0.013 A 
ENDBRANCH  18  23
ENDBRANCH  13  14
ENDBRANCH  10  13
BRANCH   1  29
HETATM   29  C   UNL     1      42.534 -13.132   4.306  1.00  0.00     0.236 C 
BRANCH  29  30
HETATM   30  C   UNL     1      42.983 -14.586   4.436  1.00  0.00     0.039 C 
BRANCH  30  31
HETATM   31  C   UNL     1      42.748 -15.480   3.206  1.00  0.00     0.040 C 
HETATM   32  C   UNL     1      43.335 -14.870   1.933  1.00  0.00     0.017 C 
BRANCH  31  33
HETATM   33  C   UNL     1      43.292 -16.844   3.482  1.00  0.00     0.057 A 
HETATM   34  O   UNL     1      43.056 -17.777   2.510  1.00  0.00    -0.319 OA
HETATM   35  C   UNL     1      43.631 -18.942   2.927  1.00  0.00     0.049 A 
HETATM   36  C   UNL     1      43.537 -20.103   2.019  1.00  0.00     0.076 C 
HETATM   37  C   UNL     1      44.210 -18.768   4.165  1.00  0.00     0.035 A 
HETATM   38  C   UNL     1      43.988 -17.418   4.525  1.00  0.00     0.035 A 
ENDBRANCH  31  33
ENDBRANCH  30  31
ENDBRANCH  29  30
ENDBRANCH   1  29
TORSDOF 8
ENDMDL
MODEL 10
REMARK VINA RESULT:      -8.2      1.894      5.170
REMARK  8 active torsions:
REMARK  status: ('A' for Active; 'I' for Inactive)
REMARK    1  A    between atoms: C_4  and  C_5 
REMARK    2  A    between atoms: C_5  and  C_6 
REMARK    3  A    between atoms: C_6  and  C_7 
REMARK    4  A    between atoms: C_7  and  N_8 
REMARK    5  A    between atoms: C_17  and  C_18 
REMARK    6  A    between atoms: C_18  and  N_19 
REMARK    7  A    between atoms: C_23  and  O_24 
REMARK    8  A    between atoms: C_23  and  C_25 
ROOT
HETATM    1  N   UNL     1      42.367 -14.708   1.274  1.00  0.00    -0.065 N 
HETATM    2  H   UNL     1      42.675 -14.462   0.325  1.00  0.00     0.280 HD
HETATM    3  C   UNL     1      43.149 -13.780   2.184  1.00  0.00     0.276 C 
HETATM    4  C   UNL     1      42.786 -13.843   3.642  1.00  0.00     0.001 A 
HETATM    5  C   UNL     1      42.966 -15.025   4.363  1.00  0.00     0.076 A 
HETATM    6  O   UNL     1      43.496 -16.137   3.774  1.00  0.00    -0.349 OA
HETATM    7  C   UNL     1      42.591 -16.726   2.832  1.00  0.00     0.203 C 
HETATM    8  C   UNL     1      42.810 -16.165   1.424  1.00  0.00     0.261 C 
HETATM    9  C   UNL     1      42.307 -12.710   4.325  1.00  0.00     0.020 A 
HETATM   10  C   UNL     1      42.006 -12.757   5.703  1.00  0.00    -0.032 A 
HETATM   11  C   UNL     1      42.197 -13.962   6.393  1.00  0.00     0.011 A 
HETATM   12  C   UNL     1      42.692 -15.085   5.727  1.00  0.00     0.038 A 
ENDROOT
BRANCH  10  13
HETATM   13  C   UNL     1      41.489 -11.528   6.415  1.00  0.00     0.273 C 
BRANCH  13  14
HETATM   14  N   UNL     1      42.526 -10.454   6.697  1.00  0.00    -0.067 N 
HETATM   15  H   UNL     1      42.845 -10.105   5.782  1.00  0.00     0.280 HD
HETATM   16  C   UNL     1      41.967  -9.270   7.452  1.00  0.00     0.238 C 
HETATM   17  C   UNL     1      43.062  -8.247   7.691  1.00  0.00     0.071 C 
HETATM   18  C   UNL     1      44.218  -8.836   8.525  1.00  0.00     0.089 C 
HETATM   19  C   UNL     1      44.777 -10.019   7.711  1.00  0.00     0.071 C 
HETATM   20  C   UNL     1      43.727 -11.070   7.386  1.00  0.00     0.238 C 
BRANCH  18  21
HETATM   21  O   UNL     1      45.245  -7.844   8.547  1.00  0.00    -0.385 OA
HETATM   22  H   UNL     1      46.002  -8.130   8.001  1.00  0.00     0.211 HD
ENDBRANCH  18  21
BRANCH  18  23
HETATM   23  C   UNL     1      43.810  -9.134   9.964  1.00  0.00    -0.006 A 
HETATM   24  C   UNL     1      43.962 -10.386  10.559  1.00  0.00     0.126 A 
HETATM   25  N   UNL     1      43.534 -10.703  11.799  1.00  0.00    -0.272 NA
HETATM   26  C   UNL     1      43.001  -9.716  12.545  1.00  0.00     0.116 A 
HETATM   27  C   UNL     1      42.861  -8.421  12.089  1.00  0.00     0.020 A 
HETATM   28  C   UNL     1      43.273  -8.131  10.789  1.00  0.00     0.013 A 
ENDBRANCH  18  23
ENDBRANCH  13  14
ENDBRANCH  10  13
BRANCH   1  29
HETATM   29  C   UNL     1      40.860 -14.552   1.284  1.00  0.00     0.236 C 
BRANCH  29  30
HETATM   30  C   UNL     1      40.187 -14.948  -0.028  1.00  0.00     0.039 C 
BRANCH  30  31
HETATM   31  C   UNL     1      40.216 -13.894  -1.150  1.00  0.00     0.040 C 
HETATM   32  C   UNL     1      39.345 -14.299  -2.339  1.00  0.00     0.017 C 
BRANCH  31  33
HETATM   33  C   UNL     1      39.821 -12.568  -0.585  1.00  0.00     0.057 A 
HETATM   34  O   UNL     1      38.511 -12.459  -0.208  1.00  0.00    -0.319 OA
HETATM   35  C   UNL     1      38.343 -11.200   0.289  1.00  0.00     0.049 A 
HETATM   36  C   UNL     1      37.001 -10.849   0.797  1.00  0.00     0.076 C 
HETATM   37  C   UNL     1      39.526 -10.498   0.212  1.00  0.00     0.035 A 
HETATM   38  C   UNL     1      40.478 -11.377  -0.355  1.00  0.00     0.035 A 
ENDBRANCH  31  33
ENDBRANCH  30  31
ENDBRANCH  29  30
ENDBRANCH   1  29
TORSDOF 8
ENDMDL
