MODEL 1
REMARK VINA RESULT:     -10.6      0.000      0.000
REMARK  4 active torsions:
REMARK  status: ('A' for Active; 'I' for Inactive)
REMARK       I    between atoms: N_10  and  C_11 
REMARK    1  A    between atoms: C_11  and  C_12 
REMARK    2  A    between atoms: C_14  and  O_15 
REMARK    3  A    between atoms: O_15  and  C_16 
REMARK    4  A    between atoms: C_16  and  C_17 
ROOT
HETATM    1  C   UNL     1      43.547 -11.152   5.560  1.00  0.00     0.034 A 
HETATM    2  C   UNL     1      42.899 -10.676   6.707  1.00  0.00     0.053 A 
HETATM    3  C   UNL     1      43.621 -10.521   7.891  1.00  0.00     0.070 A 
HETATM    4  C   UNL     1      44.978 -10.860   7.916  1.00  0.00     0.037 A 
HETATM    5  C   UNL     1      45.615 -11.365   6.781  1.00  0.00     0.004 A 
HETATM    6  C   UNL     1      44.896 -11.522   5.600  1.00  0.00     0.017 A 
ENDROOT
BRANCH   1   7
HETATM    7  C   UNL     1      42.754 -11.335   4.324  1.00  0.00     0.254 C 
HETATM    8  N   UNL     1      42.394 -12.621   3.933  1.00  0.00    -0.343 N 
HETATM    9  C   UNL     1      42.864 -13.854   4.603  1.00  0.00     0.167 C 
HETATM   10  C   UNL     1      41.402 -12.768   2.849  1.00  0.00     0.132 C 
HETATM   11  C   UNL     1      42.906 -14.998   3.641  1.00  0.00    -0.005 A 
HETATM   12  C   UNL     1      43.358 -16.335   3.843  1.00  0.00     0.000 A 
HETATM   13  C   UNL     1      42.459 -14.918   2.340  1.00  0.00     0.020 A 
HETATM   14  C   UNL     1      43.908 -17.033   4.937  1.00  0.00     0.014 A 
HETATM   15  C   UNL     1      43.166 -17.020   2.639  1.00  0.00     0.043 A 
HETATM   16  C   UNL     1      44.242 -18.385   4.792  1.00  0.00     0.001 A 
HETATM   17  C   UNL     1      44.037 -19.043   3.581  1.00  0.00     0.002 A 
HETATM   18  C   UNL     1      43.496 -18.373   2.480  1.00  0.00     0.030 A 
HETATM   19  N   UNL     1      42.627 -16.128   1.735  1.00  0.00    -0.358 N 
HETATM   20  H   UNL     1      42.390 -16.353   0.779  1.00  0.00     0.166 HD
HETATM   21  C   UNL     1      41.891 -13.694   1.718  1.00  0.00     0.077 C 
HETATM   22  O   UNL     1      42.451 -10.320   3.701  1.00  0.00    -0.267 OA
ENDBRANCH   1   7
BRANCH   3  23
HETATM   23  O   UNL     1      43.132 -10.059   9.081  1.00  0.00    -0.345 OA
BRANCH  23  24
HETATM   24  C   UNL     1      43.798 -10.486  10.276  1.00  0.00     0.236 C 
BRANCH  24  25
HETATM   25  C   UNL     1      43.263  -9.765  11.473  1.00  0.00     0.077 A 
HETATM   26  N   UNL     1      43.868  -8.609  11.927  1.00  0.00    -0.232 NA
HETATM   27  C   UNL     1      43.182  -8.245  12.990  1.00  0.00     0.134 A 
HETATM   28  N   UNL     1      42.134  -9.122  13.244  1.00  0.00    -0.316 N 
HETATM   29  C   UNL     1      43.342  -7.150  13.887  1.00  0.00     0.051 A 
HETATM   30  C   UNL     1      42.178 -10.082  12.268  1.00  0.00     0.127 A 
HETATM   31  C   UNL     1      41.254  -8.982  14.314  1.00  0.00     0.098 A 
HETATM   32  C   UNL     1      41.412  -7.949  15.160  1.00  0.00     0.018 A 
HETATM   33  C   UNL     1      42.497  -7.007  14.927  1.00  0.00     0.005 A 
ENDBRANCH  24  25
ENDBRANCH  23  24
ENDBRANCH   3  23
TORSDOF 4
ENDMDL
MODEL 2
REMARK VINA RESULT:      -9.6      1.914      2.324
REMARK  4 active torsions:
REMARK  status: ('A' for Active; 'I' for Inactive)
REMARK       I    between atoms: N_10  and  C_11 
REMARK    1  A    between atoms: C_11  and  C_12 
REMARK    2  A    between atoms: C_14  and  O_15 
REMARK    3  A    between atoms: O_15  and  C_16 
REMARK    4  A    between atoms: C_16  and  C_17 
ROOT
HETATM    1  C   UNL     1      43.601 -11.416   5.764  1.00  0.00     0.034 A 
HETATM    2  C   UNL     1      43.310 -11.371   7.134  1.00  0.00     0.053 A 
HETATM    3  C   UNL     1      44.348 -11.227   8.054  1.00  0.00     0.070 A 
HETATM    4  C   UNL     1      45.667 -11.144   7.593  1.00  0.00     0.037 A 
HETATM    5  C   UNL     1      45.958 -11.221   6.230  1.00  0.00     0.004 A 
HETATM    6  C   UNL     1      44.923 -11.368   5.311  1.00  0.00     0.017 A 
ENDROOT
BRANCH   1   7
HETATM    7  C   UNL     1      42.485 -11.599   4.810  1.00  0.00     0.254 C 
HETATM    8  N   UNL     1      42.099 -12.889   4.457  1.00  0.00    -0.343 N 
HETATM    9  C   UNL     1      42.818 -14.114   4.872  1.00  0.00     0.167 C 
HETATM   10  C   UNL     1      40.837 -13.058   3.708  1.00  0.00     0.132 C 
HETATM   11  C   UNL     1      42.635 -15.204   3.866  1.00  0.00    -0.005 A 
HETATM   12  C   UNL     1      43.203 -16.511   3.834  1.00  0.00     0.000 A 
HETATM   13  C   UNL     1      41.814 -15.096   2.764  1.00  0.00     0.020 A 
HETATM   14  C   UNL     1      44.095 -17.217   4.665  1.00  0.00     0.014 A 
HETATM   15  C   UNL     1      42.698 -17.151   2.697  1.00  0.00     0.043 A 
HETATM   16  C   UNL     1      44.447 -18.531   4.337  1.00  0.00     0.001 A 
HETATM   17  C   UNL     1      43.926 -19.145   3.199  1.00  0.00     0.002 A 
HETATM   18  C   UNL     1      43.042 -18.466   2.356  1.00  0.00     0.030 A 
HETATM   19  N   UNL     1      41.862 -16.260   2.056  1.00  0.00    -0.358 N 
HETATM   20  H   UNL     1      41.362 -16.456   1.200  1.00  0.00     0.166 HD
HETATM   21  C   UNL     1      41.017 -13.890   2.423  1.00  0.00     0.077 C 
HETATM   22  O   UNL     1      41.951 -10.582   4.375  1.00  0.00    -0.267 OA
ENDBRANCH   1   7
BRANCH   3  23
HETATM   23  O   UNL     1      44.220 -11.156   9.413  1.00  0.00    -0.345 OA
BRANCH  23  24
HETATM   24  C   UNL     1      44.392  -9.871  10.025  1.00  0.00     0.236 C 
BRANCH  24  25
HETATM   25  C   UNL     1      43.091  -9.137  10.102  1.00  0.00     0.077 A 
HETATM   26  N   UNL     1      42.026  -9.665  10.808  1.00  0.00    -0.232 NA
HETATM   27  C   UNL     1      41.042  -8.802  10.661  1.00  0.00     0.134 A 
HETATM   28  N   UNL     1      41.431  -7.713   9.888  1.00  0.00    -0.316 N 
HETATM   29  C   UNL     1      39.700  -8.810  11.138  1.00  0.00     0.051 A 
HETATM   30  C   UNL     1      42.741  -7.921   9.545  1.00  0.00     0.127 A 
HETATM   31  C   UNL     1      40.585  -6.655   9.565  1.00  0.00     0.098 A 
HETATM   32  C   UNL     1      39.319  -6.670  10.015  1.00  0.00     0.018 A 
HETATM   33  C   UNL     1      38.874  -7.791  10.829  1.00  0.00     0.005 A 
ENDBRANCH  24  25
ENDBRANCH  23  24
ENDBRANCH   3  23
TORSDOF 4
ENDMDL
MODEL 3
REMARK VINA RESULT:      -9.5      1.987     10.019
REMARK  4 active torsions:
REMARK  status: ('A' for Active; 'I' for Inactive)
REMARK       I    between atoms: N_10  and  C_11 
REMARK    1  A    between atoms: C_11  and  C_12 
REMARK    2  A    between atoms: C_14  and  O_15 
REMARK    3  A    between atoms: O_15  and  C_16 
REMARK    4  A    between atoms: C_16  and  C_17 
ROOT
HETATM    1  C   UNL     1      42.809 -11.285   4.988  1.00  0.00     0.034 A 
HETATM    2  C   UNL     1      42.225 -12.559   4.996  1.00  0.00     0.053 A 
HETATM    3  C   UNL     1      40.918 -12.720   4.538  1.00  0.00     0.070 A 
HETATM    4  C   UNL     1      40.205 -11.602   4.092  1.00  0.00     0.037 A 
HETATM    5  C   UNL     1      40.776 -10.329   4.115  1.00  0.00     0.004 A 
HETATM    6  C   UNL     1      42.080 -10.166   4.573  1.00  0.00     0.017 A 
ENDROOT
BRANCH   1   7
HETATM    7  C   UNL     1      44.187 -11.135   5.506  1.00  0.00     0.254 C 
HETATM    8  N   UNL     1      44.385 -10.989   6.875  1.00  0.00    -0.343 N 
HETATM    9  C   UNL     1      43.291 -10.839   7.861  1.00  0.00     0.167 C 
HETATM   10  C   UNL     1      45.764 -11.091   7.395  1.00  0.00     0.132 C 
HETATM   11  C   UNL     1      43.750 -10.055   9.048  1.00  0.00    -0.005 A 
HETATM   12  C   UNL     1      43.011  -9.622  10.188  1.00  0.00     0.000 A 
HETATM   13  C   UNL     1      45.050  -9.634   9.229  1.00  0.00     0.020 A 
HETATM   14  C   UNL     1      41.667  -9.745  10.594  1.00  0.00     0.014 A 
HETATM   15  C   UNL     1      43.904  -8.944  11.024  1.00  0.00     0.043 A 
HETATM   16  C   UNL     1      41.265  -9.193  11.816  1.00  0.00     0.001 A 
HETATM   17  C   UNL     1      42.177  -8.526  12.630  1.00  0.00     0.002 A 
HETATM   18  C   UNL     1      43.515  -8.387  12.249  1.00  0.00     0.030 A 
HETATM   19  N   UNL     1      45.138  -8.956  10.409  1.00  0.00    -0.358 N 
HETATM   20  H   UNL     1      45.973  -8.532  10.789  1.00  0.00     0.166 HD
HETATM   21  C   UNL     1      46.158  -9.887   8.273  1.00  0.00     0.077 C 
HETATM   22  O   UNL     1      45.097 -11.149   4.680  1.00  0.00    -0.267 OA
ENDBRANCH   1   7
BRANCH   3  23
HETATM   23  O   UNL     1      40.223 -13.895   4.475  1.00  0.00    -0.345 OA
BRANCH  23  24
HETATM   24  C   UNL     1      40.318 -14.653   3.262  1.00  0.00     0.236 C 
BRANCH  24  25
HETATM   25  C   UNL     1      41.308 -15.765   3.403  1.00  0.00     0.077 A 
HETATM   26  N   UNL     1      41.597 -16.591   2.332  1.00  0.00    -0.232 NA
HETATM   27  C   UNL     1      42.470 -17.465   2.786  1.00  0.00     0.134 A 
HETATM   28  N   UNL     1      42.775 -17.234   4.122  1.00  0.00    -0.316 N 
HETATM   29  C   UNL     1      43.116 -18.567   2.155  1.00  0.00     0.051 A 
HETATM   30  C   UNL     1      42.045 -16.142   4.511  1.00  0.00     0.127 A 
HETATM   31  C   UNL     1      43.663 -18.016   4.857  1.00  0.00     0.098 A 
HETATM   32  C   UNL     1      44.267 -19.057   4.258  1.00  0.00     0.018 A 
HETATM   33  C   UNL     1      43.975 -19.331   2.859  1.00  0.00     0.005 A 
ENDBRANCH  24  25
ENDBRANCH  23  24
ENDBRANCH   3  23
TORSDOF 4
ENDMDL
MODEL 4
REMARK VINA RESULT:      -9.4      6.120      9.993
REMARK  4 active torsions:
REMARK  status: ('A' for Active; 'I' for Inactive)
REMARK       I    between atoms: N_10  and  C_11 
REMARK    1  A    between atoms: C_11  and  C_12 
REMARK    2  A    between atoms: C_14  and  O_15 
REMARK    3  A    between atoms: O_15  and  C_16 
REMARK    4  A    between atoms: C_16  and  C_17 
ROOT
HETATM    1  C   UNL     1      41.021 -13.896   2.425  1.00  0.00     0.034 A 
HETATM    2  C   UNL     1      41.293 -12.798   1.598  1.00  0.00     0.053 A 
HETATM    3  C   UNL     1      40.846 -12.804   0.277  1.00  0.00     0.070 A 
HETATM    4  C   UNL     1      40.145 -13.915  -0.205  1.00  0.00     0.037 A 
HETATM    5  C   UNL     1      39.903 -15.022   0.610  1.00  0.00     0.004 A 
HETATM    6  C   UNL     1      40.351 -15.018   1.928  1.00  0.00     0.017 A 
ENDROOT
BRANCH   1   7
HETATM    7  C   UNL     1      41.531 -13.878   3.814  1.00  0.00     0.254 C 
HETATM    8  N   UNL     1      42.409 -14.876   4.227  1.00  0.00    -0.343 N 
HETATM    9  C   UNL     1      42.776 -16.051   3.405  1.00  0.00     0.167 C 
HETATM   10  C   UNL     1      43.098 -14.706   5.523  1.00  0.00     0.132 C 
HETATM   11  C   UNL     1      43.131 -17.216   4.272  1.00  0.00    -0.005 A 
HETATM   12  C   UNL     1      43.472 -18.549   3.902  1.00  0.00     0.000 A 
HETATM   13  C   UNL     1      43.204 -17.150   5.647  1.00  0.00     0.020 A 
HETATM   14  C   UNL     1      43.586 -19.231   2.673  1.00  0.00     0.014 A 
HETATM   15  C   UNL     1      43.740 -19.248   5.083  1.00  0.00     0.043 A 
HETATM   16  C   UNL     1      43.964 -20.578   2.667  1.00  0.00     0.001 A 
HETATM   17  C   UNL     1      44.228 -21.249   3.860  1.00  0.00     0.002 A 
HETATM   18  C   UNL     1      44.120 -20.597   5.091  1.00  0.00     0.030 A 
HETATM   19  N   UNL     1      43.558 -18.373   6.133  1.00  0.00    -0.358 N 
HETATM   20  H   UNL     1      43.679 -18.613   7.108  1.00  0.00     0.166 HD
HETATM   21  C   UNL     1      42.932 -15.929   6.447  1.00  0.00     0.077 C 
HETATM   22  O   UNL     1      41.145 -12.964   4.539  1.00  0.00    -0.267 OA
ENDBRANCH   1   7
BRANCH   3  23
HETATM   23  O   UNL     1      41.023 -11.807  -0.641  1.00  0.00    -0.345 OA
BRANCH  23  24
HETATM   24  C   UNL     1      41.417 -10.520  -0.149  1.00  0.00     0.236 C 
BRANCH  24  25
HETATM   25  C   UNL     1      41.635  -9.560  -1.275  1.00  0.00     0.077 A 
HETATM   26  N   UNL     1      42.578  -8.555  -1.171  1.00  0.00    -0.232 NA
HETATM   27  C   UNL     1      42.504  -7.883  -2.300  1.00  0.00     0.134 A 
HETATM   28  N   UNL     1      41.547  -8.422  -3.152  1.00  0.00    -0.316 N 
HETATM   29  C   UNL     1      43.211  -6.736  -2.763  1.00  0.00     0.051 A 
HETATM   30  C   UNL     1      41.004  -9.499  -2.503  1.00  0.00     0.127 A 
HETATM   31  C   UNL     1      41.253  -7.901  -4.410  1.00  0.00     0.098 A 
HETATM   32  C   UNL     1      41.920  -6.817  -4.840  1.00  0.00     0.018 A 
HETATM   33  C   UNL     1      42.932  -6.223  -3.978  1.00  0.00     0.005 A 
ENDBRANCH  24  25
ENDBRANCH  23  24
ENDBRANCH   3  23
TORSDOF 4
ENDMDL
MODEL 5
REMARK VINA RESULT:      -9.2      2.601     10.421
REMARK  4 active torsions:
REMARK  status: ('A' for Active; 'I' for Inactive)
REMARK       I    between atoms: N_10  and  C_11 
REMARK    1  A    between atoms: C_11  and  C_12 
REMARK    2  A    between atoms: C_14  and  O_15 
REMARK    3  A    between atoms: O_15  and  C_16 
REMARK    4  A    between atoms: C_16  and  C_17 
ROOT
HETATM    1  C   UNL     1      43.625 -11.977   5.602  1.00  0.00     0.034 A 
HETATM    2  C   UNL     1      43.356 -13.264   6.086  1.00  0.00     0.053 A 
HETATM    3  C   UNL     1      42.337 -14.019   5.505  1.00  0.00     0.070 A 
HETATM    4  C   UNL     1      41.590 -13.470   4.456  1.00  0.00     0.037 A 
HETATM    5  C   UNL     1      41.838 -12.176   3.997  1.00  0.00     0.004 A 
HETATM    6  C   UNL     1      42.853 -11.421   4.577  1.00  0.00     0.017 A 
ENDROOT
BRANCH   1   7
HETATM    7  C   UNL     1      44.692 -11.186   6.254  1.00  0.00     0.254 C 
HETATM    8  N   UNL     1      44.417 -10.533   7.452  1.00  0.00    -0.343 N 
HETATM    9  C   UNL     1      43.074 -10.464   8.070  1.00  0.00     0.167 C 
HETATM   10  C   UNL     1      45.548  -9.961   8.211  1.00  0.00     0.132 C 
HETATM   11  C   UNL     1      42.930  -9.222   8.890  1.00  0.00    -0.005 A 
HETATM   12  C   UNL     1      41.792  -8.727   9.593  1.00  0.00     0.000 A 
HETATM   13  C   UNL     1      43.958  -8.332   9.115  1.00  0.00     0.020 A 
HETATM   14  C   UNL     1      40.467  -9.177   9.760  1.00  0.00     0.014 A 
HETATM   15  C   UNL     1      42.182  -7.541  10.222  1.00  0.00     0.043 A 
HETATM   16  C   UNL     1      39.583  -8.432  10.549  1.00  0.00     0.001 A 
HETATM   17  C   UNL     1      39.999  -7.255  11.167  1.00  0.00     0.002 A 
HETATM   18  C   UNL     1      41.307  -6.786  11.015  1.00  0.00     0.030 A 
HETATM   19  N   UNL     1      43.505  -7.317   9.904  1.00  0.00    -0.358 N 
HETATM   20  H   UNL     1      44.046  -6.525  10.221  1.00  0.00     0.166 HD
HETATM   21  C   UNL     1      45.332  -8.478   8.569  1.00  0.00     0.077 C 
HETATM   22  O   UNL     1      45.783 -11.149   5.690  1.00  0.00    -0.267 OA
ENDBRANCH   1   7
BRANCH   3  23
HETATM   23  O   UNL     1      41.966 -15.285   5.859  1.00  0.00    -0.345 OA
BRANCH  23  24
HETATM   24  C   UNL     1      42.973 -16.131   6.430  1.00  0.00     0.236 C 
BRANCH  24  25
HETATM   25  C   UNL     1      43.247 -17.308   5.549  1.00  0.00     0.077 A 
HETATM   26  N   UNL     1      43.073 -17.219   4.180  1.00  0.00    -0.232 NA
HETATM   27  C   UNL     1      43.369 -18.411   3.708  1.00  0.00     0.134 A 
HETATM   28  N   UNL     1      43.745 -19.282   4.724  1.00  0.00    -0.316 N 
HETATM   29  C   UNL     1      43.357 -18.930   2.381  1.00  0.00     0.051 A 
HETATM   30  C   UNL     1      43.680 -18.574   5.895  1.00  0.00     0.127 A 
HETATM   31  C   UNL     1      44.100 -20.612   4.508  1.00  0.00     0.098 A 
HETATM   32  C   UNL     1      44.083 -21.097   3.255  1.00  0.00     0.018 A 
HETATM   33  C   UNL     1      43.697 -20.216   2.163  1.00  0.00     0.005 A 
ENDBRANCH  24  25
ENDBRANCH  23  24
ENDBRANCH   3  23
TORSDOF 4
ENDMDL
MODEL 6
REMARK VINA RESULT:      -9.1      6.390     10.627
REMARK  4 active torsions:
REMARK  status: ('A' for Active; 'I' for Inactive)
REMARK       I    between atoms: N_10  and  C_11 
REMARK    1  A    between atoms: C_11  and  C_12 
REMARK    2  A    between atoms: C_14  and  O_15 
REMARK    3  A    between atoms: O_15  and  C_16 
REMARK    4  A    between atoms: C_16  and  C_17 
ROOT
HETATM    1  C   UNL     1      40.804 -13.801   1.356  1.00  0.00     0.034 A 
HETATM    2  C   UNL     1      40.853 -12.775   0.403  1.00  0.00     0.053 A 
HETATM    3  C   UNL     1      40.250 -12.961  -0.841  1.00  0.00     0.070 A 
HETATM    4  C   UNL     1      39.618 -14.178  -1.121  1.00  0.00     0.037 A 
HETATM    5  C   UNL     1      39.597 -15.210  -0.182  1.00  0.00     0.004 A 
HETATM    6  C   UNL     1      40.201 -15.027   1.058  1.00  0.00     0.017 A 
ENDROOT
BRANCH   1   7
HETATM    7  C   UNL     1      41.477 -13.590   2.657  1.00  0.00     0.254 C 
HETATM    8  N   UNL     1      42.385 -14.540   3.114  1.00  0.00    -0.343 N 
HETATM    9  C   UNL     1      42.637 -15.836   2.443  1.00  0.00     0.167 C 
HETATM   10  C   UNL     1      43.225 -14.199   4.279  1.00  0.00     0.132 C 
HETATM   11  C   UNL     1      43.078 -16.867   3.431  1.00  0.00    -0.005 A 
HETATM   12  C   UNL     1      43.357 -18.251   3.232  1.00  0.00     0.000 A 
HETATM   13  C   UNL     1      43.316 -16.598   4.762  1.00  0.00     0.020 A 
HETATM   14  C   UNL     1      43.314 -19.113   2.117  1.00  0.00     0.014 A 
HETATM   15  C   UNL     1      43.756 -18.773   4.467  1.00  0.00     0.043 A 
HETATM   16  C   UNL     1      43.673 -20.457   2.273  1.00  0.00     0.001 A 
HETATM   17  C   UNL     1      44.070 -20.948   3.515  1.00  0.00     0.002 A 
HETATM   18  C   UNL     1      44.117 -20.115   4.637  1.00  0.00     0.030 A 
HETATM   19  N   UNL     1      43.710 -17.745   5.385  1.00  0.00    -0.358 N 
HETATM   20  H   UNL     1      43.944 -17.838   6.364  1.00  0.00     0.166 HD
HETATM   21  C   UNL     1      43.157 -15.263   5.392  1.00  0.00     0.077 C 
HETATM   22  O   UNL     1      41.190 -12.566   3.274  1.00  0.00    -0.267 OA
ENDBRANCH   1   7
BRANCH   3  23
HETATM   23  O   UNL     1      40.206 -12.054  -1.862  1.00  0.00    -0.345 OA
BRANCH  23  24
HETATM   24  C   UNL     1      39.728 -10.738  -1.554  1.00  0.00     0.236 C 
BRANCH  24  25
HETATM   25  C   UNL     1      38.272 -10.610  -1.869  1.00  0.00     0.077 A 
HETATM   26  N   UNL     1      37.679 -11.434  -2.808  1.00  0.00    -0.232 NA
HETATM   27  C   UNL     1      36.420 -11.055  -2.867  1.00  0.00     0.134 A 
HETATM   28  N   UNL     1      36.161 -10.011  -1.985  1.00  0.00    -0.316 N 
HETATM   29  C   UNL     1      35.332 -11.516  -3.662  1.00  0.00     0.051 A 
HETATM   30  C   UNL     1      37.338  -9.738  -1.340  1.00  0.00     0.127 A 
HETATM   31  C   UNL     1      34.913  -9.409  -1.849  1.00  0.00     0.098 A 
HETATM   32  C   UNL     1      33.891  -9.845  -2.605  1.00  0.00     0.018 A 
HETATM   33  C   UNL     1      34.121 -10.937  -3.539  1.00  0.00     0.005 A 
ENDBRANCH  24  25
ENDBRANCH  23  24
ENDBRANCH   3  23
TORSDOF 4
ENDMDL
MODEL 7
REMARK VINA RESULT:      -9.1      3.065      5.780
REMARK  4 active torsions:
REMARK  status: ('A' for Active; 'I' for Inactive)
REMARK       I    between atoms: N_10  and  C_11 
REMARK    1  A    between atoms: C_11  and  C_12 
REMARK    2  A    between atoms: C_14  and  O_15 
REMARK    3  A    between atoms: O_15  and  C_16 
REMARK    4  A    between atoms: C_16  and  C_17 
ROOT
HETATM    1  C   UNL     1      42.065 -15.649   4.558  1.00  0.00     0.034 A 
HETATM    2  C   UNL     1      43.082 -14.763   4.938  1.00  0.00     0.053 A 
HETATM    3  C   UNL     1      43.288 -14.492   6.290  1.00  0.00     0.070 A 
HETATM    4  C   UNL     1      42.464 -15.098   7.245  1.00  0.00     0.037 A 
HETATM    5  C   UNL     1      41.431 -15.955   6.863  1.00  0.00     0.004 A 
HETATM    6  C   UNL     1      41.222 -16.225   5.514  1.00  0.00     0.017 A 
ENDROOT
BRANCH   1   7
HETATM    7  C   UNL     1      41.846 -15.898   3.116  1.00  0.00     0.254 C 
HETATM    8  N   UNL     1      41.389 -14.861   2.309  1.00  0.00    -0.343 N 
HETATM    9  C   UNL     1      40.973 -13.535   2.819  1.00  0.00     0.167 C 
HETATM   10  C   UNL     1      41.416 -15.052   0.845  1.00  0.00     0.132 C 
HETATM   11  C   UNL     1      39.949 -12.919   1.921  1.00  0.00    -0.005 A 
HETATM   12  C   UNL     1      39.234 -11.694   2.069  1.00  0.00     0.000 A 
HETATM   13  C   UNL     1      39.544 -13.478   0.728  1.00  0.00     0.020 A 
HETATM   14  C   UNL     1      39.210 -10.681   3.049  1.00  0.00     0.014 A 
HETATM   15  C   UNL     1      38.411 -11.560   0.946  1.00  0.00     0.043 A 
HETATM   16  C   UNL     1      38.372  -9.574   2.872  1.00  0.00     0.001 A 
HETATM   17  C   UNL     1      37.565  -9.465   1.742  1.00  0.00     0.002 A 
HETATM   18  C   UNL     1      37.568 -10.457   0.757  1.00  0.00     0.030 A 
HETATM   19  N   UNL     1      38.612 -12.668   0.150  1.00  0.00    -0.358 N 
HETATM   20  H   UNL     1      38.140 -12.837  -0.728  1.00  0.00     0.166 HD
HETATM   21  C   UNL     1      40.055 -14.762   0.184  1.00  0.00     0.077 C 
HETATM   22  O   UNL     1      42.087 -17.030   2.703  1.00  0.00    -0.267 OA
ENDBRANCH   1   7
BRANCH   3  23
HETATM   23  O   UNL     1      44.242 -13.664   6.812  1.00  0.00    -0.345 OA
BRANCH  23  24
HETATM   24  C   UNL     1      44.284 -12.317   6.325  1.00  0.00     0.236 C 
BRANCH  24  25
HETATM   25  C   UNL     1      44.017 -11.341   7.427  1.00  0.00     0.077 A 
HETATM   26  N   UNL     1      44.834 -11.296   8.541  1.00  0.00    -0.232 NA
HETATM   27  C   UNL     1      44.322 -10.364   9.317  1.00  0.00     0.134 A 
HETATM   28  N   UNL     1      43.197  -9.785   8.742  1.00  0.00    -0.316 N 
HETATM   29  C   UNL     1      44.715  -9.883  10.599  1.00  0.00     0.051 A 
HETATM   30  C   UNL     1      43.012 -10.398   7.531  1.00  0.00     0.127 A 
HETATM   31  C   UNL     1      42.451  -8.779   9.352  1.00  0.00     0.098 A 
HETATM   32  C   UNL     1      42.823  -8.332  10.563  1.00  0.00     0.018 A 
HETATM   33  C   UNL     1      43.998  -8.912  11.198  1.00  0.00     0.005 A 
ENDBRANCH  24  25
ENDBRANCH  23  24
ENDBRANCH   3  23
TORSDOF 4
ENDMDL
MODEL 8
REMARK VINA RESULT:      -9.0      2.439     10.335
REMARK  4 active torsions:
REMARK  status: ('A' for Active; 'I' for Inactive)
REMARK       I    between atoms: N_10  and  C_11 
REMARK    1  A    between atoms: C_11  and  C_12 
REMARK    2  A    between atoms: C_14  and  O_15 
REMARK    3  A    between atoms: O_15  and  C_16 
REMARK    4  A    between atoms: C_16  and  C_17 
ROOT
HETATM    1  C   UNL     1      41.236 -10.889   5.813  1.00  0.00     0.034 A 
HETATM    2  C   UNL     1      42.380 -11.640   5.514  1.00  0.00     0.053 A 
HETATM    3  C   UNL     1      42.308 -13.033   5.511  1.00  0.00     0.070 A 
HETATM    4  C   UNL     1      41.096 -13.658   5.822  1.00  0.00     0.037 A 
HETATM    5  C   UNL     1      39.965 -12.909   6.151  1.00  0.00     0.004 A 
HETATM    6  C   UNL     1      40.035 -11.519   6.157  1.00  0.00     0.017 A 
ENDROOT
BRANCH   1   7
HETATM    7  C   UNL     1      41.344  -9.414   5.838  1.00  0.00     0.254 C 
HETATM    8  N   UNL     1      41.864  -8.790   6.968  1.00  0.00    -0.343 N 
HETATM    9  C   UNL     1      42.203  -9.498   8.224  1.00  0.00     0.167 C 
HETATM   10  C   UNL     1      42.196  -7.354   6.882  1.00  0.00     0.132 C 
HETATM   11  C   UNL     1      42.074  -8.583   9.399  1.00  0.00    -0.005 A 
HETATM   12  C   UNL     1      42.236  -8.865  10.788  1.00  0.00     0.000 A 
HETATM   13  C   UNL     1      41.785  -7.240   9.294  1.00  0.00     0.020 A 
HETATM   14  C   UNL     1      42.541 -10.025  11.527  1.00  0.00     0.014 A 
HETATM   15  C   UNL     1      42.032  -7.665  11.477  1.00  0.00     0.043 A 
HETATM   16  C   UNL     1      42.636  -9.947  12.921  1.00  0.00     0.001 A 
HETATM   17  C   UNL     1      42.431  -8.737  13.582  1.00  0.00     0.002 A 
HETATM   18  C   UNL     1      42.124  -7.573  12.872  1.00  0.00     0.030 A 
HETATM   19  N   UNL     1      41.747  -6.693  10.542  1.00  0.00    -0.358 N 
HETATM   20  H   UNL     1      41.551  -5.726  10.761  1.00  0.00     0.166 HD
HETATM   21  C   UNL     1      41.551  -6.527   8.012  1.00  0.00     0.077 C 
HETATM   22  O   UNL     1      40.963  -8.809   4.838  1.00  0.00    -0.267 OA
ENDBRANCH   1   7
BRANCH   3  23
HETATM   23  O   UNL     1      43.331 -13.894   5.230  1.00  0.00    -0.345 OA
BRANCH  23  24
HETATM   24  C   UNL     1      43.488 -15.032   6.086  1.00  0.00     0.236 C 
BRANCH  24  25
HETATM   25  C   UNL     1      43.566 -16.296   5.290  1.00  0.00     0.077 A 
HETATM   26  N   UNL     1      43.119 -16.333   3.982  1.00  0.00    -0.232 NA
HETATM   27  C   UNL     1      43.301 -17.573   3.581  1.00  0.00     0.134 A 
HETATM   28  N   UNL     1      43.868 -18.354   4.582  1.00  0.00    -0.316 N 
HETATM   29  C   UNL     1      43.015 -18.216   2.343  1.00  0.00     0.051 A 
HETATM   30  C   UNL     1      44.050 -17.536   5.666  1.00  0.00     0.127 A 
HETATM   31  C   UNL     1      44.159 -19.708   4.432  1.00  0.00     0.098 A 
HETATM   32  C   UNL     1      43.883 -20.310   3.263  1.00  0.00     0.018 A 
HETATM   33  C   UNL     1      43.291 -19.526   2.189  1.00  0.00     0.005 A 
ENDBRANCH  24  25
ENDBRANCH  23  24
ENDBRANCH   3  23
TORSDOF 4
ENDMDL
MODEL 9
REMARK VINA RESULT:      -8.9      1.891      2.826
REMARK  4 active torsions:
REMARK  status: ('A' for Active; 'I' for Inactive)
REMARK       I    between atoms: N_10  and  C_11 
REMARK    1  A    between atoms: C_11  and  C_12 
REMARK    2  A    between atoms: C_14  and  O_15 
REMARK    3  A    between atoms: O_15  and  C_16 
REMARK    4  A    between atoms: C_16  and  C_17 
ROOT
HETATM    1  C   UNL     1      40.376 -11.827   4.406  1.00  0.00     0.034 A 
HETATM    2  C   UNL     1      41.539 -11.135   4.767  1.00  0.00     0.053 A 
HETATM    3  C   UNL     1      41.610 -10.510   6.011  1.00  0.00     0.070 A 
HETATM    4  C   UNL     1      40.510 -10.573   6.874  1.00  0.00     0.037 A 
HETATM    5  C   UNL     1      39.340 -11.236   6.501  1.00  0.00     0.004 A 
HETATM    6  C   UNL     1      39.267 -11.858   5.258  1.00  0.00     0.017 A 
ENDROOT
BRANCH   1   7
HETATM    7  C   UNL     1      40.314 -12.457   3.069  1.00  0.00     0.254 C 
HETATM    8  N   UNL     1      40.592 -13.815   2.944  1.00  0.00    -0.343 N 
HETATM    9  C   UNL     1      41.082 -14.666   4.051  1.00  0.00     0.167 C 
HETATM   10  C   UNL     1      40.284 -14.475   1.659  1.00  0.00     0.132 C 
HETATM   11  C   UNL     1      41.905 -15.799   3.526  1.00  0.00    -0.005 A 
HETATM   12  C   UNL     1      42.619 -16.806   4.239  1.00  0.00     0.000 A 
HETATM   13  C   UNL     1      42.078 -16.058   2.184  1.00  0.00     0.020 A 
HETATM   14  C   UNL     1      42.820 -17.090   5.605  1.00  0.00     0.014 A 
HETATM   15  C   UNL     1      43.207 -17.645   3.287  1.00  0.00     0.043 A 
HETATM   16  C   UNL     1      43.593 -18.198   5.970  1.00  0.00     0.001 A 
HETATM   17  C   UNL     1      44.164 -19.018   5.000  1.00  0.00     0.002 A 
HETATM   18  C   UNL     1      43.983 -18.757   3.638  1.00  0.00     0.030 A 
HETATM   19  N   UNL     1      42.870 -17.158   2.041  1.00  0.00    -0.358 N 
HETATM   20  H   UNL     1      43.165 -17.569   1.165  1.00  0.00     0.166 HD
HETATM   21  C   UNL     1      41.488 -15.249   1.087  1.00  0.00     0.077 C 
HETATM   22  O   UNL     1      40.012 -11.732   2.124  1.00  0.00    -0.267 OA
ENDBRANCH   1   7
BRANCH   3  23
HETATM   23  O   UNL     1      42.675  -9.811   6.506  1.00  0.00    -0.345 OA
BRANCH  23  24
HETATM   24  C   UNL     1      43.432 -10.420   7.559  1.00  0.00     0.236 C 
BRANCH  24  25
HETATM   25  C   UNL     1      43.243  -9.684   8.848  1.00  0.00     0.077 A 
HETATM   26  N   UNL     1      42.806  -8.373   8.853  1.00  0.00    -0.232 NA
HETATM   27  C   UNL     1      42.770  -8.017  10.120  1.00  0.00     0.134 A 
HETATM   28  N   UNL     1      43.160  -9.060  10.953  1.00  0.00    -0.316 N 
HETATM   29  C   UNL     1      42.419  -6.786  10.744  1.00  0.00     0.051 A 
HETATM   30  C   UNL     1      43.448 -10.126  10.142  1.00  0.00     0.127 A 
HETATM   31  C   UNL     1      43.224  -8.955  12.340  1.00  0.00     0.098 A 
HETATM   32  C   UNL     1      42.896  -7.790  12.924  1.00  0.00     0.018 A 
HETATM   33  C   UNL     1      42.481  -6.675  12.086  1.00  0.00     0.005 A 
ENDBRANCH  24  25
ENDBRANCH  23  24
ENDBRANCH   3  23
TORSDOF 4
ENDMDL
MODEL 10
REMARK VINA RESULT:      -8.9      2.470     10.622
REMARK  4 active torsions:
REMARK  status: ('A' for Active; 'I' for Inactive)
REMARK       I    between atoms: N_10  and  C_11 
REMARK    1  A    between atoms: C_11  and  C_12 
REMARK    2  A    between atoms: C_14  and  O_15 
REMARK    3  A    between atoms: O_15  and  C_16 
REMARK    4  A    between atoms: C_16  and  C_17 
ROOT
HETATM    1  C   UNL     1      43.629  -9.138   7.858  1.00  0.00     0.034 A 
HETATM    2  C   UNL     1      43.530 -10.460   7.404  1.00  0.00     0.053 A 
HETATM    3  C   UNL     1      44.642 -11.298   7.477  1.00  0.00     0.070 A 
HETATM    4  C   UNL     1      45.844 -10.799   7.990  1.00  0.00     0.037 A 
HETATM    5  C   UNL     1      45.951  -9.473   8.413  1.00  0.00     0.004 A 
HETATM    6  C   UNL     1      44.842  -8.634   8.338  1.00  0.00     0.017 A 
ENDROOT
BRANCH   1   7
HETATM    7  C   UNL     1      42.444  -8.259   7.742  1.00  0.00     0.254 C 
HETATM    8  N   UNL     1      42.095  -7.446   8.816  1.00  0.00    -0.343 N 
HETATM    9  C   UNL     1      42.756  -7.489  10.139  1.00  0.00     0.167 C 
HETATM   10  C   UNL     1      41.072  -6.403   8.597  1.00  0.00     0.132 C 
HETATM   11  C   UNL     1      41.813  -7.068  11.219  1.00  0.00    -0.005 A 
HETATM   12  C   UNL     1      42.010  -7.030  12.630  1.00  0.00     0.000 A 
HETATM   13  C   UNL     1      40.538  -6.601  10.979  1.00  0.00     0.020 A 
HETATM   14  C   UNL     1      43.081  -7.362  13.483  1.00  0.00     0.014 A 
HETATM   15  C   UNL     1      40.830  -6.537  13.197  1.00  0.00     0.043 A 
HETATM   16  C   UNL     1      42.939  -7.188  14.865  1.00  0.00     0.001 A 
HETATM   17  C   UNL     1      41.753  -6.693  15.402  1.00  0.00     0.002 A 
HETATM   18  C   UNL     1      40.674  -6.358  14.578  1.00  0.00     0.030 A 
HETATM   19  N   UNL     1      39.944  -6.295  12.168  1.00  0.00    -0.358 N 
HETATM   20  H   UNL     1      39.007  -5.938  12.289  1.00  0.00     0.166 HD
HETATM   21  C   UNL     1      39.930  -6.466   9.631  1.00  0.00     0.077 C 
HETATM   22  O   UNL     1      41.823  -8.297   6.682  1.00  0.00    -0.267 OA
ENDBRANCH   1   7
BRANCH   3  23
HETATM   23  O   UNL     1      44.695 -12.606   7.087  1.00  0.00    -0.345 OA
BRANCH  23  24
HETATM   24  C   UNL     1      43.468 -13.348   7.098  1.00  0.00     0.236 C 
BRANCH  24  25
HETATM   25  C   UNL     1      43.542 -14.519   6.170  1.00  0.00     0.077 A 
HETATM   26  N   UNL     1      43.028 -14.436   4.890  1.00  0.00    -0.232 NA
HETATM   27  C   UNL     1      43.226 -15.621   4.352  1.00  0.00     0.134 A 
HETATM   28  N   UNL     1      43.868 -16.481   5.237  1.00  0.00    -0.316 N 
HETATM   29  C   UNL     1      42.894 -16.143   3.068  1.00  0.00     0.051 A 
HETATM   30  C   UNL     1      44.082 -15.773   6.390  1.00  0.00     0.127 A 
HETATM   31  C   UNL     1      44.191 -17.801   4.931  1.00  0.00     0.098 A 
HETATM   32  C   UNL     1      43.872 -18.289   3.721  1.00  0.00     0.018 A 
HETATM   33  C   UNL     1      43.201 -17.420   2.765  1.00  0.00     0.005 A 
ENDBRANCH  24  25
ENDBRANCH  23  24
ENDBRANCH   3  23
TORSDOF 4
ENDMDL
