MODEL 1
REMARK VINA RESULT:      -9.0      0.000      0.000
REMARK  4 active torsions:
REMARK  status: ('A' for Active; 'I' for Inactive)
REMARK    1  A    between atoms: C_2  and  C_3 
REMARK    2  A    between atoms: C_3  and  N_4 
REMARK    3  A    between atoms: C_3  and  C_18 
REMARK       I    between atoms: N_4  and  C_5 
REMARK    4  A    between atoms: C_5  and  C_6 
ROOT
HETATM    1  N   UNL     1      42.837 -13.057   5.681  1.00  0.00    -0.344 N 
HETATM    2  C   UNL     1      41.863 -14.018   5.814  1.00  0.00     0.273 C 
HETATM    3  O   UNL     1      40.670 -13.791   5.951  1.00  0.00    -0.266 OA
HETATM    4  H   UNL     1      43.777 -13.361   5.917  1.00  0.00     0.163 HD
ENDROOT
BRANCH   1   5
HETATM    5  C   UNL     1      42.533 -11.634   5.738  1.00  0.00     0.158 C 
BRANCH   5   6
HETATM    6  C   UNL     1      42.990 -10.880   4.462  1.00  0.00     0.008 C 
HETATM    7  C   UNL     1      41.788 -10.245   3.753  1.00  0.00     0.012 C 
HETATM    8  C   UNL     1      43.767 -11.742   3.459  1.00  0.00     0.012 C 
ENDBRANCH   5   6
BRANCH   5   9
HETATM    9  C   UNL     1      43.100 -11.052   7.008  1.00  0.00     0.128 A 
HETATM   10  N   UNL     1      44.342 -11.107   7.450  1.00  0.00    -0.231 NA
HETATM   11  C   UNL     1      44.353 -10.401   8.627  1.00  0.00     0.085 A 
HETATM   12  C   UNL     1      43.091  -9.899   8.918  1.00  0.00     0.062 A 
HETATM   13  C   UNL     1      45.414 -10.144   9.510  1.00  0.00     0.034 A 
HETATM   14  N   UNL     1      42.318 -10.308   7.865  1.00  0.00    -0.341 N 
HETATM   15  C   UNL     1      42.807  -9.152  10.063  1.00  0.00     0.032 A 
HETATM   16  H   UNL     1      41.331 -10.122   7.732  1.00  0.00     0.167 HD
HETATM   17  C   UNL     1      43.876  -8.909  10.935  1.00  0.00     0.002 A 
HETATM   18  C   UNL     1      45.158  -9.392  10.664  1.00  0.00     0.002 A 
ENDBRANCH   5   9
ENDBRANCH   1   5
BRANCH   2  19
HETATM   19  C   UNL     1      42.409 -15.443   5.877  1.00  0.00     0.155 A 
HETATM   20  N   UNL     1      42.511 -15.952   7.074  1.00  0.00    -0.166 NA
HETATM   21  N   UNL     1      42.960 -17.233   7.184  1.00  0.00    -0.242 N 
HETATM   22  C   UNL     1      43.288 -18.069   6.142  1.00  0.00     0.272 A 
HETATM   23  H   UNL     1      43.008 -17.623   8.122  1.00  0.00     0.192 HD
HETATM   24  O   UNL     1      43.645 -19.227   6.318  1.00  0.00    -0.266 OA
HETATM   25  C   UNL     1      43.202 -17.487   4.792  1.00  0.00     0.046 A 
HETATM   26  C   UNL     1      42.783 -16.165   4.644  1.00  0.00     0.016 A 
HETATM   27  C   UNL     1      43.554 -18.253   3.673  1.00  0.00     0.018 A 
HETATM   28  C   UNL     1      42.748 -15.595   3.367  1.00  0.00     0.015 A 
HETATM   29  C   UNL     1      43.101 -16.359   2.249  1.00  0.00     0.001 A 
HETATM   30  C   UNL     1      43.499 -17.685   2.402  1.00  0.00     0.001 A 
ENDBRANCH   2  19
TORSDOF 4
ENDMDL
MODEL 2
REMARK VINA RESULT:      -8.8      4.684      8.404
REMARK  4 active torsions:
REMARK  status: ('A' for Active; 'I' for Inactive)
REMARK    1  A    between atoms: C_2  and  C_3 
REMARK    2  A    between atoms: C_3  and  N_4 
REMARK    3  A    between atoms: C_3  and  C_18 
REMARK       I    between atoms: N_4  and  C_5 
REMARK    4  A    between atoms: C_5  and  C_6 
ROOT
HETATM    1  N   UNL     1      41.602 -14.461   1.840  1.00  0.00    -0.344 N 
HETATM    2  C   UNL     1      40.342 -13.996   1.543  1.00  0.00     0.273 C 
HETATM    3  O   UNL     1      39.500 -13.681   2.370  1.00  0.00    -0.266 OA
HETATM    4  H   UNL     1      42.051 -14.992   1.099  1.00  0.00     0.163 HD
ENDROOT
BRANCH   1   5
HETATM    5  C   UNL     1      42.045 -14.672   3.211  1.00  0.00     0.158 C 
BRANCH   5   6
HETATM    6  C   UNL     1      43.044 -13.584   3.683  1.00  0.00     0.008 C 
HETATM    7  C   UNL     1      42.769 -13.199   5.142  1.00  0.00     0.012 C 
HETATM    8  C   UNL     1      43.054 -12.314   2.822  1.00  0.00     0.012 C 
ENDBRANCH   5   6
BRANCH   5   9
HETATM    9  C   UNL     1      42.582 -16.074   3.353  1.00  0.00     0.128 A 
HETATM   10  N   UNL     1      43.177 -16.620   4.397  1.00  0.00    -0.231 NA
HETATM   11  C   UNL     1      43.446 -17.918   4.039  1.00  0.00     0.085 A 
HETATM   12  C   UNL     1      43.007 -18.179   2.747  1.00  0.00     0.062 A 
HETATM   13  C   UNL     1      44.067 -18.941   4.771  1.00  0.00     0.034 A 
HETATM   14  N   UNL     1      42.444 -16.999   2.340  1.00  0.00    -0.341 N 
HETATM   15  C   UNL     1      43.161 -19.415   2.117  1.00  0.00     0.032 A 
HETATM   16  H   UNL     1      42.012 -16.812   1.443  1.00  0.00     0.167 HD
HETATM   17  C   UNL     1      43.788 -20.423   2.861  1.00  0.00     0.002 A 
HETATM   18  C   UNL     1      44.231 -20.194   4.166  1.00  0.00     0.002 A 
ENDBRANCH   5   9
ENDBRANCH   1   5
BRANCH   2  19
HETATM   19  C   UNL     1      40.025 -13.990   0.049  1.00  0.00     0.155 A 
HETATM   20  N   UNL     1      39.460 -15.073  -0.410  1.00  0.00    -0.166 NA
HETATM   21  N   UNL     1      39.124 -15.106  -1.729  1.00  0.00    -0.242 N 
HETATM   22  C   UNL     1      39.292 -14.084  -2.633  1.00  0.00     0.272 A 
HETATM   23  H   UNL     1      38.660 -15.947  -2.063  1.00  0.00     0.192 HD
HETATM   24  O   UNL     1      38.924 -14.172  -3.798  1.00  0.00    -0.266 OA
HETATM   25  C   UNL     1      39.957 -12.871  -2.125  1.00  0.00     0.046 A 
HETATM   26  C   UNL     1      40.350 -12.818  -0.789  1.00  0.00     0.016 A 
HETATM   27  C   UNL     1      40.204 -11.794  -2.986  1.00  0.00     0.018 A 
HETATM   28  C   UNL     1      41.025 -11.687  -0.317  1.00  0.00     0.015 A 
HETATM   29  C   UNL     1      41.275 -10.611  -1.176  1.00  0.00     0.001 A 
HETATM   30  C   UNL     1      40.861 -10.663  -2.506  1.00  0.00     0.001 A 
ENDBRANCH   2  19
TORSDOF 4
ENDMDL
MODEL 3
REMARK VINA RESULT:      -8.7      4.512      7.740
REMARK  4 active torsions:
REMARK  status: ('A' for Active; 'I' for Inactive)
REMARK    1  A    between atoms: C_2  and  C_3 
REMARK    2  A    between atoms: C_3  and  N_4 
REMARK    3  A    between atoms: C_3  and  C_18 
REMARK       I    between atoms: N_4  and  C_5 
REMARK    4  A    between atoms: C_5  and  C_6 
ROOT
HETATM    1  N   UNL     1      41.336 -14.450   2.559  1.00  0.00    -0.344 N 
HETATM    2  C   UNL     1      42.688 -14.700   2.579  1.00  0.00     0.273 C 
HETATM    3  O   UNL     1      43.549 -13.922   2.197  1.00  0.00    -0.266 OA
HETATM    4  H   UNL     1      40.745 -15.276   2.575  1.00  0.00     0.163 HD
ENDROOT
BRANCH   1   5
HETATM    5  C   UNL     1      40.786 -13.214   2.021  1.00  0.00     0.158 C 
BRANCH   5   6
HETATM    6  C   UNL     1      39.868 -12.485   3.037  1.00  0.00     0.008 C 
HETATM    7  C   UNL     1      40.235 -10.998   3.120  1.00  0.00     0.012 C 
HETATM    8  C   UNL     1      39.881 -13.084   4.449  1.00  0.00     0.012 C 
ENDBRANCH   5   6
BRANCH   5   9
HETATM    9  C   UNL     1      40.107 -13.499   0.705  1.00  0.00     0.128 A 
HETATM   10  N   UNL     1      40.313 -14.508  -0.120  1.00  0.00    -0.231 NA
HETATM   11  C   UNL     1      39.428 -14.333  -1.155  1.00  0.00     0.085 A 
HETATM   12  C   UNL     1      38.659 -13.192  -0.964  1.00  0.00     0.062 A 
HETATM   13  C   UNL     1      39.222 -15.115  -2.302  1.00  0.00     0.034 A 
HETATM   14  N   UNL     1      39.095 -12.692   0.234  1.00  0.00    -0.341 N 
HETATM   15  C   UNL     1      37.685 -12.762  -1.867  1.00  0.00     0.032 A 
HETATM   16  H   UNL     1      38.755 -11.859   0.700  1.00  0.00     0.167 HD
HETATM   17  C   UNL     1      37.496 -13.552  -3.008  1.00  0.00     0.002 A 
HETATM   18  C   UNL     1      38.247 -14.710  -3.223  1.00  0.00     0.002 A 
ENDBRANCH   5   9
ENDBRANCH   1   5
BRANCH   2  19
HETATM   19  C   UNL     1      43.046 -16.111   3.041  1.00  0.00     0.155 A 
HETATM   20  N   UNL     1      43.241 -16.982   2.090  1.00  0.00    -0.166 NA
HETATM   21  N   UNL     1      43.597 -18.246   2.447  1.00  0.00    -0.242 N 
HETATM   22  C   UNL     1      43.809 -18.697   3.728  1.00  0.00     0.272 A 
HETATM   23  H   UNL     1      43.772 -18.904   1.691  1.00  0.00     0.192 HD
HETATM   24  O   UNL     1      44.172 -19.841   3.970  1.00  0.00    -0.266 OA
HETATM   25  C   UNL     1      43.561 -17.724   4.807  1.00  0.00     0.046 A 
HETATM   26  C   UNL     1      43.157 -16.431   4.479  1.00  0.00     0.016 A 
HETATM   27  C   UNL     1      43.715 -18.107   6.146  1.00  0.00     0.018 A 
HETATM   28  C   UNL     1      42.874 -15.520   5.503  1.00  0.00     0.015 A 
HETATM   29  C   UNL     1      43.024 -15.902   6.841  1.00  0.00     0.001 A 
HETATM   30  C   UNL     1      43.448 -17.190   7.161  1.00  0.00     0.001 A 
ENDBRANCH   2  19
TORSDOF 4
ENDMDL
MODEL 4
REMARK VINA RESULT:      -8.5      3.798      6.892
REMARK  4 active torsions:
REMARK  status: ('A' for Active; 'I' for Inactive)
REMARK    1  A    between atoms: C_2  and  C_3 
REMARK    2  A    between atoms: C_3  and  N_4 
REMARK    3  A    between atoms: C_3  and  C_18 
REMARK       I    between atoms: N_4  and  C_5 
REMARK    4  A    between atoms: C_5  and  C_6 
ROOT
HETATM    1  N   UNL     1      41.076 -12.744   3.628  1.00  0.00    -0.344 N 
HETATM    2  C   UNL     1      42.444 -12.829   3.745  1.00  0.00     0.273 C 
HETATM    3  O   UNL     1      43.238 -12.049   3.241  1.00  0.00    -0.266 OA
HETATM    4  H   UNL     1      40.575 -13.613   3.795  1.00  0.00     0.163 HD
ENDROOT
BRANCH   1   5
HETATM    5  C   UNL     1      40.430 -11.713   2.829  1.00  0.00     0.158 C 
BRANCH   5   6
HETATM    6  C   UNL     1      39.042 -11.313   3.392  1.00  0.00     0.008 C 
HETATM    7  C   UNL     1      38.407 -10.217   2.527  1.00  0.00     0.012 C 
HETATM    8  C   UNL     1      39.058 -10.850   4.855  1.00  0.00     0.012 C 
ENDBRANCH   5   6
BRANCH   5   9
HETATM    9  C   UNL     1      40.383 -12.154   1.388  1.00  0.00     0.128 A 
HETATM   10  N   UNL     1      40.969 -11.600   0.343  1.00  0.00    -0.231 NA
HETATM   11  C   UNL     1      40.645 -12.391  -0.732  1.00  0.00     0.085 A 
HETATM   12  C   UNL     1      39.843 -13.456  -0.342  1.00  0.00     0.062 A 
HETATM   13  C   UNL     1      41.004 -12.261  -2.082  1.00  0.00     0.034 A 
HETATM   14  N   UNL     1      39.708 -13.295   1.011  1.00  0.00    -0.341 N 
HETATM   15  C   UNL     1      39.353 -14.414  -1.231  1.00  0.00     0.032 A 
HETATM   16  H   UNL     1      39.186 -13.892   1.641  1.00  0.00     0.167 HD
HETATM   17  C   UNL     1      39.717 -14.266  -2.575  1.00  0.00     0.002 A 
HETATM   18  C   UNL     1      40.531 -13.211  -2.996  1.00  0.00     0.002 A 
ENDBRANCH   5   9
ENDBRANCH   1   5
BRANCH   2  19
HETATM   19  C   UNL     1      42.922 -14.067   4.501  1.00  0.00     0.155 A 
HETATM   20  N   UNL     1      43.140 -13.898   5.775  1.00  0.00    -0.166 NA
HETATM   21  N   UNL     1      43.534 -14.979   6.503  1.00  0.00    -0.242 N 
HETATM   22  C   UNL     1      43.694 -16.260   6.029  1.00  0.00     0.272 A 
HETATM   23  H   UNL     1      43.673 -14.834   7.500  1.00  0.00     0.192 HD
HETATM   24  O   UNL     1      44.010 -17.194   6.755  1.00  0.00    -0.266 OA
HETATM   25  C   UNL     1      43.477 -16.448   4.584  1.00  0.00     0.046 A 
HETATM   26  C   UNL     1      43.110 -15.354   3.801  1.00  0.00     0.016 A 
HETATM   27  C   UNL     1      43.655 -17.712   4.006  1.00  0.00     0.018 A 
HETATM   28  C   UNL     1      42.952 -15.521   2.421  1.00  0.00     0.015 A 
HETATM   29  C   UNL     1      43.132 -16.782   1.842  1.00  0.00     0.001 A 
HETATM   30  C   UNL     1      43.478 -17.875   2.634  1.00  0.00     0.001 A 
ENDBRANCH   2  19
TORSDOF 4
ENDMDL
MODEL 5
REMARK VINA RESULT:      -8.3      2.593      7.644
REMARK  4 active torsions:
REMARK  status: ('A' for Active; 'I' for Inactive)
REMARK    1  A    between atoms: C_2  and  C_3 
REMARK    2  A    between atoms: C_3  and  N_4 
REMARK    3  A    between atoms: C_3  and  C_18 
REMARK       I    between atoms: N_4  and  C_5 
REMARK    4  A    between atoms: C_5  and  C_6 
ROOT
HETATM    1  N   UNL     1      42.802 -12.940   4.424  1.00  0.00    -0.344 N 
HETATM    2  C   UNL     1      43.557 -11.791   4.408  1.00  0.00     0.273 C 
HETATM    3  O   UNL     1      43.911 -11.201   3.398  1.00  0.00    -0.266 OA
HETATM    4  H   UNL     1      42.874 -13.491   5.275  1.00  0.00     0.163 HD
ENDROOT
BRANCH   1   5
HETATM    5  C   UNL     1      42.379 -13.605   3.200  1.00  0.00     0.158 C 
BRANCH   5   6
HETATM    6  C   UNL     1      40.877 -13.373   2.890  1.00  0.00     0.008 C 
HETATM    7  C   UNL     1      40.714 -12.317   1.789  1.00  0.00     0.012 C 
HETATM    8  C   UNL     1      40.033 -12.966   4.104  1.00  0.00     0.012 C 
ENDBRANCH   5   6
BRANCH   5   9
HETATM    9  C   UNL     1      42.752 -15.065   3.270  1.00  0.00     0.128 A 
HETATM   10  N   UNL     1      42.637 -15.984   2.331  1.00  0.00    -0.231 NA
HETATM   11  C   UNL     1      43.142 -17.140   2.873  1.00  0.00     0.085 A 
HETATM   12  C   UNL     1      43.580 -16.929   4.174  1.00  0.00     0.062 A 
HETATM   13  C   UNL     1      43.262 -18.419   2.309  1.00  0.00     0.034 A 
HETATM   14  N   UNL     1      43.340 -15.599   4.396  1.00  0.00    -0.341 N 
HETATM   15  C   UNL     1      44.129 -17.934   4.973  1.00  0.00     0.032 A 
HETATM   16  H   UNL     1      43.537 -15.083   5.245  1.00  0.00     0.167 HD
HETATM   17  C   UNL     1      44.236 -19.205   4.395  1.00  0.00     0.002 A 
HETATM   18  C   UNL     1      43.814 -19.445   3.085  1.00  0.00     0.002 A 
ENDBRANCH   5   9
ENDBRANCH   1   5
BRANCH   2  19
HETATM   19  C   UNL     1      44.022 -11.340   5.791  1.00  0.00     0.155 A 
HETATM   20  N   UNL     1      45.259 -11.625   6.089  1.00  0.00    -0.166 NA
HETATM   21  N   UNL     1      45.734 -11.214   7.297  1.00  0.00    -0.242 N 
HETATM   22  C   UNL     1      45.041 -10.486   8.235  1.00  0.00     0.272 A 
HETATM   23  H   UNL     1      46.709 -11.422   7.501  1.00  0.00     0.192 HD
HETATM   24  O   UNL     1      45.550 -10.114   9.285  1.00  0.00    -0.266 OA
HETATM   25  C   UNL     1      43.634 -10.188   7.914  1.00  0.00     0.046 A 
HETATM   26  C   UNL     1      43.103 -10.628   6.702  1.00  0.00     0.016 A 
HETATM   27  C   UNL     1      42.840  -9.484   8.829  1.00  0.00     0.018 A 
HETATM   28  C   UNL     1      41.754 -10.388   6.417  1.00  0.00     0.015 A 
HETATM   29  C   UNL     1      40.959  -9.687   7.331  1.00  0.00     0.001 A 
HETATM   30  C   UNL     1      41.502  -9.232   8.531  1.00  0.00     0.001 A 
ENDBRANCH   2  19
TORSDOF 4
ENDMDL
MODEL 6
REMARK VINA RESULT:      -8.3      4.114      7.745
REMARK  4 active torsions:
REMARK  status: ('A' for Active; 'I' for Inactive)
REMARK    1  A    between atoms: C_2  and  C_3 
REMARK    2  A    between atoms: C_3  and  N_4 
REMARK    3  A    between atoms: C_3  and  C_18 
REMARK       I    between atoms: N_4  and  C_5 
REMARK    4  A    between atoms: C_5  and  C_6 
ROOT
HETATM    1  N   UNL     1      41.991 -12.764   2.830  1.00  0.00    -0.344 N 
HETATM    2  C   UNL     1      40.820 -12.217   2.360  1.00  0.00     0.273 C 
HETATM    3  O   UNL     1      39.778 -12.145   2.994  1.00  0.00    -0.266 OA
HETATM    4  H   UNL     1      42.645 -13.062   2.112  1.00  0.00     0.163 HD
ENDROOT
BRANCH   1   5
HETATM    5  C   UNL     1      42.087 -13.368   4.151  1.00  0.00     0.158 C 
BRANCH   5   6
HETATM    6  C   UNL     1      42.904 -12.498   5.141  1.00  0.00     0.008 C 
HETATM    7  C   UNL     1      41.966 -11.670   6.028  1.00  0.00     0.012 C 
HETATM    8  C   UNL     1      43.921 -11.562   4.475  1.00  0.00     0.012 C 
ENDBRANCH   5   6
BRANCH   5   9
HETATM    9  C   UNL     1      42.615 -14.775   4.020  1.00  0.00     0.128 A 
HETATM   10  N   UNL     1      43.313 -15.471   4.898  1.00  0.00    -0.231 NA
HETATM   11  C   UNL     1      43.521 -16.700   4.321  1.00  0.00     0.085 A 
HETATM   12  C   UNL     1      42.940 -16.763   3.060  1.00  0.00     0.062 A 
HETATM   13  C   UNL     1      44.204 -17.820   4.817  1.00  0.00     0.034 A 
HETATM   14  N   UNL     1      42.354 -15.536   2.901  1.00  0.00    -0.341 N 
HETATM   15  C   UNL     1      43.006 -17.889   2.239  1.00  0.00     0.032 A 
HETATM   16  H   UNL     1      41.829 -15.217   2.095  1.00  0.00     0.167 HD
HETATM   17  C   UNL     1      43.695 -18.997   2.749  1.00  0.00     0.002 A 
HETATM   18  C   UNL     1      44.281 -18.967   4.017  1.00  0.00     0.002 A 
ENDBRANCH   5   9
ENDBRANCH   1   5
BRANCH   2  19
HETATM   19  C   UNL     1      40.889 -11.774   0.900  1.00  0.00     0.155 A 
HETATM   20  N   UNL     1      41.344 -10.568   0.701  1.00  0.00    -0.166 NA
HETATM   21  N   UNL     1      41.459 -10.136  -0.585  1.00  0.00    -0.242 N 
HETATM   22  C   UNL     1      41.174 -10.867  -1.714  1.00  0.00     0.272 A 
HETATM   23  H   UNL     1      41.841  -9.203  -0.723  1.00  0.00     0.192 HD
HETATM   24  O   UNL     1      41.345 -10.424  -2.843  1.00  0.00    -0.266 OA
HETATM   25  C   UNL     1      40.633 -12.219  -1.491  1.00  0.00     0.046 A 
HETATM   26  C   UNL     1      40.464 -12.680  -0.186  1.00  0.00     0.016 A 
HETATM   27  C   UNL     1      40.278 -13.021  -2.583  1.00  0.00     0.018 A 
HETATM   28  C   UNL     1      39.905 -13.944   0.028  1.00  0.00     0.015 A 
HETATM   29  C   UNL     1      39.547 -14.746  -1.062  1.00  0.00     0.001 A 
HETATM   30  C   UNL     1      39.738 -14.287  -2.364  1.00  0.00     0.001 A 
ENDBRANCH   2  19
TORSDOF 4
ENDMDL
MODEL 7
REMARK VINA RESULT:      -7.9      1.817      2.490
REMARK  4 active torsions:
REMARK  status: ('A' for Active; 'I' for Inactive)
REMARK    1  A    between atoms: C_2  and  C_3 
REMARK    2  A    between atoms: C_3  and  N_4 
REMARK    3  A    between atoms: C_3  and  C_18 
REMARK       I    between atoms: N_4  and  C_5 
REMARK    4  A    between atoms: C_5  and  C_6 
ROOT
HETATM    1  N   UNL     1      42.333 -12.953   4.391  1.00  0.00    -0.344 N 
HETATM    2  C   UNL     1      41.448 -13.941   4.029  1.00  0.00     0.273 C 
HETATM    3  O   UNL     1      40.232 -13.828   4.038  1.00  0.00    -0.266 OA
HETATM    4  H   UNL     1      43.258 -13.280   4.660  1.00  0.00     0.163 HD
ENDROOT
BRANCH   1   5
HETATM    5  C   UNL     1      41.888 -11.656   4.878  1.00  0.00     0.158 C 
BRANCH   5   6
HETATM    6  C   UNL     1      41.743 -10.615   3.738  1.00  0.00     0.008 C 
HETATM    7  C   UNL     1      40.265 -10.278   3.503  1.00  0.00     0.012 C 
HETATM    8  C   UNL     1      42.379 -11.037   2.407  1.00  0.00     0.012 C 
ENDBRANCH   5   6
BRANCH   5   9
HETATM    9  C   UNL     1      42.800 -11.198   5.989  1.00  0.00     0.128 A 
HETATM   10  N   UNL     1      44.118 -11.147   5.996  1.00  0.00    -0.231 NA
HETATM   11  C   UNL     1      44.467 -10.631   7.219  1.00  0.00     0.085 A 
HETATM   12  C   UNL     1      43.340 -10.357   7.983  1.00  0.00     0.062 A 
HETATM   13  C   UNL     1      45.737 -10.366   7.753  1.00  0.00     0.034 A 
HETATM   14  N   UNL     1      42.293 -10.706   7.172  1.00  0.00    -0.341 N 
HETATM   15  C   UNL     1      43.396  -9.837   9.277  1.00  0.00     0.032 A 
HETATM   16  H   UNL     1      41.308 -10.640   7.396  1.00  0.00     0.167 HD
HETATM   17  C   UNL     1      44.673  -9.582   9.795  1.00  0.00     0.002 A 
HETATM   18  C   UNL     1      45.824  -9.838   9.047  1.00  0.00     0.002 A 
ENDBRANCH   5   9
ENDBRANCH   1   5
BRANCH   2  19
HETATM   19  C   UNL     1      42.116 -15.273   3.692  1.00  0.00     0.155 A 
HETATM   20  N   UNL     1      42.255 -15.525   2.420  1.00  0.00    -0.166 NA
HETATM   21  N   UNL     1      42.877 -16.683   2.065  1.00  0.00    -0.242 N 
HETATM   22  C   UNL     1      43.411 -17.612   2.926  1.00  0.00     0.272 A 
HETATM   23  H   UNL     1      43.001 -16.850   1.069  1.00  0.00     0.192 HD
HETATM   24  O   UNL     1      43.996 -18.614   2.530  1.00  0.00    -0.266 OA
HETATM   25  C   UNL     1      43.229 -17.345   4.363  1.00  0.00     0.046 A 
HETATM   26  C   UNL     1      42.563 -16.187   4.762  1.00  0.00     0.016 A 
HETATM   27  C   UNL     1      43.708 -18.257   5.313  1.00  0.00     0.018 A 
HETATM   28  C   UNL     1      42.346 -15.956   6.125  1.00  0.00     0.015 A 
HETATM   29  C   UNL     1      42.822 -16.867   7.075  1.00  0.00     0.001 A 
HETATM   30  C   UNL     1      43.505 -18.012   6.670  1.00  0.00     0.001 A 
ENDBRANCH   2  19
TORSDOF 4
ENDMDL
MODEL 8
REMARK VINA RESULT:      -7.9     16.943     18.712
REMARK  4 active torsions:
REMARK  status: ('A' for Active; 'I' for Inactive)
REMARK    1  A    between atoms: C_2  and  C_3 
REMARK    2  A    between atoms: C_3  and  N_4 
REMARK    3  A    between atoms: C_3  and  C_18 
REMARK       I    between atoms: N_4  and  C_5 
REMARK    4  A    between atoms: C_5  and  C_6 
ROOT
HETATM    1  N   UNL     1      45.553 -30.109   2.185  1.00  0.00    -0.344 N 
HETATM    2  C   UNL     1      46.569 -29.218   2.435  1.00  0.00     0.273 C 
HETATM    3  O   UNL     1      46.494 -28.009   2.276  1.00  0.00    -0.266 OA
HETATM    4  H   UNL     1      45.849 -31.069   2.032  1.00  0.00     0.163 HD
ENDROOT
BRANCH   1   5
HETATM    5  C   UNL     1      44.268 -29.686   1.647  1.00  0.00     0.158 C 
BRANCH   5   6
HETATM    6  C   UNL     1      43.106 -30.610   2.097  1.00  0.00     0.008 C 
HETATM    7  C   UNL     1      42.116 -29.837   2.978  1.00  0.00     0.012 C 
HETATM    8  C   UNL     1      43.552 -31.878   2.837  1.00  0.00     0.012 C 
ENDBRANCH   5   6
BRANCH   5   9
HETATM    9  C   UNL     1      44.372 -29.550   0.149  1.00  0.00     0.128 A 
HETATM   10  N   UNL     1      43.971 -30.398  -0.780  1.00  0.00    -0.231 NA
HETATM   11  C   UNL     1      44.261 -29.802  -1.982  1.00  0.00     0.085 A 
HETATM   12  C   UNL     1      44.854 -28.560  -1.792  1.00  0.00     0.062 A 
HETATM   13  C   UNL     1      44.046 -30.265  -3.289  1.00  0.00     0.034 A 
HETATM   14  N   UNL     1      44.895 -28.414  -0.431  1.00  0.00    -0.341 N 
HETATM   15  C   UNL     1      45.267 -27.737  -2.841  1.00  0.00     0.032 A 
HETATM   16  H   UNL     1      45.262 -27.621   0.081  1.00  0.00     0.167 HD
HETATM   17  C   UNL     1      45.048 -28.217  -4.138  1.00  0.00     0.002 A 
HETATM   18  C   UNL     1      44.445 -29.458  -4.361  1.00  0.00     0.002 A 
ENDBRANCH   5   9
ENDBRANCH   1   5
BRANCH   2  19
HETATM   19  C   UNL     1      47.881 -29.881   2.851  1.00  0.00     0.155 A 
HETATM   20  N   UNL     1      47.997 -30.146   4.123  1.00  0.00    -0.166 NA
HETATM   21  N   UNL     1      49.133 -30.770   4.542  1.00  0.00    -0.242 N 
HETATM   22  C   UNL     1      50.171 -31.185   3.742  1.00  0.00     0.272 A 
HETATM   23  H   UNL     1      49.194 -30.993   5.532  1.00  0.00     0.192 HD
HETATM   24  O   UNL     1      51.144 -31.781   4.187  1.00  0.00    -0.266 OA
HETATM   25  C   UNL     1      50.056 -30.860   2.309  1.00  0.00     0.046 A 
HETATM   26  C   UNL     1      48.924 -30.188   1.851  1.00  0.00     0.016 A 
HETATM   27  C   UNL     1      51.084 -31.212   1.425  1.00  0.00     0.018 A 
HETATM   28  C   UNL     1      48.835 -29.835   0.500  1.00  0.00     0.015 A 
HETATM   29  C   UNL     1      49.863 -30.183  -0.384  1.00  0.00     0.001 A 
HETATM   30  C   UNL     1      50.982 -30.874   0.077  1.00  0.00     0.001 A 
ENDBRANCH   2  19
TORSDOF 4
ENDMDL
MODEL 9
REMARK VINA RESULT:      -7.9      2.724      3.805
REMARK  4 active torsions:
REMARK  status: ('A' for Active; 'I' for Inactive)
REMARK    1  A    between atoms: C_2  and  C_3 
REMARK    2  A    between atoms: C_3  and  N_4 
REMARK    3  A    between atoms: C_3  and  C_18 
REMARK       I    between atoms: N_4  and  C_5 
REMARK    4  A    between atoms: C_5  and  C_6 
ROOT
HETATM    1  N   UNL     1      40.321 -11.425   5.061  1.00  0.00    -0.344 N 
HETATM    2  C   UNL     1      39.875 -12.725   5.071  1.00  0.00     0.273 C 
HETATM    3  O   UNL     1      39.481 -13.322   6.062  1.00  0.00    -0.266 OA
HETATM    4  H   UNL     1      40.919 -11.181   4.276  1.00  0.00     0.163 HD
ENDROOT
BRANCH   1   5
HETATM    5  C   UNL     1      40.411 -10.628   6.276  1.00  0.00     0.158 C 
BRANCH   5   6
HETATM    6  C   UNL     1      39.793  -9.216   6.104  1.00  0.00     0.008 C 
HETATM    7  C   UNL     1      38.420  -9.309   5.428  1.00  0.00     0.012 C 
HETATM    8  C   UNL     1      40.671  -8.230   5.322  1.00  0.00     0.012 C 
ENDBRANCH   5   6
BRANCH   5   9
HETATM    9  C   UNL     1      41.843 -10.597   6.749  1.00  0.00     0.128 A 
HETATM   10  N   UNL     1      42.925 -10.996   6.108  1.00  0.00    -0.231 NA
HETATM   11  C   UNL     1      43.978 -10.729   6.948  1.00  0.00     0.085 A 
HETATM   12  C   UNL     1      43.536 -10.153   8.132  1.00  0.00     0.062 A 
HETATM   13  C   UNL     1      45.351 -10.952   6.765  1.00  0.00     0.034 A 
HETATM   14  N   UNL     1      42.179 -10.061   7.973  1.00  0.00    -0.341 N 
HETATM   15  C   UNL     1      44.390  -9.789   9.175  1.00  0.00     0.032 A 
HETATM   16  H   UNL     1      41.517  -9.684   8.641  1.00  0.00     0.167 HD
HETATM   17  C   UNL     1      45.757 -10.024   8.977  1.00  0.00     0.002 A 
HETATM   18  C   UNL     1      46.232 -10.592   7.792  1.00  0.00     0.002 A 
ENDBRANCH   5   9
ENDBRANCH   1   5
BRANCH   2  19
HETATM   19  C   UNL     1      40.001 -13.430   3.722  1.00  0.00     0.155 A 
HETATM   20  N   UNL     1      39.083 -13.131   2.845  1.00  0.00    -0.166 NA
HETATM   21  N   UNL     1      39.168 -13.705   1.613  1.00  0.00    -0.242 N 
HETATM   22  C   UNL     1      40.160 -14.554   1.183  1.00  0.00     0.272 A 
HETATM   23  H   UNL     1      38.459 -13.440   0.934  1.00  0.00     0.192 HD
HETATM   24  O   UNL     1      40.194 -14.999   0.042  1.00  0.00    -0.266 OA
HETATM   25  C   UNL     1      41.182 -14.917   2.180  1.00  0.00     0.046 A 
HETATM   26  C   UNL     1      41.104 -14.378   3.464  1.00  0.00     0.016 A 
HETATM   27  C   UNL     1      42.209 -15.807   1.841  1.00  0.00     0.018 A 
HETATM   28  C   UNL     1      42.045 -14.759   4.426  1.00  0.00     0.015 A 
HETATM   29  C   UNL     1      43.070 -15.650   4.089  1.00  0.00     0.001 A 
HETATM   30  C   UNL     1      43.155 -16.168   2.799  1.00  0.00     0.001 A 
ENDBRANCH   2  19
TORSDOF 4
ENDMDL
MODEL 10
REMARK VINA RESULT:      -7.5      2.377      2.992
REMARK  4 active torsions:
REMARK  status: ('A' for Active; 'I' for Inactive)
REMARK    1  A    between atoms: C_2  and  C_3 
REMARK    2  A    between atoms: C_3  and  N_4 
REMARK    3  A    between atoms: C_3  and  C_18 
REMARK       I    between atoms: N_4  and  C_5 
REMARK    4  A    between atoms: C_5  and  C_6 
ROOT
HETATM    1  N   UNL     1      40.921 -11.667   5.385  1.00  0.00    -0.344 N 
HETATM    2  C   UNL     1      40.093 -12.764   5.416  1.00  0.00     0.273 C 
HETATM    3  O   UNL     1      39.075 -12.852   6.085  1.00  0.00    -0.266 OA
HETATM    4  H   UNL     1      41.871 -11.854   5.073  1.00  0.00     0.163 HD
ENDROOT
BRANCH   1   5
HETATM    5  C   UNL     1      40.680 -10.492   6.209  1.00  0.00     0.158 C 
BRANCH   5   6
HETATM    6  C   UNL     1      40.387  -9.226   5.361  1.00  0.00     0.008 C 
HETATM    7  C   UNL     1      38.969  -9.285   4.782  1.00  0.00     0.012 C 
HETATM    8  C   UNL     1      41.385  -8.980   4.222  1.00  0.00     0.012 C 
ENDBRANCH   5   6
BRANCH   5   9
HETATM    9  C   UNL     1      41.827 -10.310   7.171  1.00  0.00     0.128 A 
HETATM   10  N   UNL     1      43.099 -10.614   6.994  1.00  0.00    -0.231 NA
HETATM   11  C   UNL     1      43.741 -10.227   8.145  1.00  0.00     0.085 A 
HETATM   12  C   UNL     1      42.845  -9.674   9.051  1.00  0.00     0.062 A 
HETATM   13  C   UNL     1      45.097 -10.319   8.490  1.00  0.00     0.034 A 
HETATM   14  N   UNL     1      41.641  -9.719   8.402  1.00  0.00    -0.341 N 
HETATM   15  C   UNL     1      43.219  -9.207  10.312  1.00  0.00     0.032 A 
HETATM   16  H   UNL     1      40.750  -9.396   8.758  1.00  0.00     0.167 HD
HETATM   17  C   UNL     1      44.577  -9.310  10.642  1.00  0.00     0.002 A 
HETATM   18  C   UNL     1      45.502  -9.852   9.747  1.00  0.00     0.002 A 
ENDBRANCH   5   9
ENDBRANCH   1   5
BRANCH   2  19
HETATM   19  C   UNL     1      40.604 -13.946   4.595  1.00  0.00     0.155 A 
HETATM   20  N   UNL     1      41.206 -14.883   5.274  1.00  0.00    -0.166 NA
HETATM   21  N   UNL     1      41.651 -15.976   4.595  1.00  0.00    -0.242 N 
HETATM   22  C   UNL     1      41.496 -16.212   3.249  1.00  0.00     0.272 A 
HETATM   23  H   UNL     1      42.093 -16.709   5.145  1.00  0.00     0.192 HD
HETATM   24  O   UNL     1      41.887 -17.242   2.714  1.00  0.00    -0.266 OA
HETATM   25  C   UNL     1      40.844 -15.142   2.474  1.00  0.00     0.046 A 
HETATM   26  C   UNL     1      40.410 -13.991   3.131  1.00  0.00     0.016 A 
HETATM   27  C   UNL     1      40.678 -15.279   1.090  1.00  0.00     0.018 A 
HETATM   28  C   UNL     1      39.835 -12.953   2.390  1.00  0.00     0.015 A 
HETATM   29  C   UNL     1      39.671 -13.088   1.007  1.00  0.00     0.001 A 
HETATM   30  C   UNL     1      40.088 -14.249   0.359  1.00  0.00     0.001 A 
ENDBRANCH   2  19
TORSDOF 4
ENDMDL
