MODEL 1
REMARK VINA RESULT:      -8.5      0.000      0.000
REMARK  2 active torsions:
REMARK  status: ('A' for Active; 'I' for Inactive)
REMARK    1  A    between atoms: N_9  and  N_11 
REMARK       I    between atoms: N_11  and  C_12 
REMARK    2  A    between atoms: C_12  and  C_13 
ROOT
HETATM    1  C   UNL     1      42.145 -11.008   2.254  1.00  0.00     0.033 C 
HETATM    2  C   UNL     1      42.071 -12.320   3.037  1.00  0.00     0.086 C 
HETATM    3  N   UNL     1      41.755 -13.444   2.135  1.00  0.00    -0.379 N 
HETATM    4  C   UNL     1      40.501 -13.458   1.381  1.00  0.00     0.150 C 
HETATM    5  C   UNL     1      42.146 -14.735   2.546  1.00  0.00     0.052 A 
HETATM    6  C   UNL     1      41.788 -15.331   3.782  1.00  0.00     0.040 A 
HETATM    7  N   UNL     1      40.961 -14.655   4.746  1.00  0.00    -0.246 NA
HETATM    8  C   UNL     1      41.332 -13.327   5.125  1.00  0.00     0.077 C 
HETATM    9  N   UNL     1      41.953 -13.220   6.287  1.00  0.00    -0.291 N 
HETATM   10  H   UNL     1      42.064 -14.109   6.787  1.00  0.00     0.188 HD
HETATM   11  C   UNL     1      41.090 -12.198   4.208  1.00  0.00     0.096 C 
HETATM   12  C   UNL     1      42.887 -15.506   1.635  1.00  0.00     0.031 A 
HETATM   13  C   UNL     1      43.265 -16.818   1.930  1.00  0.00     0.002 A 
HETATM   14  C   UNL     1      42.894 -17.393   3.142  1.00  0.00     0.002 A 
HETATM   15  C   UNL     1      42.151 -16.655   4.061  1.00  0.00     0.026 A 
HETATM   16  H   UNL     1      40.096 -14.572   4.204  1.00  0.00     0.135 HD
ENDROOT
BRANCH   9  17
HETATM   17  N   UNL     1      42.456 -12.128   6.839  1.00  0.00    -0.265 N 
HETATM   18  C   UNL     1      43.832 -12.074   6.990  1.00  0.00     0.270 C 
HETATM   19  O   UNL     1      44.567 -12.994   6.643  1.00  0.00    -0.266 OA
HETATM   20  H   UNL     1      41.869 -11.325   7.024  1.00  0.00     0.190 HD
BRANCH  18  21
HETATM   21  C   UNL     1      44.383 -10.814   7.555  1.00  0.00     0.033 A 
HETATM   22  C   UNL     1      45.757 -10.535   7.558  1.00  0.00     0.017 A 
HETATM   23  C   UNL     1      46.225  -9.346   8.120  1.00  0.00     0.001 A 
HETATM   24  C   UNL     1      45.327  -8.431   8.671  1.00  0.00     0.000 A 
HETATM   25  C   UNL     1      43.958  -8.695   8.649  1.00  0.00     0.001 A 
HETATM   26  C   UNL     1      43.485  -9.882   8.088  1.00  0.00     0.017 A 
ENDBRANCH  18  21
ENDBRANCH   9  17
TORSDOF 2
ENDMDL
MODEL 2
REMARK VINA RESULT:      -8.2     16.716     18.635
REMARK  2 active torsions:
REMARK  status: ('A' for Active; 'I' for Inactive)
REMARK    1  A    between atoms: N_9  and  N_11 
REMARK       I    between atoms: N_11  and  C_12 
REMARK    2  A    between atoms: C_12  and  C_13 
ROOT
HETATM    1  C   UNL     1      47.463 -32.255   3.202  1.00  0.00     0.033 C 
HETATM    2  C   UNL     1      47.023 -30.991   2.462  1.00  0.00     0.086 C 
HETATM    3  N   UNL     1      48.140 -30.441   1.669  1.00  0.00    -0.379 N 
HETATM    4  C   UNL     1      49.371 -30.005   2.329  1.00  0.00     0.150 C 
HETATM    5  C   UNL     1      47.812 -29.633   0.561  1.00  0.00     0.052 A 
HETATM    6  C   UNL     1      46.988 -28.481   0.619  1.00  0.00     0.040 A 
HETATM    7  N   UNL     1      46.408 -28.016   1.851  1.00  0.00    -0.246 NA
HETATM    8  C   UNL     1      45.692 -28.963   2.647  1.00  0.00     0.077 C 
HETATM    9  N   UNL     1      44.375 -28.903   2.556  1.00  0.00    -0.291 N 
HETATM   10  H   UNL     1      44.030 -28.156   1.941  1.00  0.00     0.188 HD
HETATM   11  C   UNL     1      46.422 -29.973   3.436  1.00  0.00     0.096 C 
HETATM   12  C   UNL     1      48.399 -29.960  -0.672  1.00  0.00     0.031 A 
HETATM   13  C   UNL     1      48.183 -29.180  -1.811  1.00  0.00     0.002 A 
HETATM   14  C   UNL     1      47.382 -28.044  -1.735  1.00  0.00     0.002 A 
HETATM   15  C   UNL     1      46.794 -27.690  -0.522  1.00  0.00     0.026 A 
HETATM   16  H   UNL     1      47.262 -27.787   2.368  1.00  0.00     0.135 HD
ENDROOT
BRANCH   9  17
HETATM   17  N   UNL     1      43.485 -29.697   3.130  1.00  0.00    -0.265 N 
HETATM   18  C   UNL     1      42.256 -29.824   2.504  1.00  0.00     0.270 C 
HETATM   19  O   UNL     1      41.982 -29.225   1.469  1.00  0.00    -0.266 OA
HETATM   20  H   UNL     1      43.743 -30.276   3.919  1.00  0.00     0.190 HD
BRANCH  18  21
HETATM   21  C   UNL     1      41.294 -30.768   3.131  1.00  0.00     0.033 A 
HETATM   22  C   UNL     1      40.584 -31.718   2.382  1.00  0.00     0.017 A 
HETATM   23  C   UNL     1      39.675 -32.567   3.016  1.00  0.00     0.001 A 
HETATM   24  C   UNL     1      39.478 -32.478   4.394  1.00  0.00     0.000 A 
HETATM   25  C   UNL     1      40.199 -31.550   5.145  1.00  0.00     0.001 A 
HETATM   26  C   UNL     1      41.109 -30.699   4.517  1.00  0.00     0.017 A 
ENDBRANCH  18  21
ENDBRANCH   9  17
TORSDOF 2
ENDMDL
MODEL 3
REMARK VINA RESULT:      -8.2      4.126      6.739
REMARK  2 active torsions:
REMARK  status: ('A' for Active; 'I' for Inactive)
REMARK    1  A    between atoms: N_9  and  N_11 
REMARK       I    between atoms: N_11  and  C_12 
REMARK    2  A    between atoms: C_12  and  C_13 
ROOT
HETATM    1  C   UNL     1      42.741 -11.676   2.801  1.00  0.00     0.033 C 
HETATM    2  C   UNL     1      41.672 -12.233   1.860  1.00  0.00     0.086 C 
HETATM    3  N   UNL     1      41.229 -11.195   0.908  1.00  0.00    -0.379 N 
HETATM    4  C   UNL     1      40.607  -9.963   1.393  1.00  0.00     0.150 C 
HETATM    5  C   UNL     1      40.672 -11.631  -0.313  1.00  0.00     0.052 A 
HETATM    6  C   UNL     1      39.576 -12.523  -0.426  1.00  0.00     0.040 A 
HETATM    7  N   UNL     1      38.911 -13.068   0.728  1.00  0.00    -0.246 NA
HETATM    8  C   UNL     1      39.720 -13.680   1.735  1.00  0.00     0.077 C 
HETATM    9  N   UNL     1      39.749 -15.001   1.716  1.00  0.00    -0.291 N 
HETATM   10  H   UNL     1      39.157 -15.424   0.992  1.00  0.00     0.188 HD
HETATM   11  C   UNL     1      40.516 -12.848   2.656  1.00  0.00     0.096 C 
HETATM   12  C   UNL     1      41.202 -11.087  -1.494  1.00  0.00     0.031 A 
HETATM   13  C   UNL     1      40.673 -11.411  -2.745  1.00  0.00     0.002 A 
HETATM   14  C   UNL     1      39.588 -12.278  -2.839  1.00  0.00     0.002 A 
HETATM   15  C   UNL     1      39.036 -12.825  -1.683  1.00  0.00     0.026 A 
HETATM   16  H   UNL     1      38.539 -12.205   1.137  1.00  0.00     0.135 HD
ENDROOT
BRANCH   9  17
HETATM   17  N   UNL     1      40.461 -15.807   2.487  1.00  0.00    -0.265 N 
HETATM   18  C   UNL     1      41.746 -16.109   2.067  1.00  0.00     0.270 C 
HETATM   19  O   UNL     1      42.216 -15.666   1.023  1.00  0.00    -0.266 OA
HETATM   20  H   UNL     1      40.120 -16.085   3.398  1.00  0.00     0.190 HD
BRANCH  18  21
HETATM   21  C   UNL     1      42.552 -16.966   2.976  1.00  0.00     0.033 A 
HETATM   22  C   UNL     1      42.728 -16.656   4.333  1.00  0.00     0.017 A 
HETATM   23  C   UNL     1      43.512 -17.483   5.139  1.00  0.00     0.001 A 
HETATM   24  C   UNL     1      44.113 -18.621   4.601  1.00  0.00     0.000 A 
HETATM   25  C   UNL     1      43.921 -18.944   3.258  1.00  0.00     0.001 A 
HETATM   26  C   UNL     1      43.139 -18.121   2.447  1.00  0.00     0.017 A 
ENDBRANCH  18  21
ENDBRANCH   9  17
TORSDOF 2
ENDMDL
MODEL 4
REMARK VINA RESULT:      -8.0      3.305      7.660
REMARK  2 active torsions:
REMARK  status: ('A' for Active; 'I' for Inactive)
REMARK    1  A    between atoms: N_9  and  N_11 
REMARK       I    between atoms: N_11  and  C_12 
REMARK    2  A    between atoms: C_12  and  C_13 
ROOT
HETATM    1  C   UNL     1      39.349 -11.463   3.695  1.00  0.00     0.033 C 
HETATM    2  C   UNL     1      40.393 -12.579   3.631  1.00  0.00     0.086 C 
HETATM    3  N   UNL     1      40.921 -12.871   4.978  1.00  0.00    -0.379 N 
HETATM    4  C   UNL     1      41.617 -11.835   5.741  1.00  0.00     0.150 C 
HETATM    5  C   UNL     1      41.467 -14.154   5.196  1.00  0.00     0.052 A 
HETATM    6  C   UNL     1      42.501 -14.732   4.418  1.00  0.00     0.040 A 
HETATM    7  N   UNL     1      43.109 -14.037   3.315  1.00  0.00    -0.246 NA
HETATM    8  C   UNL     1      42.243 -13.471   2.328  1.00  0.00     0.077 C 
HETATM    9  N   UNL     1      42.125 -14.165   1.209  1.00  0.00    -0.291 N 
HETATM   10  H   UNL     1      42.699 -15.017   1.181  1.00  0.00     0.188 HD
HETATM   11  C   UNL     1      41.491 -12.236   2.619  1.00  0.00     0.096 C 
HETATM   12  C   UNL     1      40.994 -14.876   6.304  1.00  0.00     0.031 A 
HETATM   13  C   UNL     1      41.520 -16.127   6.635  1.00  0.00     0.002 A 
HETATM   14  C   UNL     1      42.545 -16.676   5.869  1.00  0.00     0.002 A 
HETATM   15  C   UNL     1      43.040 -15.977   4.770  1.00  0.00     0.026 A 
HETATM   16  H   UNL     1      43.531 -13.251   3.817  1.00  0.00     0.135 HD
ENDROOT
BRANCH   9  17
HETATM   17  N   UNL     1      41.347 -13.904   0.171  1.00  0.00    -0.265 N 
HETATM   18  C   UNL     1      40.199 -14.667   0.035  1.00  0.00     0.270 C 
HETATM   19  O   UNL     1      39.907 -15.560   0.826  1.00  0.00    -0.266 OA
HETATM   20  H   UNL     1      41.525 -13.101  -0.418  1.00  0.00     0.190 HD
BRANCH  18  21
HETATM   21  C   UNL     1      39.308 -14.317  -1.102  1.00  0.00     0.033 A 
HETATM   22  C   UNL     1      39.105 -15.183  -2.186  1.00  0.00     0.017 A 
HETATM   23  C   UNL     1      38.273 -14.797  -3.239  1.00  0.00     0.001 A 
HETATM   24  C   UNL     1      37.637 -13.555  -3.210  1.00  0.00     0.000 A 
HETATM   25  C   UNL     1      37.819 -12.702  -2.123  1.00  0.00     0.001 A 
HETATM   26  C   UNL     1      38.649 -13.082  -1.068  1.00  0.00     0.017 A 
ENDBRANCH  18  21
ENDBRANCH   9  17
TORSDOF 2
ENDMDL
MODEL 5
REMARK VINA RESULT:      -7.5      4.026      6.571
REMARK  2 active torsions:
REMARK  status: ('A' for Active; 'I' for Inactive)
REMARK    1  A    between atoms: N_9  and  N_11 
REMARK       I    between atoms: N_11  and  C_12 
REMARK    2  A    between atoms: C_12  and  C_13 
ROOT
HETATM    1  C   UNL     1      43.531 -16.067   1.216  1.00  0.00     0.033 C 
HETATM    2  C   UNL     1      42.648 -15.927   2.457  1.00  0.00     0.086 C 
HETATM    3  N   UNL     1      43.239 -16.654   3.596  1.00  0.00    -0.379 N 
HETATM    4  C   UNL     1      43.451 -18.100   3.524  1.00  0.00     0.150 C 
HETATM    5  C   UNL     1      42.877 -16.231   4.893  1.00  0.00     0.052 A 
HETATM    6  C   UNL     1      41.544 -16.122   5.362  1.00  0.00     0.040 A 
HETATM    7  N   UNL     1      40.413 -16.454   4.537  1.00  0.00    -0.246 NA
HETATM    8  C   UNL     1      40.344 -15.867   3.236  1.00  0.00     0.077 C 
HETATM    9  N   UNL     1      39.525 -14.836   3.120  1.00  0.00    -0.291 N 
HETATM   10  H   UNL     1      39.016 -14.605   3.981  1.00  0.00     0.188 HD
HETATM   11  C   UNL     1      41.210 -16.362   2.150  1.00  0.00     0.096 C 
HETATM   12  C   UNL     1      43.917 -15.964   5.799  1.00  0.00     0.031 A 
HETATM   13  C   UNL     1      43.655 -15.601   7.121  1.00  0.00     0.002 A 
HETATM   14  C   UNL     1      42.341 -15.511   7.571  1.00  0.00     0.002 A 
HETATM   15  C   UNL     1      41.289 -15.780   6.697  1.00  0.00     0.026 A 
HETATM   16  H   UNL     1      40.589 -17.454   4.397  1.00  0.00     0.135 HD
ENDROOT
BRANCH   9  17
HETATM   17  N   UNL     1      39.324 -14.076   2.055  1.00  0.00    -0.265 N 
HETATM   18  C   UNL     1      40.109 -12.942   1.931  1.00  0.00     0.270 C 
HETATM   19  O   UNL     1      40.951 -12.632   2.768  1.00  0.00    -0.266 OA
HETATM   20  H   UNL     1      38.711 -14.384   1.310  1.00  0.00     0.190 HD
BRANCH  18  21
HETATM   21  C   UNL     1      39.911 -12.136   0.698  1.00  0.00     0.033 A 
HETATM   22  C   UNL     1      38.695 -11.500   0.409  1.00  0.00     0.017 A 
HETATM   23  C   UNL     1      38.554 -10.772  -0.775  1.00  0.00     0.001 A 
HETATM   24  C   UNL     1      39.623 -10.669  -1.665  1.00  0.00     0.000 A 
HETATM   25  C   UNL     1      40.840 -11.282  -1.370  1.00  0.00     0.001 A 
HETATM   26  C   UNL     1      40.987 -12.010  -0.188  1.00  0.00     0.017 A 
ENDBRANCH  18  21
ENDBRANCH   9  17
TORSDOF 2
ENDMDL
MODEL 6
REMARK VINA RESULT:      -7.5      3.210      6.696
REMARK  2 active torsions:
REMARK  status: ('A' for Active; 'I' for Inactive)
REMARK    1  A    between atoms: N_9  and  N_11 
REMARK       I    between atoms: N_11  and  C_12 
REMARK    2  A    between atoms: C_12  and  C_13 
ROOT
HETATM    1  C   UNL     1      43.080 -11.753   4.621  1.00  0.00     0.033 C 
HETATM    2  C   UNL     1      41.883 -12.046   3.716  1.00  0.00     0.086 C 
HETATM    3  N   UNL     1      41.342 -10.794   3.152  1.00  0.00    -0.379 N 
HETATM    4  C   UNL     1      40.819  -9.750   4.034  1.00  0.00     0.150 C 
HETATM    5  C   UNL     1      40.618 -10.887   1.945  1.00  0.00     0.052 A 
HETATM    6  C   UNL     1      39.496 -11.729   1.740  1.00  0.00     0.040 A 
HETATM    7  N   UNL     1      38.977 -12.578   2.779  1.00  0.00    -0.246 NA
HETATM    8  C   UNL     1      39.899 -13.431   3.462  1.00  0.00     0.077 C 
HETATM    9  N   UNL     1      39.894 -14.697   3.080  1.00  0.00    -0.291 N 
HETATM   10  H   UNL     1      39.201 -14.913   2.353  1.00  0.00     0.188 HD
HETATM   11  C   UNL     1      40.829 -12.872   4.461  1.00  0.00     0.096 C 
HETATM   12  C   UNL     1      40.999 -10.032   0.897  1.00  0.00     0.031 A 
HETATM   13  C   UNL     1      40.301 -10.009  -0.312  1.00  0.00     0.002 A 
HETATM   14  C   UNL     1      39.194 -10.832  -0.494  1.00  0.00     0.002 A 
HETATM   15  C   UNL     1      38.787 -11.683   0.532  1.00  0.00     0.026 A 
HETATM   16  H   UNL     1      38.684 -11.866   3.454  1.00  0.00     0.135 HD
ENDROOT
BRANCH   9  17
HETATM   17  N   UNL     1      40.683 -15.673   3.498  1.00  0.00    -0.265 N 
HETATM   18  C   UNL     1      41.686 -16.086   2.637  1.00  0.00     0.270 C 
HETATM   19  O   UNL     1      41.844 -15.588   1.526  1.00  0.00    -0.266 OA
HETATM   20  H   UNL     1      40.628 -16.009   4.451  1.00  0.00     0.190 HD
BRANCH  18  21
HETATM   21  C   UNL     1      42.600 -17.140   3.149  1.00  0.00     0.033 A 
HETATM   22  C   UNL     1      43.133 -17.102   4.446  1.00  0.00     0.017 A 
HETATM   23  C   UNL     1      44.004 -18.107   4.871  1.00  0.00     0.001 A 
HETATM   24  C   UNL     1      44.339 -19.153   4.011  1.00  0.00     0.000 A 
HETATM   25  C   UNL     1      43.794 -19.206   2.729  1.00  0.00     0.001 A 
HETATM   26  C   UNL     1      42.922 -18.205   2.299  1.00  0.00     0.017 A 
ENDBRANCH  18  21
ENDBRANCH   9  17
TORSDOF 2
ENDMDL
MODEL 7
REMARK VINA RESULT:      -7.4      1.858      3.377
REMARK  2 active torsions:
REMARK  status: ('A' for Active; 'I' for Inactive)
REMARK    1  A    between atoms: N_9  and  N_11 
REMARK       I    between atoms: N_11  and  C_12 
REMARK    2  A    between atoms: C_12  and  C_13 
ROOT
HETATM    1  C   UNL     1      42.540 -16.097   7.520  1.00  0.00     0.033 C 
HETATM    2  C   UNL     1      42.414 -15.206   6.283  1.00  0.00     0.086 C 
HETATM    3  N   UNL     1      42.212 -16.026   5.073  1.00  0.00    -0.379 N 
HETATM    4  C   UNL     1      43.226 -16.995   4.658  1.00  0.00     0.150 C 
HETATM    5  C   UNL     1      41.576 -15.412   3.974  1.00  0.00     0.052 A 
HETATM    6  C   UNL     1      42.009 -14.209   3.361  1.00  0.00     0.040 A 
HETATM    7  N   UNL     1      43.173 -13.495   3.814  1.00  0.00    -0.246 NA
HETATM    8  C   UNL     1      43.270 -13.198   5.209  1.00  0.00     0.077 C 
HETATM    9  N   UNL     1      42.962 -11.959   5.549  1.00  0.00    -0.291 N 
HETATM   10  H   UNL     1      42.718 -11.353   4.756  1.00  0.00     0.188 HD
HETATM   11  C   UNL     1      43.614 -14.260   6.173  1.00  0.00     0.096 C 
HETATM   12  C   UNL     1      40.477 -16.079   3.408  1.00  0.00     0.031 A 
HETATM   13  C   UNL     1      39.825 -15.580   2.279  1.00  0.00     0.002 A 
HETATM   14  C   UNL     1      40.269 -14.404   1.681  1.00  0.00     0.002 A 
HETATM   15  C   UNL     1      41.363 -13.726   2.215  1.00  0.00     0.026 A 
HETATM   16  H   UNL     1      43.894 -14.196   3.614  1.00  0.00     0.135 HD
ENDROOT
BRANCH   9  17
HETATM   17  N   UNL     1      42.906 -11.442   6.766  1.00  0.00    -0.265 N 
HETATM   18  C   UNL     1      44.063 -10.862   7.259  1.00  0.00     0.270 C 
HETATM   19  O   UNL     1      45.107 -10.830   6.615  1.00  0.00    -0.266 OA
HETATM   20  H   UNL     1      42.023 -11.368   7.255  1.00  0.00     0.190 HD
BRANCH  18  21
HETATM   21  C   UNL     1      43.963 -10.233   8.603  1.00  0.00     0.033 A 
HETATM   22  C   UNL     1      42.765  -9.683   9.082  1.00  0.00     0.017 A 
HETATM   23  C   UNL     1      42.730  -9.085  10.343  1.00  0.00     0.001 A 
HETATM   24  C   UNL     1      43.881  -9.041  11.130  1.00  0.00     0.000 A 
HETATM   25  C   UNL     1      45.068  -9.607  10.666  1.00  0.00     0.001 A 
HETATM   26  C   UNL     1      45.109 -10.207   9.406  1.00  0.00     0.017 A 
ENDBRANCH  18  21
ENDBRANCH   9  17
TORSDOF 2
ENDMDL
MODEL 8
REMARK VINA RESULT:      -7.4      2.803      7.471
REMARK  2 active torsions:
REMARK  status: ('A' for Active; 'I' for Inactive)
REMARK    1  A    between atoms: N_9  and  N_11 
REMARK       I    between atoms: N_11  and  C_12 
REMARK    2  A    between atoms: C_12  and  C_13 
ROOT
HETATM    1  C   UNL     1      42.873 -17.131   2.540  1.00  0.00     0.033 C 
HETATM    2  C   UNL     1      42.271 -15.970   3.336  1.00  0.00     0.086 C 
HETATM    3  N   UNL     1      42.863 -15.907   4.686  1.00  0.00    -0.379 N 
HETATM    4  C   UNL     1      42.717 -17.030   5.612  1.00  0.00     0.150 C 
HETATM    5  C   UNL     1      42.836 -14.661   5.347  1.00  0.00     0.052 A 
HETATM    6  C   UNL     1      41.665 -13.897   5.579  1.00  0.00     0.040 A 
HETATM    7  N   UNL     1      40.364 -14.343   5.157  1.00  0.00    -0.246 NA
HETATM    8  C   UNL     1      40.212 -14.759   3.797  1.00  0.00     0.077 C 
HETATM    9  N   UNL     1      39.648 -13.876   2.992  1.00  0.00    -0.291 N 
HETATM   10  H   UNL     1      39.362 -13.006   3.457  1.00  0.00     0.188 HD
HETATM   11  C   UNL     1      40.741 -16.063   3.356  1.00  0.00     0.096 C 
HETATM   12  C   UNL     1      44.049 -14.182   5.870  1.00  0.00     0.031 A 
HETATM   13  C   UNL     1      44.108 -12.989   6.594  1.00  0.00     0.002 A 
HETATM   14  C   UNL     1      42.947 -12.256   6.824  1.00  0.00     0.002 A 
HETATM   15  C   UNL     1      41.728 -12.713   6.326  1.00  0.00     0.026 A 
HETATM   16  H   UNL     1      40.276 -15.187   5.731  1.00  0.00     0.135 HD
ENDROOT
BRANCH   9  17
HETATM   17  N   UNL     1      39.450 -13.980   1.688  1.00  0.00    -0.265 N 
HETATM   18  C   UNL     1      40.293 -13.254   0.862  1.00  0.00     0.270 C 
HETATM   19  O   UNL     1      41.182 -12.532   1.303  1.00  0.00    -0.266 OA
HETATM   20  H   UNL     1      38.794 -14.655   1.317  1.00  0.00     0.190 HD
BRANCH  18  21
HETATM   21  C   UNL     1      40.094 -13.432  -0.601  1.00  0.00     0.033 A 
HETATM   22  C   UNL     1      40.616 -12.531  -1.540  1.00  0.00     0.017 A 
HETATM   23  C   UNL     1      40.382 -12.732  -2.902  1.00  0.00     0.001 A 
HETATM   24  C   UNL     1      39.638 -13.832  -3.330  1.00  0.00     0.000 A 
HETATM   25  C   UNL     1      39.137 -14.742  -2.399  1.00  0.00     0.001 A 
HETATM   26  C   UNL     1      39.367 -14.546  -1.037  1.00  0.00     0.017 A 
ENDBRANCH  18  21
ENDBRANCH   9  17
TORSDOF 2
ENDMDL
MODEL 9
REMARK VINA RESULT:      -7.4      1.695      2.261
REMARK  2 active torsions:
REMARK  status: ('A' for Active; 'I' for Inactive)
REMARK    1  A    between atoms: N_9  and  N_11 
REMARK       I    between atoms: N_11  and  C_12 
REMARK    2  A    between atoms: C_12  and  C_13 
ROOT
HETATM    1  C   UNL     1      40.388  -9.362   3.029  1.00  0.00     0.033 C 
HETATM    2  C   UNL     1      40.404 -10.852   3.375  1.00  0.00     0.086 C 
HETATM    3  N   UNL     1      39.708 -11.632   2.333  1.00  0.00    -0.379 N 
HETATM    4  C   UNL     1      38.293 -11.392   2.049  1.00  0.00     0.150 C 
HETATM    5  C   UNL     1      40.057 -12.993   2.201  1.00  0.00     0.052 A 
HETATM    6  C   UNL     1      40.019 -13.940   3.254  1.00  0.00     0.040 A 
HETATM    7  N   UNL     1      39.600 -13.589   4.585  1.00  0.00    -0.246 NA
HETATM    8  C   UNL     1      40.213 -12.452   5.197  1.00  0.00     0.077 C 
HETATM    9  N   UNL     1      41.160 -12.723   6.079  1.00  0.00    -0.291 N 
HETATM   10  H   UNL     1      41.315 -13.726   6.234  1.00  0.00     0.188 HD
HETATM   11  C   UNL     1      39.837 -11.089   4.779  1.00  0.00     0.096 C 
HETATM   12  C   UNL     1      40.401 -13.449   0.918  1.00  0.00     0.031 A 
HETATM   13  C   UNL     1      40.699 -14.792   0.679  1.00  0.00     0.002 A 
HETATM   14  C   UNL     1      40.645 -15.713   1.721  1.00  0.00     0.002 A 
HETATM   15  C   UNL     1      40.297 -15.291   3.003  1.00  0.00     0.026 A 
HETATM   16  H   UNL     1      38.627 -13.329   4.396  1.00  0.00     0.135 HD
ENDROOT
BRANCH   9  17
HETATM   17  N   UNL     1      41.925 -11.866   6.736  1.00  0.00    -0.265 N 
HETATM   18  C   UNL     1      43.278 -11.872   6.438  1.00  0.00     0.270 C 
HETATM   19  O   UNL     1      43.766 -12.639   5.614  1.00  0.00    -0.266 OA
HETATM   20  H   UNL     1      41.514 -11.160   7.332  1.00  0.00     0.190 HD
BRANCH  18  21
HETATM   21  C   UNL     1      44.110 -10.860   7.141  1.00  0.00     0.033 A 
HETATM   22  C   UNL     1      43.549  -9.744   7.779  1.00  0.00     0.017 A 
HETATM   23  C   UNL     1      44.377  -8.812   8.407  1.00  0.00     0.001 A 
HETATM   24  C   UNL     1      45.760  -8.993   8.409  1.00  0.00     0.000 A 
HETATM   25  C   UNL     1      46.320 -10.113   7.796  1.00  0.00     0.001 A 
HETATM   26  C   UNL     1      45.497 -11.049   7.167  1.00  0.00     0.017 A 
ENDBRANCH  18  21
ENDBRANCH   9  17
TORSDOF 2
ENDMDL
MODEL 10
REMARK VINA RESULT:      -7.4      2.579      7.806
REMARK  2 active torsions:
REMARK  status: ('A' for Active; 'I' for Inactive)
REMARK    1  A    between atoms: N_9  and  N_11 
REMARK       I    between atoms: N_11  and  C_12 
REMARK    2  A    between atoms: C_12  and  C_13 
ROOT
HETATM    1  C   UNL     1      41.437  -8.812   6.420  1.00  0.00     0.033 C 
HETATM    2  C   UNL     1      42.161  -9.575   7.531  1.00  0.00     0.086 C 
HETATM    3  N   UNL     1      42.377  -8.703   8.701  1.00  0.00    -0.379 N 
HETATM    4  C   UNL     1      43.183  -7.487   8.580  1.00  0.00     0.150 C 
HETATM    5  C   UNL     1      42.538  -9.329   9.955  1.00  0.00     0.052 A 
HETATM    6  C   UNL     1      43.502 -10.329  10.238  1.00  0.00     0.040 A 
HETATM    7  N   UNL     1      44.433 -10.797   9.246  1.00  0.00    -0.246 NA
HETATM    8  C   UNL     1      43.907 -11.207   7.982  1.00  0.00     0.077 C 
HETATM    9  N   UNL     1      43.796 -12.513   7.808  1.00  0.00    -0.291 N 
HETATM   10  H   UNL     1      44.132 -13.072   8.601  1.00  0.00     0.188 HD
HETATM   11  C   UNL     1      43.456 -10.201   7.003  1.00  0.00     0.096 C 
HETATM   12  C   UNL     1      41.729  -8.878  11.010  1.00  0.00     0.031 A 
HETATM   13  C   UNL     1      41.862  -9.394  12.301  1.00  0.00     0.002 A 
HETATM   14  C   UNL     1      42.822 -10.367  12.567  1.00  0.00     0.002 A 
HETATM   15  C   UNL     1      43.645 -10.826  11.540  1.00  0.00     0.026 A 
HETATM   16  H   UNL     1      44.956  -9.932   9.078  1.00  0.00     0.135 HD
ENDROOT
BRANCH   9  17
HETATM   17  N   UNL     1      43.284 -13.152   6.769  1.00  0.00    -0.265 N 
HETATM   18  C   UNL     1      42.920 -14.475   6.958  1.00  0.00     0.270 C 
HETATM   19  O   UNL     1      43.069 -15.050   8.032  1.00  0.00    -0.266 OA
HETATM   20  H   UNL     1      43.058 -12.654   5.917  1.00  0.00     0.190 HD
BRANCH  18  21
HETATM   21  C   UNL     1      42.291 -15.157   5.797  1.00  0.00     0.033 A 
HETATM   22  C   UNL     1      40.980 -15.654   5.843  1.00  0.00     0.017 A 
HETATM   23  C   UNL     1      40.443 -16.305   4.731  1.00  0.00     0.001 A 
HETATM   24  C   UNL     1      41.204 -16.454   3.571  1.00  0.00     0.000 A 
HETATM   25  C   UNL     1      42.499 -15.941   3.514  1.00  0.00     0.001 A 
HETATM   26  C   UNL     1      43.041 -15.289   4.622  1.00  0.00     0.017 A 
ENDBRANCH  18  21
ENDBRANCH   9  17
TORSDOF 2
ENDMDL
