MODEL 1
REMARK VINA RESULT:      -8.5      0.000      0.000
REMARK  7 active torsions:
REMARK  status: ('A' for Active; 'I' for Inactive)
REMARK    1  A    between atoms: O_2  and  C_3 
REMARK    2  A    between atoms: C_4  and  C_5 
REMARK    3  A    between atoms: C_5  and  N_6 
REMARK    4  A    between atoms: C_5  and  C_12 
REMARK    5  A    between atoms: C_12  and  N_13 
REMARK       I    between atoms: N_13  and  C_14 
REMARK       I    between atoms: C_14  and  N_15 
REMARK    6  A    between atoms: N_15  and  C_16 
REMARK    7  A    between atoms: C_17  and  O_18 
ROOT
HETATM    1  N   UNL     1      43.148 -13.277   7.058  1.00  0.00    -0.341 N 
HETATM    2  C   UNL     1      43.973 -12.229   7.375  1.00  0.00     0.316 C 
HETATM    3  N   UNL     1      43.450 -11.439   8.351  1.00  0.00    -0.332 N 
HETATM    4  O   UNL     1      45.098 -12.105   6.912  1.00  0.00    -0.247 OA
HETATM    5  H   UNL     1      42.165 -13.103   7.222  1.00  0.00     0.164 HD
HETATM    6  H   UNL     1      42.453 -11.277   8.326  1.00  0.00     0.165 HD
ENDROOT
BRANCH   1   7
HETATM    7  C   UNL     1      43.495 -14.193   5.979  1.00  0.00     0.162 C 
BRANCH   7   8
HETATM    8  C   UNL     1      42.408 -14.444   4.877  1.00  0.00     0.241 C 
BRANCH   8   9
HETATM    9  C   UNL     1      42.605 -15.741   4.087  1.00  0.00     0.007 A 
HETATM   10  C   UNL     1      41.635 -16.112   3.131  1.00  0.00     0.076 A 
HETATM   11  C   UNL     1      41.794 -17.271   2.366  1.00  0.00     0.037 A 
HETATM   12  C   UNL     1      42.912 -18.082   2.553  1.00  0.00     0.003 A 
HETATM   13  C   UNL     1      43.878 -17.732   3.490  1.00  0.00     0.001 A 
HETATM   14  C   UNL     1      43.730 -16.569   4.249  1.00  0.00     0.012 A 
BRANCH  10  15
HETATM   15  O   UNL     1      40.593 -15.233   2.954  1.00  0.00    -0.355 OA
HETATM   16  C   UNL     1      39.916 -15.347   1.698  1.00  0.00     0.210 C 
ENDBRANCH  10  15
ENDBRANCH   8   9
BRANCH   8  17
HETATM   17  N   UNL     1      42.249 -13.272   3.895  1.00  0.00    -0.061 N 
HETATM   18  H   UNL     1      41.528 -13.632   3.251  1.00  0.00     0.280 HD
HETATM   19  C   UNL     1      43.440 -12.899   3.062  1.00  0.00     0.236 C 
HETATM   20  C   UNL     1      43.899 -11.583   3.650  1.00  0.00     0.029 C 
HETATM   21  C   UNL     1      42.602 -10.891   4.021  1.00  0.00     0.029 C 
HETATM   22  C   UNL     1      41.663 -12.001   4.463  1.00  0.00     0.236 C 
ENDBRANCH   8  17
ENDBRANCH   7   8
ENDBRANCH   1   7
BRANCH   3  23
HETATM   23  C   UNL     1      44.203 -10.301   8.850  1.00  0.00     0.149 C 
HETATM   24  C   UNL     1      43.991  -9.006   8.009  1.00  0.00     0.149 C 
HETATM   25  C   UNL     1      44.011  -7.827   9.001  1.00  0.00     0.073 C 
HETATM   26  C   UNL     1      43.613  -8.485  10.289  1.00  0.00    -0.047 A 
HETATM   27  C   UNL     1      43.727  -9.877  10.211  1.00  0.00    -0.026 A 
HETATM   28  C   UNL     1      43.228  -7.863  11.466  1.00  0.00     0.008 A 
HETATM   29  C   UNL     1      43.464 -10.673  11.318  1.00  0.00     0.010 A 
HETATM   30  C   UNL     1      43.064 -10.056  12.505  1.00  0.00     0.001 A 
HETATM   31  C   UNL     1      42.946  -8.660  12.577  1.00  0.00     0.001 A 
BRANCH  24  32
HETATM   32  O   UNL     1      42.720  -9.030   7.331  1.00  0.00    -0.393 OA
HETATM   33  H   UNL     1      42.048  -9.157   8.023  1.00  0.00     0.210 HD
ENDBRANCH  24  32
ENDBRANCH   3  23
TORSDOF 7
ENDMDL
MODEL 2
REMARK VINA RESULT:      -8.4      5.152      8.622
REMARK  7 active torsions:
REMARK  status: ('A' for Active; 'I' for Inactive)
REMARK    1  A    between atoms: O_2  and  C_3 
REMARK    2  A    between atoms: C_4  and  C_5 
REMARK    3  A    between atoms: C_5  and  N_6 
REMARK    4  A    between atoms: C_5  and  C_12 
REMARK    5  A    between atoms: C_12  and  N_13 
REMARK       I    between atoms: N_13  and  C_14 
REMARK       I    between atoms: C_14  and  N_15 
REMARK    6  A    between atoms: N_15  and  C_16 
REMARK    7  A    between atoms: C_17  and  O_18 
ROOT
HETATM    1  N   UNL     1      40.454 -15.363   1.658  1.00  0.00    -0.341 N 
HETATM    2  C   UNL     1      41.753 -15.689   1.952  1.00  0.00     0.316 C 
HETATM    3  N   UNL     1      41.872 -16.280   3.171  1.00  0.00    -0.332 N 
HETATM    4  O   UNL     1      42.668 -15.566   1.149  1.00  0.00    -0.247 OA
HETATM    5  H   UNL     1      39.871 -15.187   2.466  1.00  0.00     0.164 HD
HETATM    6  H   UNL     1      41.283 -15.926   3.913  1.00  0.00     0.165 HD
ENDROOT
BRANCH   1   7
HETATM    7  C   UNL     1      40.129 -14.649   0.430  1.00  0.00     0.162 C 
BRANCH   7   8
HETATM    8  C   UNL     1      40.577 -13.149   0.335  1.00  0.00     0.241 C 
BRANCH   8   9
HETATM    9  C   UNL     1      40.158 -12.295   1.535  1.00  0.00     0.007 A 
HETATM   10  C   UNL     1      41.144 -11.887   2.460  1.00  0.00     0.076 A 
HETATM   11  C   UNL     1      40.809 -11.079   3.550  1.00  0.00     0.037 A 
HETATM   12  C   UNL     1      39.487 -10.679   3.742  1.00  0.00     0.003 A 
HETATM   13  C   UNL     1      38.503 -11.071   2.841  1.00  0.00     0.001 A 
HETATM   14  C   UNL     1      38.834 -11.868   1.742  1.00  0.00     0.012 A 
BRANCH  10  15
HETATM   15  O   UNL     1      42.434 -12.264   2.174  1.00  0.00    -0.355 OA
HETATM   16  C   UNL     1      43.251 -12.528   3.318  1.00  0.00     0.210 C 
ENDBRANCH  10  15
ENDBRANCH   8   9
BRANCH   8  17
HETATM   17  N   UNL     1      40.128 -12.455  -0.962  1.00  0.00    -0.061 N 
HETATM   18  H   UNL     1      39.438 -11.775  -0.609  1.00  0.00     0.280 HD
HETATM   19  C   UNL     1      39.436 -13.296  -1.993  1.00  0.00     0.236 C 
HETATM   20  C   UNL     1      40.456 -13.426  -3.103  1.00  0.00     0.029 C 
HETATM   21  C   UNL     1      41.136 -12.071  -3.117  1.00  0.00     0.029 C 
HETATM   22  C   UNL     1      41.172 -11.621  -1.666  1.00  0.00     0.236 C 
ENDBRANCH   8  17
ENDBRANCH   7   8
ENDBRANCH   1   7
BRANCH   3  23
HETATM   23  C   UNL     1      43.171 -16.734   3.638  1.00  0.00     0.149 C 
HETATM   24  C   UNL     1      43.347 -16.617   5.181  1.00  0.00     0.149 C 
HETATM   25  C   UNL     1      44.189 -17.828   5.624  1.00  0.00     0.073 C 
HETATM   26  C   UNL     1      43.922 -18.821   4.531  1.00  0.00    -0.047 A 
HETATM   27  C   UNL     1      43.356 -18.208   3.408  1.00  0.00    -0.026 A 
HETATM   28  C   UNL     1      44.221 -20.174   4.534  1.00  0.00     0.008 A 
HETATM   29  C   UNL     1      43.086 -18.942   2.261  1.00  0.00     0.010 A 
HETATM   30  C   UNL     1      43.374 -20.308   2.258  1.00  0.00     0.001 A 
HETATM   31  C   UNL     1      43.936 -20.919   3.389  1.00  0.00     0.001 A 
BRANCH  24  32
HETATM   32  O   UNL     1      42.073 -16.658   5.853  1.00  0.00    -0.393 OA
HETATM   33  H   UNL     1      42.256 -16.472   6.791  1.00  0.00     0.210 HD
ENDBRANCH  24  32
ENDBRANCH   3  23
TORSDOF 7
ENDMDL
MODEL 3
REMARK VINA RESULT:      -8.1      5.180      8.563
REMARK  7 active torsions:
REMARK  status: ('A' for Active; 'I' for Inactive)
REMARK    1  A    between atoms: O_2  and  C_3 
REMARK    2  A    between atoms: C_4  and  C_5 
REMARK    3  A    between atoms: C_5  and  N_6 
REMARK    4  A    between atoms: C_5  and  C_12 
REMARK    5  A    between atoms: C_12  and  N_13 
REMARK       I    between atoms: N_13  and  C_14 
REMARK       I    between atoms: C_14  and  N_15 
REMARK    6  A    between atoms: N_15  and  C_16 
REMARK    7  A    between atoms: C_17  and  O_18 
ROOT
HETATM    1  N   UNL     1      40.914 -14.973   1.566  1.00  0.00    -0.341 N 
HETATM    2  C   UNL     1      42.162 -15.305   2.026  1.00  0.00     0.316 C 
HETATM    3  N   UNL     1      42.113 -16.215   3.036  1.00  0.00    -0.332 N 
HETATM    4  O   UNL     1      43.192 -14.910   1.498  1.00  0.00    -0.247 OA
HETATM    5  H   UNL     1      40.174 -15.067   2.250  1.00  0.00     0.164 HD
HETATM    6  H   UNL     1      41.361 -16.120   3.705  1.00  0.00     0.165 HD
ENDROOT
BRANCH   1   7
HETATM    7  C   UNL     1      40.750 -13.953   0.538  1.00  0.00     0.162 C 
BRANCH   7   8
HETATM    8  C   UNL     1      39.655 -12.859   0.786  1.00  0.00     0.241 C 
BRANCH   8   9
HETATM    9  C   UNL     1      39.049 -12.278  -0.495  1.00  0.00     0.007 A 
HETATM   10  C   UNL     1      37.866 -11.512  -0.405  1.00  0.00     0.076 A 
HETATM   11  C   UNL     1      37.300 -10.938  -1.547  1.00  0.00     0.037 A 
HETATM   12  C   UNL     1      37.895 -11.129  -2.793  1.00  0.00     0.003 A 
HETATM   13  C   UNL     1      39.060 -11.879  -2.900  1.00  0.00     0.001 A 
HETATM   14  C   UNL     1      39.638 -12.446  -1.761  1.00  0.00     0.012 A 
BRANCH  10  15
HETATM   15  O   UNL     1      37.371 -11.311   0.860  1.00  0.00    -0.355 OA
HETATM   16  C   UNL     1      37.018  -9.957   1.160  1.00  0.00     0.210 C 
ENDBRANCH  10  15
ENDBRANCH   8   9
BRANCH   8  17
HETATM   17  N   UNL     1      40.130 -11.708   1.688  1.00  0.00    -0.061 N 
HETATM   18  H   UNL     1      39.407 -10.992   1.516  1.00  0.00     0.280 HD
HETATM   19  C   UNL     1      41.456 -11.083   1.373  1.00  0.00     0.236 C 
HETATM   20  C   UNL     1      42.358 -11.557   2.491  1.00  0.00     0.029 C 
HETATM   21  C   UNL     1      41.446 -11.562   3.702  1.00  0.00     0.029 C 
HETATM   22  C   UNL     1      40.077 -11.963   3.175  1.00  0.00     0.236 C 
ENDBRANCH   8  17
ENDBRANCH   7   8
ENDBRANCH   1   7
BRANCH   3  23
HETATM   23  C   UNL     1      43.342 -16.719   3.623  1.00  0.00     0.149 C 
HETATM   24  C   UNL     1      43.391 -16.571   5.174  1.00  0.00     0.149 C 
HETATM   25  C   UNL     1      44.130 -17.810   5.713  1.00  0.00     0.073 C 
HETATM   26  C   UNL     1      43.909 -18.816   4.623  1.00  0.00    -0.047 A 
HETATM   27  C   UNL     1      43.473 -18.206   3.442  1.00  0.00    -0.026 A 
HETATM   28  C   UNL     1      44.138 -20.182   4.680  1.00  0.00     0.008 A 
HETATM   29  C   UNL     1      43.266 -18.954   2.291  1.00  0.00     0.010 A 
HETATM   30  C   UNL     1      43.484 -20.333   2.343  1.00  0.00     0.001 A 
HETATM   31  C   UNL     1      43.916 -20.941   3.530  1.00  0.00     0.001 A 
BRANCH  24  32
HETATM   32  O   UNL     1      42.063 -16.534   5.733  1.00  0.00    -0.393 OA
HETATM   33  H   UNL     1      42.155 -16.145   6.620  1.00  0.00     0.210 HD
ENDBRANCH  24  32
ENDBRANCH   3  23
TORSDOF 7
ENDMDL
MODEL 4
REMARK VINA RESULT:      -8.0      4.855      9.137
REMARK  7 active torsions:
REMARK  status: ('A' for Active; 'I' for Inactive)
REMARK    1  A    between atoms: O_2  and  C_3 
REMARK    2  A    between atoms: C_4  and  C_5 
REMARK    3  A    between atoms: C_5  and  N_6 
REMARK    4  A    between atoms: C_5  and  C_12 
REMARK    5  A    between atoms: C_12  and  N_13 
REMARK       I    between atoms: N_13  and  C_14 
REMARK       I    between atoms: C_14  and  N_15 
REMARK    6  A    between atoms: N_15  and  C_16 
REMARK    7  A    between atoms: C_17  and  O_18 
ROOT
HETATM    1  N   UNL     1      39.707 -15.710   1.973  1.00  0.00    -0.341 N 
HETATM    2  C   UNL     1      40.053 -14.944   0.890  1.00  0.00     0.316 C 
HETATM    3  N   UNL     1      39.266 -15.194  -0.190  1.00  0.00    -0.332 N 
HETATM    4  O   UNL     1      40.895 -14.058   0.944  1.00  0.00    -0.247 OA
HETATM    5  H   UNL     1      39.275 -16.596   1.742  1.00  0.00     0.164 HD
HETATM    6  H   UNL     1      38.991 -16.154  -0.347  1.00  0.00     0.165 HD
ENDROOT
BRANCH   1   7
HETATM    7  C   UNL     1      40.483 -15.646   3.205  1.00  0.00     0.162 C 
BRANCH   7   8
HETATM    8  C   UNL     1      42.036 -15.486   3.063  1.00  0.00     0.241 C 
BRANCH   8   9
HETATM    9  C   UNL     1      42.835 -16.714   3.511  1.00  0.00     0.007 A 
HETATM   10  C   UNL     1      42.901 -17.020   4.889  1.00  0.00     0.076 A 
HETATM   11  C   UNL     1      43.592 -18.149   5.336  1.00  0.00     0.037 A 
HETATM   12  C   UNL     1      44.237 -18.980   4.421  1.00  0.00     0.003 A 
HETATM   13  C   UNL     1      44.183 -18.694   3.062  1.00  0.00     0.001 A 
HETATM   14  C   UNL     1      43.484 -17.573   2.607  1.00  0.00     0.012 A 
BRANCH  10  15
HETATM   15  O   UNL     1      42.188 -16.196   5.726  1.00  0.00    -0.355 OA
HETATM   16  C   UNL     1      42.609 -16.218   7.093  1.00  0.00     0.210 C 
ENDBRANCH  10  15
ENDBRANCH   8   9
BRANCH   8  17
HETATM   17  N   UNL     1      42.592 -14.237   3.766  1.00  0.00    -0.061 N 
HETATM   18  H   UNL     1      43.197 -14.653   4.490  1.00  0.00     0.280 HD
HETATM   19  C   UNL     1      41.612 -13.343   4.466  1.00  0.00     0.236 C 
HETATM   20  C   UNL     1      41.553 -12.111   3.591  1.00  0.00     0.029 C 
HETATM   21  C   UNL     1      42.981 -11.951   3.108  1.00  0.00     0.029 C 
HETATM   22  C   UNL     1      43.513 -13.366   2.945  1.00  0.00     0.236 C 
ENDBRANCH   8  17
ENDBRANCH   7   8
ENDBRANCH   1   7
BRANCH   3  23
HETATM   23  C   UNL     1      39.456 -14.446  -1.421  1.00  0.00     0.149 C 
HETATM   24  C   UNL     1      39.050 -15.243  -2.697  1.00  0.00     0.149 C 
HETATM   25  C   UNL     1      38.437 -14.225  -3.677  1.00  0.00     0.073 C 
HETATM   26  C   UNL     1      37.967 -13.137  -2.758  1.00  0.00    -0.047 A 
HETATM   27  C   UNL     1      38.545 -13.252  -1.489  1.00  0.00    -0.026 A 
HETATM   28  C   UNL     1      37.120 -12.085  -3.065  1.00  0.00     0.008 A 
HETATM   29  C   UNL     1      38.289 -12.307  -0.504  1.00  0.00     0.010 A 
HETATM   30  C   UNL     1      37.427 -11.250  -0.802  1.00  0.00     0.001 A 
HETATM   31  C   UNL     1      36.845 -11.141  -2.074  1.00  0.00     0.001 A 
BRANCH  24  32
HETATM   32  O   UNL     1      38.069 -16.251  -2.387  1.00  0.00    -0.393 OA
HETATM   33  H   UNL     1      38.184 -16.953  -3.052  1.00  0.00     0.210 HD
ENDBRANCH  24  32
ENDBRANCH   3  23
TORSDOF 7
ENDMDL
MODEL 5
REMARK VINA RESULT:      -8.0      2.319      4.454
REMARK  7 active torsions:
REMARK  status: ('A' for Active; 'I' for Inactive)
REMARK    1  A    between atoms: O_2  and  C_3 
REMARK    2  A    between atoms: C_4  and  C_5 
REMARK    3  A    between atoms: C_5  and  N_6 
REMARK    4  A    between atoms: C_5  and  C_12 
REMARK    5  A    between atoms: C_12  and  N_13 
REMARK       I    between atoms: N_13  and  C_14 
REMARK       I    between atoms: C_14  and  N_15 
REMARK    6  A    between atoms: N_15  and  C_16 
REMARK    7  A    between atoms: C_17  and  O_18 
ROOT
HETATM    1  N   UNL     1      41.847 -12.364   3.970  1.00  0.00    -0.341 N 
HETATM    2  C   UNL     1      42.528 -12.555   5.144  1.00  0.00     0.316 C 
HETATM    3  N   UNL     1      43.277 -11.473   5.487  1.00  0.00    -0.332 N 
HETATM    4  O   UNL     1      42.373 -13.542   5.850  1.00  0.00    -0.247 OA
HETATM    5  H   UNL     1      42.285 -11.715   3.330  1.00  0.00     0.164 HD
HETATM    6  H   UNL     1      43.738 -10.977   4.737  1.00  0.00     0.165 HD
ENDROOT
BRANCH   1   7
HETATM    7  C   UNL     1      41.049 -13.439   3.393  1.00  0.00     0.162 C 
BRANCH   7   8
HETATM    8  C   UNL     1      41.623 -14.149   2.118  1.00  0.00     0.241 C 
BRANCH   8   9
HETATM    9  C   UNL     1      40.884 -13.803   0.823  1.00  0.00     0.007 A 
HETATM   10  C   UNL     1      40.977 -12.489   0.313  1.00  0.00     0.076 A 
HETATM   11  C   UNL     1      40.344 -12.141  -0.883  1.00  0.00     0.037 A 
HETATM   12  C   UNL     1      39.599 -13.091  -1.580  1.00  0.00     0.003 A 
HETATM   13  C   UNL     1      39.496 -14.389  -1.094  1.00  0.00     0.001 A 
HETATM   14  C   UNL     1      40.136 -14.746   0.096  1.00  0.00     0.012 A 
BRANCH  10  15
HETATM   15  O   UNL     1      41.780 -11.624   1.017  1.00  0.00    -0.355 OA
HETATM   16  C   UNL     1      41.336 -10.263   1.024  1.00  0.00     0.210 C 
ENDBRANCH  10  15
ENDBRANCH   8   9
BRANCH   8  17
HETATM   17  N   UNL     1      41.714 -15.678   2.256  1.00  0.00    -0.061 N 
HETATM   18  H   UNL     1      41.057 -15.995   1.527  1.00  0.00     0.280 HD
HETATM   19  C   UNL     1      41.267 -16.284   3.552  1.00  0.00     0.236 C 
HETATM   20  C   UNL     1      42.553 -16.731   4.210  1.00  0.00     0.029 C 
HETATM   21  C   UNL     1      43.396 -17.213   3.045  1.00  0.00     0.029 C 
HETATM   22  C   UNL     1      43.038 -16.302   1.883  1.00  0.00     0.236 C 
ENDBRANCH   8  17
ENDBRANCH   7   8
ENDBRANCH   1   7
BRANCH   3  23
HETATM   23  C   UNL     1      44.037 -11.474   6.725  1.00  0.00     0.149 C 
HETATM   24  C   UNL     1      45.576 -11.572   6.503  1.00  0.00     0.149 C 
HETATM   25  C   UNL     1      46.236 -10.707   7.594  1.00  0.00     0.073 C 
HETATM   26  C   UNL     1      45.145  -9.736   7.938  1.00  0.00    -0.047 A 
HETATM   27  C   UNL     1      43.904 -10.168   7.457  1.00  0.00    -0.026 A 
HETATM   28  C   UNL     1      45.259  -8.572   8.680  1.00  0.00     0.008 A 
HETATM   29  C   UNL     1      42.750  -9.442   7.720  1.00  0.00     0.010 A 
HETATM   30  C   UNL     1      42.857  -8.262   8.458  1.00  0.00     0.001 A 
HETATM   31  C   UNL     1      44.104  -7.829   8.933  1.00  0.00     0.001 A 
BRANCH  24  32
HETATM   32  O   UNL     1      45.947 -11.060   5.208  1.00  0.00    -0.393 OA
HETATM   33  H   UNL     1      46.136 -11.838   4.655  1.00  0.00     0.210 HD
ENDBRANCH  24  32
ENDBRANCH   3  23
TORSDOF 7
ENDMDL
MODEL 6
REMARK VINA RESULT:      -7.8      1.953      2.749
REMARK  7 active torsions:
REMARK  status: ('A' for Active; 'I' for Inactive)
REMARK    1  A    between atoms: O_2  and  C_3 
REMARK    2  A    between atoms: C_4  and  C_5 
REMARK    3  A    between atoms: C_5  and  N_6 
REMARK    4  A    between atoms: C_5  and  C_12 
REMARK    5  A    between atoms: C_12  and  N_13 
REMARK       I    between atoms: N_13  and  C_14 
REMARK       I    between atoms: C_14  and  N_15 
REMARK    6  A    between atoms: N_15  and  C_16 
REMARK    7  A    between atoms: C_17  and  O_18 
ROOT
HETATM    1  N   UNL     1      42.955 -13.143   5.463  1.00  0.00    -0.341 N 
HETATM    2  C   UNL     1      42.921 -11.784   5.641  1.00  0.00     0.316 C 
HETATM    3  N   UNL     1      42.712 -11.440   6.940  1.00  0.00    -0.332 N 
HETATM    4  O   UNL     1      43.172 -10.989   4.745  1.00  0.00    -0.247 OA
HETATM    5  H   UNL     1      42.420 -13.670   6.141  1.00  0.00     0.164 HD
HETATM    6  H   UNL     1      42.068 -12.013   7.469  1.00  0.00     0.165 HD
ENDROOT
BRANCH   1   7
HETATM    7  C   UNL     1      43.091 -13.712   4.128  1.00  0.00     0.162 C 
BRANCH   7   8
HETATM    8  C   UNL     1      42.112 -14.876   3.745  1.00  0.00     0.241 C 
BRANCH   8   9
HETATM    9  C   UNL     1      42.776 -16.253   3.670  1.00  0.00     0.007 A 
HETATM   10  C   UNL     1      43.268 -16.840   4.857  1.00  0.00     0.076 A 
HETATM   11  C   UNL     1      43.851 -18.109   4.837  1.00  0.00     0.037 A 
HETATM   12  C   UNL     1      43.966 -18.805   3.635  1.00  0.00     0.003 A 
HETATM   13  C   UNL     1      43.488 -18.244   2.456  1.00  0.00     0.001 A 
HETATM   14  C   UNL     1      42.892 -16.980   2.472  1.00  0.00     0.012 A 
BRANCH  10  15
HETATM   15  O   UNL     1      43.063 -16.126   6.013  1.00  0.00    -0.355 OA
HETATM   16  C   UNL     1      43.473 -16.792   7.212  1.00  0.00     0.210 C 
ENDBRANCH  10  15
ENDBRANCH   8   9
BRANCH   8  17
HETATM   17  N   UNL     1      41.332 -14.619   2.445  1.00  0.00    -0.061 N 
HETATM   18  H   UNL     1      41.434 -15.521   1.955  1.00  0.00     0.280 HD
HETATM   19  C   UNL     1      41.851 -13.554   1.524  1.00  0.00     0.236 C 
HETATM   20  C   UNL     1      40.848 -12.431   1.662  1.00  0.00     0.029 C 
HETATM   21  C   UNL     1      39.524 -13.156   1.810  1.00  0.00     0.029 C 
HETATM   22  C   UNL     1      39.842 -14.422   2.590  1.00  0.00     0.236 C 
ENDBRANCH   8  17
ENDBRANCH   7   8
ENDBRANCH   1   7
BRANCH   3  23
HETATM   23  C   UNL     1      42.686 -10.041   7.329  1.00  0.00     0.149 C 
HETATM   24  C   UNL     1      41.245  -9.481   7.525  1.00  0.00     0.149 C 
HETATM   25  C   UNL     1      41.314  -8.483   8.696  1.00  0.00     0.073 C 
HETATM   26  C   UNL     1      42.515  -8.963   9.457  1.00  0.00    -0.047 A 
HETATM   27  C   UNL     1      43.295  -9.834   8.688  1.00  0.00    -0.026 A 
HETATM   28  C   UNL     1      42.903  -8.594  10.735  1.00  0.00     0.008 A 
HETATM   29  C   UNL     1      44.486 -10.346   9.186  1.00  0.00     0.010 A 
HETATM   30  C   UNL     1      44.878  -9.988  10.477  1.00  0.00     0.001 A 
HETATM   31  C   UNL     1      44.091  -9.119  11.246  1.00  0.00     0.001 A 
BRANCH  24  32
HETATM   32  O   UNL     1      40.321 -10.535   7.857  1.00  0.00    -0.393 OA
HETATM   33  H   UNL     1      40.530 -10.799   8.770  1.00  0.00     0.210 HD
ENDBRANCH  24  32
ENDBRANCH   3  23
TORSDOF 7
ENDMDL
MODEL 7
REMARK VINA RESULT:      -7.8      5.675      8.888
REMARK  7 active torsions:
REMARK  status: ('A' for Active; 'I' for Inactive)
REMARK    1  A    between atoms: O_2  and  C_3 
REMARK    2  A    between atoms: C_4  and  C_5 
REMARK    3  A    between atoms: C_5  and  N_6 
REMARK    4  A    between atoms: C_5  and  C_12 
REMARK    5  A    between atoms: C_12  and  N_13 
REMARK       I    between atoms: N_13  and  C_14 
REMARK       I    between atoms: C_14  and  N_15 
REMARK    6  A    between atoms: N_15  and  C_16 
REMARK    7  A    between atoms: C_17  and  O_18 
ROOT
HETATM    1  N   UNL     1      39.585 -14.319   2.516  1.00  0.00    -0.341 N 
HETATM    2  C   UNL     1      40.907 -14.401   2.868  1.00  0.00     0.316 C 
HETATM    3  N   UNL     1      41.280 -15.673   3.175  1.00  0.00    -0.332 N 
HETATM    4  O   UNL     1      41.676 -13.452   2.793  1.00  0.00    -0.247 OA
HETATM    5  H   UNL     1      38.994 -15.031   2.925  1.00  0.00     0.164 HD
HETATM    6  H   UNL     1      40.610 -16.240   3.676  1.00  0.00     0.165 HD
ENDROOT
BRANCH   1   7
HETATM    7  C   UNL     1      38.974 -13.027   2.229  1.00  0.00     0.162 C 
BRANCH   7   8
HETATM    8  C   UNL     1      39.185 -12.441   0.790  1.00  0.00     0.241 C 
BRANCH   8   9
HETATM    9  C   UNL     1      38.356 -11.187   0.498  1.00  0.00     0.007 A 
HETATM   10  C   UNL     1      38.936 -10.147  -0.263  1.00  0.00     0.076 A 
HETATM   11  C   UNL     1      38.203  -9.000  -0.579  1.00  0.00     0.037 A 
HETATM   12  C   UNL     1      36.889  -8.866  -0.132  1.00  0.00     0.003 A 
HETATM   13  C   UNL     1      36.302  -9.880   0.618  1.00  0.00     0.001 A 
HETATM   14  C   UNL     1      37.026 -11.034   0.927  1.00  0.00     0.012 A 
BRANCH  10  15
HETATM   15  O   UNL     1      40.210 -10.374  -0.724  1.00  0.00    -0.355 OA
HETATM   16  C   UNL     1      41.133  -9.305  -0.495  1.00  0.00     0.210 C 
ENDBRANCH  10  15
ENDBRANCH   8   9
BRANCH   8  17
HETATM   17  N   UNL     1      38.959 -13.469  -0.331  1.00  0.00    -0.061 N 
HETATM   18  H   UNL     1      38.422 -14.201   0.158  1.00  0.00     0.280 HD
HETATM   19  C   UNL     1      40.171 -14.127  -0.921  1.00  0.00     0.236 C 
HETATM   20  C   UNL     1      40.285 -13.515  -2.299  1.00  0.00     0.029 C 
HETATM   21  C   UNL     1      38.841 -13.358  -2.736  1.00  0.00     0.029 C 
HETATM   22  C   UNL     1      38.069 -13.028  -1.469  1.00  0.00     0.236 C 
ENDBRANCH   8  17
ENDBRANCH   7   8
ENDBRANCH   1   7
BRANCH   3  23
HETATM   23  C   UNL     1      42.658 -15.963   3.531  1.00  0.00     0.149 C 
HETATM   24  C   UNL     1      42.945 -15.813   5.055  1.00  0.00     0.149 C 
HETATM   25  C   UNL     1      43.962 -16.910   5.423  1.00  0.00     0.073 C 
HETATM   26  C   UNL     1      43.728 -17.937   4.354  1.00  0.00    -0.047 A 
HETATM   27  C   UNL     1      43.001 -17.405   3.283  1.00  0.00    -0.026 A 
HETATM   28  C   UNL     1      44.188 -19.243   4.328  1.00  0.00     0.008 A 
HETATM   29  C   UNL     1      42.729 -18.175   2.160  1.00  0.00     0.010 A 
HETATM   30  C   UNL     1      43.179 -19.496   2.131  1.00  0.00     0.001 A 
HETATM   31  C   UNL     1      43.903 -20.026   3.209  1.00  0.00     0.001 A 
BRANCH  24  32
HETATM   32  O   UNL     1      41.745 -16.004   5.830  1.00  0.00    -0.393 OA
HETATM   33  H   UNL     1      42.036 -16.153   6.746  1.00  0.00     0.210 HD
ENDBRANCH  24  32
ENDBRANCH   3  23
TORSDOF 7
ENDMDL
MODEL 8
REMARK VINA RESULT:      -7.7      4.975      8.342
REMARK  7 active torsions:
REMARK  status: ('A' for Active; 'I' for Inactive)
REMARK    1  A    between atoms: O_2  and  C_3 
REMARK    2  A    between atoms: C_4  and  C_5 
REMARK    3  A    between atoms: C_5  and  N_6 
REMARK    4  A    between atoms: C_5  and  C_12 
REMARK    5  A    between atoms: C_12  and  N_13 
REMARK       I    between atoms: N_13  and  C_14 
REMARK       I    between atoms: C_14  and  N_15 
REMARK    6  A    between atoms: N_15  and  C_16 
REMARK    7  A    between atoms: C_17  and  O_18 
ROOT
HETATM    1  N   UNL     1      41.142 -14.133   1.416  1.00  0.00    -0.341 N 
HETATM    2  C   UNL     1      40.915 -13.072   0.580  1.00  0.00     0.316 C 
HETATM    3  N   UNL     1      39.681 -13.121   0.010  1.00  0.00    -0.332 N 
HETATM    4  O   UNL     1      41.695 -12.136   0.465  1.00  0.00    -0.247 OA
HETATM    5  H   UNL     1      40.625 -14.972   1.184  1.00  0.00     0.164 HD
HETATM    6  H   UNL     1      39.335 -14.031  -0.260  1.00  0.00     0.165 HD
ENDROOT
BRANCH   1   7
HETATM    7  C   UNL     1      42.438 -14.304   2.062  1.00  0.00     0.162 C 
BRANCH   7   8
HETATM    8  C   UNL     1      42.455 -15.042   3.445  1.00  0.00     0.241 C 
BRANCH   8   9
HETATM    9  C   UNL     1      42.979 -16.480   3.381  1.00  0.00     0.007 A 
HETATM   10  C   UNL     1      43.776 -16.964   4.441  1.00  0.00     0.076 A 
HETATM   11  C   UNL     1      44.247 -18.280   4.436  1.00  0.00     0.037 A 
HETATM   12  C   UNL     1      43.943 -19.126   3.370  1.00  0.00     0.003 A 
HETATM   13  C   UNL     1      43.159 -18.666   2.318  1.00  0.00     0.001 A 
HETATM   14  C   UNL     1      42.676 -17.355   2.323  1.00  0.00     0.012 A 
BRANCH  10  15
HETATM   15  O   UNL     1      43.982 -16.098   5.488  1.00  0.00    -0.355 OA
HETATM   16  C   UNL     1      43.976 -16.706   6.783  1.00  0.00     0.210 C 
ENDBRANCH  10  15
ENDBRANCH   8   9
BRANCH   8  17
HETATM   17  N   UNL     1      41.097 -15.031   4.165  1.00  0.00    -0.061 N 
HETATM   18  H   UNL     1      40.440 -14.934   3.375  1.00  0.00     0.280 HD
HETATM   19  C   UNL     1      40.823 -13.899   5.110  1.00  0.00     0.236 C 
HETATM   20  C   UNL     1      40.886 -14.543   6.478  1.00  0.00     0.029 C 
HETATM   21  C   UNL     1      40.274 -15.912   6.252  1.00  0.00     0.029 C 
HETATM   22  C   UNL     1      40.695 -16.316   4.849  1.00  0.00     0.236 C 
ENDBRANCH   8  17
ENDBRANCH   7   8
ENDBRANCH   1   7
BRANCH   3  23
HETATM   23  C   UNL     1      39.244 -12.056  -0.876  1.00  0.00     0.149 C 
HETATM   24  C   UNL     1      38.422 -12.568  -2.097  1.00  0.00     0.149 C 
HETATM   25  C   UNL     1      37.341 -11.507  -2.378  1.00  0.00     0.073 C 
HETATM   26  C   UNL     1      37.192 -10.839  -1.044  1.00  0.00    -0.047 A 
HETATM   27  C   UNL     1      38.266 -11.138  -0.197  1.00  0.00    -0.026 A 
HETATM   28  C   UNL     1      36.185  -9.976  -0.643  1.00  0.00     0.008 A 
HETATM   29  C   UNL     1      38.352 -10.570   1.066  1.00  0.00     0.010 A 
HETATM   30  C   UNL     1      37.335  -9.708   1.482  1.00  0.00     0.001 A 
HETATM   31  C   UNL     1      36.258  -9.415   0.633  1.00  0.00     0.001 A 
BRANCH  24  32
HETATM   32  O   UNL     1      37.784 -13.826  -1.802  1.00  0.00    -0.393 OA
HETATM   33  H   UNL     1      37.157 -13.647  -1.079  1.00  0.00     0.210 HD
ENDBRANCH  24  32
ENDBRANCH   3  23
TORSDOF 7
ENDMDL
MODEL 9
REMARK VINA RESULT:      -7.5      2.660      8.678
REMARK  7 active torsions:
REMARK  status: ('A' for Active; 'I' for Inactive)
REMARK    1  A    between atoms: O_2  and  C_3 
REMARK    2  A    between atoms: C_4  and  C_5 
REMARK    3  A    between atoms: C_5  and  N_6 
REMARK    4  A    between atoms: C_5  and  C_12 
REMARK    5  A    between atoms: C_12  and  N_13 
REMARK       I    between atoms: N_13  and  C_14 
REMARK       I    between atoms: C_14  and  N_15 
REMARK    6  A    between atoms: N_15  and  C_16 
REMARK    7  A    between atoms: C_17  and  O_18 
ROOT
HETATM    1  N   UNL     1      42.397 -11.844   6.764  1.00  0.00    -0.341 N 
HETATM    2  C   UNL     1      43.356 -12.809   6.595  1.00  0.00     0.316 C 
HETATM    3  N   UNL     1      42.815 -14.035   6.358  1.00  0.00    -0.332 N 
HETATM    4  O   UNL     1      44.552 -12.558   6.546  1.00  0.00    -0.247 OA
HETATM    5  H   UNL     1      41.513 -12.185   7.119  1.00  0.00     0.164 HD
HETATM    6  H   UNL     1      41.975 -14.273   6.866  1.00  0.00     0.165 HD
ENDROOT
BRANCH   1   7
HETATM    7  C   UNL     1      42.773 -10.478   7.106  1.00  0.00     0.162 C 
BRANCH   7   8
HETATM    8  C   UNL     1      42.139  -9.866   8.403  1.00  0.00     0.241 C 
BRANCH   8   9
HETATM    9  C   UNL     1      40.982  -8.899   8.138  1.00  0.00     0.007 A 
HETATM   10  C   UNL     1      40.078  -8.612   9.184  1.00  0.00     0.076 A 
HETATM   11  C   UNL     1      39.028  -7.710   8.992  1.00  0.00     0.037 A 
HETATM   12  C   UNL     1      38.854  -7.094   7.754  1.00  0.00     0.003 A 
HETATM   13  C   UNL     1      39.735  -7.365   6.712  1.00  0.00     0.001 A 
HETATM   14  C   UNL     1      40.794  -8.256   6.902  1.00  0.00     0.012 A 
BRANCH  10  15
HETATM   15  O   UNL     1      40.347  -9.205  10.394  1.00  0.00    -0.355 OA
HETATM   16  C   UNL     1      39.897  -8.470  11.537  1.00  0.00     0.210 C 
ENDBRANCH  10  15
ENDBRANCH   8   9
BRANCH   8  17
HETATM   17  N   UNL     1      43.164  -9.187   9.326  1.00  0.00    -0.061 N 
HETATM   18  H   UNL     1      42.553  -8.679   9.983  1.00  0.00     0.280 HD
HETATM   19  C   UNL     1      44.089  -8.178   8.711  1.00  0.00     0.236 C 
HETATM   20  C   UNL     1      45.432  -8.874   8.697  1.00  0.00     0.029 C 
HETATM   21  C   UNL     1      45.431  -9.667   9.989  1.00  0.00     0.029 C 
HETATM   22  C   UNL     1      43.991 -10.106  10.194  1.00  0.00     0.236 C 
ENDBRANCH   8  17
ENDBRANCH   7   8
ENDBRANCH   1   7
BRANCH   3  23
HETATM   23  C   UNL     1      43.678 -15.177   6.111  1.00  0.00     0.149 C 
HETATM   24  C   UNL     1      43.424 -16.364   7.089  1.00  0.00     0.149 C 
HETATM   25  C   UNL     1      43.626 -17.657   6.275  1.00  0.00     0.073 C 
HETATM   26  C   UNL     1      43.363 -17.197   4.872  1.00  0.00    -0.047 A 
HETATM   27  C   UNL     1      43.400 -15.802   4.773  1.00  0.00    -0.026 A 
HETATM   28  C   UNL     1      43.159 -17.989   3.753  1.00  0.00     0.008 A 
HETATM   29  C   UNL     1      43.241 -15.174   3.545  1.00  0.00     0.010 A 
HETATM   30  C   UNL     1      43.024 -15.964   2.414  1.00  0.00     0.001 A 
HETATM   31  C   UNL     1      42.982 -17.362   2.519  1.00  0.00     0.001 A 
BRANCH  24  32
HETATM   32  O   UNL     1      42.078 -16.334   7.601  1.00  0.00    -0.393 OA
HETATM   33  H   UNL     1      41.967 -17.153   8.116  1.00  0.00     0.210 HD
ENDBRANCH  24  32
ENDBRANCH   3  23
TORSDOF 7
ENDMDL
MODEL 10
REMARK VINA RESULT:      -7.5      1.378      3.476
REMARK  7 active torsions:
REMARK  status: ('A' for Active; 'I' for Inactive)
REMARK    1  A    between atoms: O_2  and  C_3 
REMARK    2  A    between atoms: C_4  and  C_5 
REMARK    3  A    between atoms: C_5  and  N_6 
REMARK    4  A    between atoms: C_5  and  C_12 
REMARK    5  A    between atoms: C_12  and  N_13 
REMARK       I    between atoms: N_13  and  C_14 
REMARK       I    between atoms: C_14  and  N_15 
REMARK    6  A    between atoms: N_15  and  C_16 
REMARK    7  A    between atoms: C_17  and  O_18 
ROOT
HETATM    1  N   UNL     1      43.380 -13.306   6.989  1.00  0.00    -0.341 N 
HETATM    2  C   UNL     1      44.145 -12.217   7.318  1.00  0.00     0.316 C 
HETATM    3  N   UNL     1      43.565 -11.454   8.283  1.00  0.00    -0.332 N 
HETATM    4  O   UNL     1      45.269 -12.035   6.873  1.00  0.00    -0.247 OA
HETATM    5  H   UNL     1      42.387 -13.184   7.136  1.00  0.00     0.164 HD
HETATM    6  H   UNL     1      42.561 -11.344   8.241  1.00  0.00     0.165 HD
ENDROOT
BRANCH   1   7
HETATM    7  C   UNL     1      43.792 -14.204   5.918  1.00  0.00     0.162 C 
BRANCH   7   8
HETATM    8  C   UNL     1      42.823 -14.348   4.693  1.00  0.00     0.241 C 
BRANCH   8   9
HETATM    9  C   UNL     1      41.600 -13.429   4.752  1.00  0.00     0.007 A 
HETATM   10  C   UNL     1      40.606 -13.677   5.725  1.00  0.00     0.076 A 
HETATM   11  C   UNL     1      39.490 -12.842   5.832  1.00  0.00     0.037 A 
HETATM   12  C   UNL     1      39.341 -11.760   4.966  1.00  0.00     0.003 A 
HETATM   13  C   UNL     1      40.310 -11.501   4.003  1.00  0.00     0.001 A 
HETATM   14  C   UNL     1      41.434 -12.324   3.898  1.00  0.00     0.012 A 
BRANCH  10  15
HETATM   15  O   UNL     1      40.848 -14.720   6.585  1.00  0.00    -0.355 OA
HETATM   16  C   UNL     1      39.850 -15.745   6.585  1.00  0.00     0.210 C 
ENDBRANCH  10  15
ENDBRANCH   8   9
BRANCH   8  17
HETATM   17  N   UNL     1      42.359 -15.793   4.444  1.00  0.00    -0.061 N 
HETATM   18  H   UNL     1      41.585 -15.886   5.118  1.00  0.00     0.280 HD
HETATM   19  C   UNL     1      43.335 -16.894   4.735  1.00  0.00     0.236 C 
HETATM   20  C   UNL     1      43.732 -17.401   3.366  1.00  0.00     0.029 C 
HETATM   21  C   UNL     1      42.447 -17.303   2.567  1.00  0.00     0.029 C 
HETATM   22  C   UNL     1      41.736 -16.068   3.096  1.00  0.00     0.236 C 
ENDBRANCH   8  17
ENDBRANCH   7   8
ENDBRANCH   1   7
BRANCH   3  23
HETATM   23  C   UNL     1      44.249 -10.278   8.792  1.00  0.00     0.149 C 
HETATM   24  C   UNL     1      43.948  -8.987   7.973  1.00  0.00     0.149 C 
HETATM   25  C   UNL     1      43.904  -7.824   8.982  1.00  0.00     0.073 C 
HETATM   26  C   UNL     1      43.561  -8.524  10.264  1.00  0.00    -0.047 A 
HETATM   27  C   UNL     1      43.762  -9.905  10.164  1.00  0.00    -0.026 A 
HETATM   28  C   UNL     1      43.149  -7.944  11.453  1.00  0.00     0.008 A 
HETATM   29  C   UNL     1      43.560 -10.731  11.261  1.00  0.00     0.010 A 
HETATM   30  C   UNL     1      43.133 -10.157  12.460  1.00  0.00     0.001 A 
HETATM   31  C   UNL     1      42.928  -8.773  12.554  1.00  0.00     0.001 A 
BRANCH  24  32
HETATM   32  O   UNL     1      42.675  -9.082   7.306  1.00  0.00    -0.393 OA
HETATM   33  H   UNL     1      42.854  -9.487   6.439  1.00  0.00     0.210 HD
ENDBRANCH  24  32
ENDBRANCH   3  23
TORSDOF 7
ENDMDL
