MODEL 1
REMARK VINA RESULT:      -8.7      0.000      0.000
REMARK  7 active torsions:
REMARK  status: ('A' for Active; 'I' for Inactive)
REMARK       I    between atoms: C_2  and  N_3 
REMARK    1  A    between atoms: N_3  and  C_4 
REMARK    2  A    between atoms: C_6  and  N_7 
REMARK       I    between atoms: N_7  and  C_8 
REMARK       I    between atoms: C_8  and  N_9 
REMARK    3  A    between atoms: N_9  and  C_10 
REMARK    4  A    between atoms: C_10  and  C_11 
REMARK    5  A    between atoms: C_11  and  C_12 
REMARK    6  A    between atoms: N_14  and  C_16 
REMARK    7  A    between atoms: C_16  and  C_17 
ROOT
HETATM    1  N   UNL     1      39.149 -12.455   3.406  1.00  0.00    -0.309 N 
HETATM    2  C   UNL     1      39.760 -12.135   4.576  1.00  0.00     0.320 C 
HETATM    3  N   UNL     1      41.112 -12.263   4.634  1.00  0.00    -0.343 N 
HETATM    4  O   UNL     1      39.098 -11.689   5.512  1.00  0.00    -0.247 OA
HETATM    5  H   UNL     1      38.203 -12.090   3.358  1.00  0.00     0.170 HD
HETATM    6  H   UNL     1      41.599 -12.264   3.746  1.00  0.00     0.164 HD
ENDROOT
BRANCH   3   7
HETATM    7  C   UNL     1      41.878 -12.165   5.856  1.00  0.00     0.125 C 
BRANCH   7   8
HETATM    8  C   UNL     1      42.865 -13.311   6.110  1.00  0.00     0.026 C 
BRANCH   8   9
HETATM    9  C   UNL     1      42.318 -14.554   6.843  1.00  0.00     0.014 C 
HETATM   10  C   UNL     1      41.767 -15.649   5.930  1.00  0.00     0.240 C 
HETATM   11  N   UNL     1      42.919 -16.612   5.698  1.00  0.00    -0.067 N 
HETATM   12  H   UNL     1      42.586 -17.526   6.029  1.00  0.00     0.280 HD
HETATM   13  C   UNL     1      44.061 -16.188   6.582  1.00  0.00     0.235 C 
HETATM   14  C   UNL     1      43.411 -15.289   7.617  1.00  0.00     0.034 C 
BRANCH  11  15
HETATM   15  C   UNL     1      43.300 -16.809   4.254  1.00  0.00     0.273 C 
BRANCH  15  16
HETATM   16  C   UNL     1      43.558 -18.250   3.903  1.00  0.00    -0.033 A 
HETATM   17  C   UNL     1      43.434 -18.691   2.575  1.00  0.00     0.009 A 
HETATM   18  C   UNL     1      43.619 -20.036   2.254  1.00  0.00     0.001 A 
HETATM   19  C   UNL     1      43.937 -20.954   3.253  1.00  0.00     0.000 A 
HETATM   20  C   UNL     1      44.075 -20.527   4.572  1.00  0.00     0.001 A 
HETATM   21  C   UNL     1      43.886 -19.183   4.899  1.00  0.00     0.009 A 
ENDBRANCH  15  16
ENDBRANCH  11  15
ENDBRANCH   8   9
ENDBRANCH   7   8
ENDBRANCH   3   7
BRANCH   1  22
HETATM   22  C   UNL     1      39.484 -13.392   2.408  1.00  0.00     0.038 A 
HETATM   23  C   UNL     1      39.881 -13.046   1.107  1.00  0.00     0.059 A 
HETATM   24  C   UNL     1      40.278 -14.026   0.190  1.00  0.00     0.036 A 
HETATM   25  C   UNL     1      40.320 -15.361   0.607  1.00  0.00     0.029 A 
HETATM   26  C   UNL     1      39.937 -15.717   1.898  1.00  0.00     0.004 A 
HETATM   27  C   UNL     1      39.521 -14.735   2.794  1.00  0.00     0.029 A 
BRANCH  24  28
HETATM   28  N   UNL     1      40.715 -13.765  -1.121  1.00  0.00    -0.327 N 
HETATM   29  C   UNL     1      40.130 -13.894  -2.344  1.00  0.00     0.218 C 
HETATM   30  C   UNL     1      38.831 -14.627  -2.515  1.00  0.00     0.117 C 
HETATM   31  O   UNL     1      40.713 -13.431  -3.328  1.00  0.00    -0.274 OA
HETATM   32  H   UNL     1      41.660 -13.405  -1.215  1.00  0.00     0.169 HD
ENDBRANCH  24  28
ENDBRANCH   1  22
TORSDOF 7
ENDMDL
MODEL 2
REMARK VINA RESULT:      -8.5      4.574      8.381
REMARK  7 active torsions:
REMARK  status: ('A' for Active; 'I' for Inactive)
REMARK       I    between atoms: C_2  and  N_3 
REMARK    1  A    between atoms: N_3  and  C_4 
REMARK    2  A    between atoms: C_6  and  N_7 
REMARK       I    between atoms: N_7  and  C_8 
REMARK       I    between atoms: C_8  and  N_9 
REMARK    3  A    between atoms: N_9  and  C_10 
REMARK    4  A    between atoms: C_10  and  C_11 
REMARK    5  A    between atoms: C_11  and  C_12 
REMARK    6  A    between atoms: N_14  and  C_16 
REMARK    7  A    between atoms: C_16  and  C_17 
ROOT
HETATM    1  N   UNL     1      45.084  -9.289   8.260  1.00  0.00    -0.309 N 
HETATM    2  C   UNL     1      45.394 -10.467   7.658  1.00  0.00     0.320 C 
HETATM    3  N   UNL     1      44.366 -11.210   7.167  1.00  0.00    -0.343 N 
HETATM    4  O   UNL     1      46.571 -10.795   7.521  1.00  0.00    -0.247 OA
HETATM    5  H   UNL     1      45.895  -8.687   8.358  1.00  0.00     0.170 HD
HETATM    6  H   UNL     1      43.503 -10.713   6.983  1.00  0.00     0.164 HD
ENDROOT
BRANCH   3   7
HETATM    7  C   UNL     1      44.511 -12.567   6.693  1.00  0.00     0.125 C 
BRANCH   7   8
HETATM    8  C   UNL     1      43.362 -13.518   7.053  1.00  0.00     0.026 C 
BRANCH   8   9
HETATM    9  C   UNL     1      42.347 -13.841   5.937  1.00  0.00     0.014 C 
HETATM   10  C   UNL     1      42.913 -14.642   4.764  1.00  0.00     0.240 C 
HETATM   11  N   UNL     1      42.633 -16.100   5.085  1.00  0.00    -0.067 N 
HETATM   12  H   UNL     1      42.070 -16.452   4.302  1.00  0.00     0.280 HD
HETATM   13  C   UNL     1      41.780 -16.144   6.324  1.00  0.00     0.235 C 
HETATM   14  C   UNL     1      41.216 -14.740   6.434  1.00  0.00     0.034 C 
BRANCH  11  15
HETATM   15  C   UNL     1      43.854 -16.981   5.146  1.00  0.00     0.273 C 
BRANCH  15  16
HETATM   16  C   UNL     1      43.740 -18.207   4.280  1.00  0.00    -0.033 A 
HETATM   17  C   UNL     1      44.079 -19.471   4.790  1.00  0.00     0.009 A 
HETATM   18  C   UNL     1      44.028 -20.602   3.974  1.00  0.00     0.001 A 
HETATM   19  C   UNL     1      43.629 -20.485   2.645  1.00  0.00     0.000 A 
HETATM   20  C   UNL     1      43.278 -19.239   2.131  1.00  0.00     0.001 A 
HETATM   21  C   UNL     1      43.333 -18.103   2.941  1.00  0.00     0.009 A 
ENDBRANCH  15  16
ENDBRANCH  11  15
ENDBRANCH   8   9
ENDBRANCH   7   8
ENDBRANCH   3   7
BRANCH   1  22
HETATM   22  C   UNL     1      43.944  -8.886   8.985  1.00  0.00     0.038 A 
HETATM   23  C   UNL     1      43.197  -9.739   9.810  1.00  0.00     0.059 A 
HETATM   24  C   UNL     1      42.123  -9.253  10.565  1.00  0.00     0.036 A 
HETATM   25  C   UNL     1      41.833  -7.885  10.521  1.00  0.00     0.029 A 
HETATM   26  C   UNL     1      42.574  -7.025   9.712  1.00  0.00     0.004 A 
HETATM   27  C   UNL     1      43.624  -7.525   8.947  1.00  0.00     0.029 A 
BRANCH  24  28
HETATM   28  N   UNL     1      41.340 -10.030  11.437  1.00  0.00    -0.327 N 
HETATM   29  C   UNL     1      41.178 -10.040  12.790  1.00  0.00     0.218 C 
HETATM   30  C   UNL     1      42.089  -9.258  13.691  1.00  0.00     0.117 C 
HETATM   31  O   UNL     1      40.288 -10.746  13.271  1.00  0.00    -0.274 OA
HETATM   32  H   UNL     1      40.761 -10.743  11.004  1.00  0.00     0.169 HD
ENDBRANCH  24  28
ENDBRANCH   1  22
TORSDOF 7
ENDMDL
MODEL 3
REMARK VINA RESULT:      -8.4      3.866      7.770
REMARK  7 active torsions:
REMARK  status: ('A' for Active; 'I' for Inactive)
REMARK       I    between atoms: C_2  and  N_3 
REMARK    1  A    between atoms: N_3  and  C_4 
REMARK    2  A    between atoms: C_6  and  N_7 
REMARK       I    between atoms: N_7  and  C_8 
REMARK       I    between atoms: C_8  and  N_9 
REMARK    3  A    between atoms: N_9  and  C_10 
REMARK    4  A    between atoms: C_10  and  C_11 
REMARK    5  A    between atoms: C_11  and  C_12 
REMARK    6  A    between atoms: N_14  and  C_16 
REMARK    7  A    between atoms: C_16  and  C_17 
ROOT
HETATM    1  N   UNL     1      44.339 -12.506   7.161  1.00  0.00    -0.309 N 
HETATM    2  C   UNL     1      43.400 -12.888   6.257  1.00  0.00     0.320 C 
HETATM    3  N   UNL     1      43.119 -12.028   5.243  1.00  0.00    -0.343 N 
HETATM    4  O   UNL     1      42.883 -14.001   6.342  1.00  0.00    -0.247 OA
HETATM    5  H   UNL     1      44.674 -13.288   7.715  1.00  0.00     0.170 HD
HETATM    6  H   UNL     1      43.829 -11.336   5.033  1.00  0.00     0.164 HD
ENDROOT
BRANCH   3   7
HETATM    7  C   UNL     1      42.009 -12.193   4.332  1.00  0.00     0.125 C 
BRANCH   7   8
HETATM    8  C   UNL     1      42.332 -12.929   3.026  1.00  0.00     0.026 C 
BRANCH   8   9
HETATM    9  C   UNL     1      41.255 -13.891   2.482  1.00  0.00     0.014 C 
HETATM   10  C   UNL     1      41.779 -14.978   1.543  1.00  0.00     0.240 C 
HETATM   11  N   UNL     1      42.048 -16.189   2.421  1.00  0.00    -0.067 N 
HETATM   12  H   UNL     1      41.470 -16.944   2.033  1.00  0.00     0.280 HD
HETATM   13  C   UNL     1      41.540 -15.879   3.802  1.00  0.00     0.235 C 
HETATM   14  C   UNL     1      40.599 -14.707   3.595  1.00  0.00     0.034 C 
BRANCH  11  15
HETATM   15  C   UNL     1      43.467 -16.694   2.386  1.00  0.00     0.273 C 
BRANCH  15  16
HETATM   16  C   UNL     1      43.605 -18.101   2.902  1.00  0.00    -0.033 A 
HETATM   17  C   UNL     1      44.122 -18.340   4.186  1.00  0.00     0.009 A 
HETATM   18  C   UNL     1      44.303 -19.644   4.647  1.00  0.00     0.001 A 
HETATM   19  C   UNL     1      43.962 -20.724   3.836  1.00  0.00     0.000 A 
HETATM   20  C   UNL     1      43.436 -20.500   2.565  1.00  0.00     0.001 A 
HETATM   21  C   UNL     1      43.258 -19.197   2.096  1.00  0.00     0.009 A 
ENDBRANCH  15  16
ENDBRANCH  11  15
ENDBRANCH   8   9
ENDBRANCH   7   8
ENDBRANCH   3   7
BRANCH   1  22
HETATM   22  C   UNL     1      44.716 -11.231   7.629  1.00  0.00     0.038 A 
HETATM   23  C   UNL     1      43.932 -10.447   8.490  1.00  0.00     0.059 A 
HETATM   24  C   UNL     1      44.404  -9.224   8.980  1.00  0.00     0.036 A 
HETATM   25  C   UNL     1      45.696  -8.814   8.636  1.00  0.00     0.029 A 
HETATM   26  C   UNL     1      46.488  -9.587   7.790  1.00  0.00     0.004 A 
HETATM   27  C   UNL     1      45.999 -10.790   7.289  1.00  0.00     0.029 A 
BRANCH  24  28
HETATM   28  N   UNL     1      43.697  -8.391   9.866  1.00  0.00    -0.327 N 
HETATM   29  C   UNL     1      43.279  -8.539  11.154  1.00  0.00     0.218 C 
HETATM   30  C   UNL     1      43.334  -9.870  11.846  1.00  0.00     0.117 C 
HETATM   31  O   UNL     1      42.808  -7.558  11.736  1.00  0.00    -0.274 OA
HETATM   32  H   UNL     1      43.426  -7.482   9.506  1.00  0.00     0.169 HD
ENDBRANCH  24  28
ENDBRANCH   1  22
TORSDOF 7
ENDMDL
MODEL 4
REMARK VINA RESULT:      -8.4      4.637      7.705
REMARK  7 active torsions:
REMARK  status: ('A' for Active; 'I' for Inactive)
REMARK       I    between atoms: C_2  and  N_3 
REMARK    1  A    between atoms: N_3  and  C_4 
REMARK    2  A    between atoms: C_6  and  N_7 
REMARK       I    between atoms: N_7  and  C_8 
REMARK       I    between atoms: C_8  and  N_9 
REMARK    3  A    between atoms: N_9  and  C_10 
REMARK    4  A    between atoms: C_10  and  C_11 
REMARK    5  A    between atoms: C_11  and  C_12 
REMARK    6  A    between atoms: N_14  and  C_16 
REMARK    7  A    between atoms: C_16  and  C_17 
ROOT
HETATM    1  N   UNL     1      44.711  -9.941   8.462  1.00  0.00    -0.309 N 
HETATM    2  C   UNL     1      44.868 -11.017   7.648  1.00  0.00     0.320 C 
HETATM    3  N   UNL     1      43.787 -11.817   7.449  1.00  0.00    -0.343 N 
HETATM    4  O   UNL     1      45.941 -11.202   7.075  1.00  0.00    -0.247 OA
HETATM    5  H   UNL     1      45.461  -9.267   8.351  1.00  0.00     0.170 HD
HETATM    6  H   UNL     1      42.883 -11.401   7.636  1.00  0.00     0.164 HD
ENDROOT
BRANCH   3   7
HETATM    7  C   UNL     1      43.847 -13.101   6.787  1.00  0.00     0.125 C 
BRANCH   7   8
HETATM    8  C   UNL     1      42.509 -13.636   6.263  1.00  0.00     0.026 C 
BRANCH   8   9
HETATM    9  C   UNL     1      41.988 -14.946   6.888  1.00  0.00     0.014 C 
HETATM   10  C   UNL     1      41.706 -16.068   5.888  1.00  0.00     0.240 C 
HETATM   11  N   UNL     1      42.975 -16.902   5.833  1.00  0.00    -0.067 N 
HETATM   12  H   UNL     1      42.691 -17.853   6.098  1.00  0.00     0.280 HD
HETATM   13  C   UNL     1      43.912 -16.387   6.892  1.00  0.00     0.235 C 
HETATM   14  C   UNL     1      43.016 -15.586   7.819  1.00  0.00     0.034 C 
BRANCH  11  15
HETATM   15  C   UNL     1      43.596 -17.021   4.467  1.00  0.00     0.273 C 
BRANCH  15  16
HETATM   16  C   UNL     1      43.748 -18.447   4.010  1.00  0.00    -0.033 A 
HETATM   17  C   UNL     1      43.562 -18.785   2.659  1.00  0.00     0.009 A 
HETATM   18  C   UNL     1      43.648 -20.113   2.241  1.00  0.00     0.001 A 
HETATM   19  C   UNL     1      43.928 -21.117   3.164  1.00  0.00     0.000 A 
HETATM   20  C   UNL     1      44.127 -20.795   4.505  1.00  0.00     0.001 A 
HETATM   21  C   UNL     1      44.037 -19.468   4.929  1.00  0.00     0.009 A 
ENDBRANCH  15  16
ENDBRANCH  11  15
ENDBRANCH   8   9
ENDBRANCH   7   8
ENDBRANCH   3   7
BRANCH   1  22
HETATM   22  C   UNL     1      43.875  -9.734   9.578  1.00  0.00     0.038 A 
HETATM   23  C   UNL     1      42.687  -8.988   9.541  1.00  0.00     0.059 A 
HETATM   24  C   UNL     1      41.863  -8.890  10.669  1.00  0.00     0.036 A 
HETATM   25  C   UNL     1      42.219  -9.591  11.826  1.00  0.00     0.029 A 
HETATM   26  C   UNL     1      43.391 -10.342  11.872  1.00  0.00     0.004 A 
HETATM   27  C   UNL     1      44.215 -10.412  10.753  1.00  0.00     0.029 A 
BRANCH  24  28
HETATM   28  N   UNL     1      40.644  -8.189  10.711  1.00  0.00    -0.327 N 
HETATM   29  C   UNL     1      39.369  -8.510  10.357  1.00  0.00     0.218 C 
HETATM   30  C   UNL     1      39.066  -9.752   9.568  1.00  0.00     0.117 C 
HETATM   31  O   UNL     1      38.460  -7.732  10.659  1.00  0.00    -0.274 OA
HETATM   32  H   UNL     1      40.684  -7.243  11.077  1.00  0.00     0.169 HD
ENDBRANCH  24  28
ENDBRANCH   1  22
TORSDOF 7
ENDMDL
MODEL 5
REMARK VINA RESULT:      -8.2      4.092      7.986
REMARK  7 active torsions:
REMARK  status: ('A' for Active; 'I' for Inactive)
REMARK       I    between atoms: C_2  and  N_3 
REMARK    1  A    between atoms: N_3  and  C_4 
REMARK    2  A    between atoms: C_6  and  N_7 
REMARK       I    between atoms: N_7  and  C_8 
REMARK       I    between atoms: C_8  and  N_9 
REMARK    3  A    between atoms: N_9  and  C_10 
REMARK    4  A    between atoms: C_10  and  C_11 
REMARK    5  A    between atoms: C_11  and  C_12 
REMARK    6  A    between atoms: N_14  and  C_16 
REMARK    7  A    between atoms: C_16  and  C_17 
ROOT
HETATM    1  N   UNL     1      43.716  -9.986   7.078  1.00  0.00    -0.309 N 
HETATM    2  C   UNL     1      43.568 -11.057   6.255  1.00  0.00     0.320 C 
HETATM    3  N   UNL     1      42.847 -12.111   6.720  1.00  0.00    -0.343 N 
HETATM    4  O   UNL     1      44.028 -11.023   5.115  1.00  0.00    -0.247 OA
HETATM    5  H   UNL     1      44.029  -9.161   6.576  1.00  0.00     0.170 HD
HETATM    6  H   UNL     1      42.206 -11.914   7.480  1.00  0.00     0.164 HD
ENDROOT
BRANCH   3   7
HETATM    7  C   UNL     1      42.776 -13.393   6.056  1.00  0.00     0.125 C 
BRANCH   7   8
HETATM    8  C   UNL     1      41.452 -13.695   5.344  1.00  0.00     0.026 C 
BRANCH   8   9
HETATM    9  C   UNL     1      41.527 -14.020   3.837  1.00  0.00     0.014 C 
HETATM   10  C   UNL     1      42.874 -14.569   3.365  1.00  0.00     0.240 C 
HETATM   11  N   UNL     1      42.748 -16.082   3.422  1.00  0.00    -0.067 N 
HETATM   12  H   UNL     1      42.934 -16.410   2.466  1.00  0.00     0.280 HD
HETATM   13  C   UNL     1      41.318 -16.413   3.755  1.00  0.00     0.235 C 
HETATM   14  C   UNL     1      40.561 -15.136   3.443  1.00  0.00     0.034 C 
BRANCH  11  15
HETATM   15  C   UNL     1      43.760 -16.769   4.300  1.00  0.00     0.273 C 
BRANCH  15  16
HETATM   16  C   UNL     1      43.843 -18.252   4.055  1.00  0.00    -0.033 A 
HETATM   17  C   UNL     1      43.672 -18.770   2.760  1.00  0.00     0.009 A 
HETATM   18  C   UNL     1      43.694 -20.147   2.538  1.00  0.00     0.001 A 
HETATM   19  C   UNL     1      43.895 -21.022   3.603  1.00  0.00     0.000 A 
HETATM   20  C   UNL     1      44.078 -20.521   4.891  1.00  0.00     0.001 A 
HETATM   21  C   UNL     1      44.051 -19.143   5.119  1.00  0.00     0.009 A 
ENDBRANCH  15  16
ENDBRANCH  11  15
ENDBRANCH   8   9
ENDBRANCH   7   8
ENDBRANCH   3   7
BRANCH   1  22
HETATM   22  C   UNL     1      43.771  -9.894   8.483  1.00  0.00     0.038 A 
HETATM   23  C   UNL     1      42.644  -9.755   9.306  1.00  0.00     0.059 A 
HETATM   24  C   UNL     1      42.766  -9.751  10.701  1.00  0.00     0.036 A 
HETATM   25  C   UNL     1      44.032  -9.936  11.267  1.00  0.00     0.029 A 
HETATM   26  C   UNL     1      45.158 -10.084  10.461  1.00  0.00     0.004 A 
HETATM   27  C   UNL     1      45.028 -10.063   9.075  1.00  0.00     0.029 A 
BRANCH  24  28
HETATM   28  N   UNL     1      41.688  -9.645  11.598  1.00  0.00    -0.327 N 
HETATM   29  C   UNL     1      40.903  -8.605  11.996  1.00  0.00     0.218 C 
HETATM   30  C   UNL     1      41.249  -7.186  11.648  1.00  0.00     0.117 C 
HETATM   31  O   UNL     1      39.914  -8.848  12.694  1.00  0.00    -0.274 OA
HETATM   32  H   UNL     1      41.408 -10.501  12.066  1.00  0.00     0.169 HD
ENDBRANCH  24  28
ENDBRANCH   1  22
TORSDOF 7
ENDMDL
MODEL 6
REMARK VINA RESULT:      -8.1      4.137      7.493
REMARK  7 active torsions:
REMARK  status: ('A' for Active; 'I' for Inactive)
REMARK       I    between atoms: C_2  and  N_3 
REMARK    1  A    between atoms: N_3  and  C_4 
REMARK    2  A    between atoms: C_6  and  N_7 
REMARK       I    between atoms: N_7  and  C_8 
REMARK       I    between atoms: C_8  and  N_9 
REMARK    3  A    between atoms: N_9  and  C_10 
REMARK    4  A    between atoms: C_10  and  C_11 
REMARK    5  A    between atoms: C_11  and  C_12 
REMARK    6  A    between atoms: N_14  and  C_16 
REMARK    7  A    between atoms: C_16  and  C_17 
ROOT
HETATM    1  N   UNL     1      40.298  -9.055   9.691  1.00  0.00    -0.309 N 
HETATM    2  C   UNL     1      39.643  -9.365   8.542  1.00  0.00     0.320 C 
HETATM    3  N   UNL     1      40.033 -10.487   7.881  1.00  0.00    -0.343 N 
HETATM    4  O   UNL     1      38.696  -8.674   8.169  1.00  0.00    -0.247 OA
HETATM    5  H   UNL     1      39.789  -8.375  10.247  1.00  0.00     0.170 HD
HETATM    6  H   UNL     1      40.532 -11.178   8.428  1.00  0.00     0.164 HD
ENDROOT
BRANCH   3   7
HETATM    7  C   UNL     1      39.584 -10.834   6.552  1.00  0.00     0.125 C 
BRANCH   7   8
HETATM    8  C   UNL     1      40.176 -12.125   5.972  1.00  0.00     0.026 C 
BRANCH   8   9
HETATM    9  C   UNL     1      41.715 -12.224   5.916  1.00  0.00     0.014 C 
HETATM   10  C   UNL     1      42.281 -13.617   6.193  1.00  0.00     0.240 C 
HETATM   11  N   UNL     1      42.447 -14.274   4.833  1.00  0.00    -0.067 N 
HETATM   12  H   UNL     1      43.443 -14.516   4.765  1.00  0.00     0.280 HD
HETATM   13  C   UNL     1      42.150 -13.239   3.782  1.00  0.00     0.235 C 
HETATM   14  C   UNL     1      42.259 -11.919   4.521  1.00  0.00     0.034 C 
BRANCH  11  15
HETATM   15  C   UNL     1      41.694 -15.566   4.657  1.00  0.00     0.273 C 
BRANCH  15  16
HETATM   16  C   UNL     1      42.548 -16.677   4.108  1.00  0.00    -0.033 A 
HETATM   17  C   UNL     1      42.360 -17.135   2.793  1.00  0.00     0.009 A 
HETATM   18  C   UNL     1      43.113 -18.201   2.299  1.00  0.00     0.001 A 
HETATM   19  C   UNL     1      44.065 -18.815   3.108  1.00  0.00     0.000 A 
HETATM   20  C   UNL     1      44.270 -18.363   4.409  1.00  0.00     0.001 A 
HETATM   21  C   UNL     1      43.516 -17.300   4.911  1.00  0.00     0.009 A 
ENDBRANCH  15  16
ENDBRANCH  11  15
ENDBRANCH   8   9
ENDBRANCH   7   8
ENDBRANCH   3   7
BRANCH   1  22
HETATM   22  C   UNL     1      41.626  -9.293  10.098  1.00  0.00     0.038 A 
HETATM   23  C   UNL     1      42.753  -8.987   9.320  1.00  0.00     0.059 A 
HETATM   24  C   UNL     1      44.046  -9.176   9.820  1.00  0.00     0.036 A 
HETATM   25  C   UNL     1      44.201  -9.633  11.134  1.00  0.00     0.029 A 
HETATM   26  C   UNL     1      43.090  -9.932  11.920  1.00  0.00     0.004 A 
HETATM   27  C   UNL     1      41.809  -9.763  11.403  1.00  0.00     0.029 A 
BRANCH  24  28
HETATM   28  N   UNL     1      45.228  -8.870   9.121  1.00  0.00    -0.327 N 
HETATM   29  C   UNL     1      45.896  -9.481   8.103  1.00  0.00     0.218 C 
HETATM   30  C   UNL     1      45.537 -10.868   7.655  1.00  0.00     0.117 C 
HETATM   31  O   UNL     1      46.841  -8.886   7.579  1.00  0.00    -0.274 OA
HETATM   32  H   UNL     1      45.711  -8.024   9.406  1.00  0.00     0.169 HD
ENDBRANCH  24  28
ENDBRANCH   1  22
TORSDOF 7
ENDMDL
MODEL 7
REMARK VINA RESULT:      -8.0      2.400      6.658
REMARK  7 active torsions:
REMARK  status: ('A' for Active; 'I' for Inactive)
REMARK       I    between atoms: C_2  and  N_3 
REMARK    1  A    between atoms: N_3  and  C_4 
REMARK    2  A    between atoms: C_6  and  N_7 
REMARK       I    between atoms: N_7  and  C_8 
REMARK       I    between atoms: C_8  and  N_9 
REMARK    3  A    between atoms: N_9  and  C_10 
REMARK    4  A    between atoms: C_10  and  C_11 
REMARK    5  A    between atoms: C_11  and  C_12 
REMARK    6  A    between atoms: N_14  and  C_16 
REMARK    7  A    between atoms: C_16  and  C_17 
ROOT
HETATM    1  N   UNL     1      40.555 -14.352   6.671  1.00  0.00    -0.309 N 
HETATM    2  C   UNL     1      40.153 -13.256   5.977  1.00  0.00     0.320 C 
HETATM    3  N   UNL     1      40.688 -13.063   4.743  1.00  0.00    -0.343 N 
HETATM    4  O   UNL     1      39.290 -12.515   6.446  1.00  0.00    -0.247 OA
HETATM    5  H   UNL     1      39.932 -14.562   7.445  1.00  0.00     0.170 HD
HETATM    6  H   UNL     1      41.078 -13.883   4.292  1.00  0.00     0.164 HD
ENDROOT
BRANCH   3   7
HETATM    7  C   UNL     1      40.525 -11.850   3.975  1.00  0.00     0.125 C 
BRANCH   7   8
HETATM    8  C   UNL     1      39.644 -11.974   2.726  1.00  0.00     0.026 C 
BRANCH   8   9
HETATM    9  C   UNL     1      40.201 -11.377   1.416  1.00  0.00     0.014 C 
HETATM   10  C   UNL     1      41.051 -12.337   0.583  1.00  0.00     0.240 C 
HETATM   11  N   UNL     1      40.098 -12.973  -0.416  1.00  0.00    -0.067 N 
HETATM   12  H   UNL     1      40.480 -12.749  -1.343  1.00  0.00     0.280 HD
HETATM   13  C   UNL     1      38.766 -12.284  -0.285  1.00  0.00     0.235 C 
HETATM   14  C   UNL     1      39.089 -10.992   0.442  1.00  0.00     0.034 C 
BRANCH  11  15
HETATM   15  C   UNL     1      40.022 -14.476  -0.351  1.00  0.00     0.273 C 
BRANCH  15  16
HETATM   16  C   UNL     1      40.660 -15.046   0.887  1.00  0.00    -0.033 A 
HETATM   17  C   UNL     1      42.055 -15.185   0.968  1.00  0.00     0.009 A 
HETATM   18  C   UNL     1      42.646 -15.763   2.092  1.00  0.00     0.001 A 
HETATM   19  C   UNL     1      41.853 -16.201   3.150  1.00  0.00     0.000 A 
HETATM   20  C   UNL     1      40.469 -16.058   3.087  1.00  0.00     0.001 A 
HETATM   21  C   UNL     1      39.872 -15.484   1.962  1.00  0.00     0.009 A 
ENDBRANCH  15  16
ENDBRANCH  11  15
ENDBRANCH   8   9
ENDBRANCH   7   8
ENDBRANCH   3   7
BRANCH   1  22
HETATM   22  C   UNL     1      41.776 -15.055   6.674  1.00  0.00     0.038 A 
HETATM   23  C   UNL     1      41.879 -16.451   6.575  1.00  0.00     0.059 A 
HETATM   24  C   UNL     1      43.129 -17.077   6.502  1.00  0.00     0.036 A 
HETATM   25  C   UNL     1      44.281 -16.283   6.481  1.00  0.00     0.029 A 
HETATM   26  C   UNL     1      44.191 -14.896   6.569  1.00  0.00     0.004 A 
HETATM   27  C   UNL     1      42.944 -14.285   6.666  1.00  0.00     0.029 A 
BRANCH  24  28
HETATM   28  N   UNL     1      43.323 -18.464   6.373  1.00  0.00    -0.327 N 
HETATM   29  C   UNL     1      43.907 -19.242   5.418  1.00  0.00     0.218 C 
HETATM   30  C   UNL     1      44.298 -18.677   4.083  1.00  0.00     0.117 C 
HETATM   31  O   UNL     1      44.070 -20.441   5.655  1.00  0.00    -0.274 OA
HETATM   32  H   UNL     1      42.967 -19.039   7.130  1.00  0.00     0.169 HD
ENDBRANCH  24  28
ENDBRANCH   1  22
TORSDOF 7
ENDMDL
MODEL 8
REMARK VINA RESULT:      -8.0      3.051      6.790
REMARK  7 active torsions:
REMARK  status: ('A' for Active; 'I' for Inactive)
REMARK       I    between atoms: C_2  and  N_3 
REMARK    1  A    between atoms: N_3  and  C_4 
REMARK    2  A    between atoms: C_6  and  N_7 
REMARK       I    between atoms: N_7  and  C_8 
REMARK       I    between atoms: C_8  and  N_9 
REMARK    3  A    between atoms: N_9  and  C_10 
REMARK    4  A    between atoms: C_10  and  C_11 
REMARK    5  A    between atoms: C_11  and  C_12 
REMARK    6  A    between atoms: N_14  and  C_16 
REMARK    7  A    between atoms: C_16  and  C_17 
ROOT
HETATM    1  N   UNL     1      42.631 -13.130   6.915  1.00  0.00    -0.309 N 
HETATM    2  C   UNL     1      41.647 -13.353   6.006  1.00  0.00     0.320 C 
HETATM    3  N   UNL     1      41.853 -12.908   4.737  1.00  0.00    -0.343 N 
HETATM    4  O   UNL     1      40.645 -13.988   6.328  1.00  0.00    -0.247 OA
HETATM    5  H   UNL     1      42.521 -13.707   7.743  1.00  0.00     0.170 HD
HETATM    6  H   UNL     1      42.817 -12.748   4.471  1.00  0.00     0.164 HD
ENDROOT
BRANCH   3   7
HETATM    7  C   UNL     1      40.829 -12.881   3.718  1.00  0.00     0.125 C 
BRANCH   7   8
HETATM    8  C   UNL     1      41.318 -13.121   2.284  1.00  0.00     0.026 C 
BRANCH   8   9
HETATM    9  C   UNL     1      40.743 -14.348   1.546  1.00  0.00     0.014 C 
HETATM   10  C   UNL     1      41.773 -15.414   1.169  1.00  0.00     0.240 C 
HETATM   11  N   UNL     1      41.764 -16.419   2.309  1.00  0.00    -0.067 N 
HETATM   12  H   UNL     1      41.529 -17.321   1.878  1.00  0.00     0.280 HD
HETATM   13  C   UNL     1      40.645 -16.047   3.243  1.00  0.00     0.235 C 
HETATM   14  C   UNL     1      39.761 -15.132   2.416  1.00  0.00     0.034 C 
BRANCH  11  15
HETATM   15  C   UNL     1      43.093 -16.618   2.988  1.00  0.00     0.273 C 
BRANCH  15  16
HETATM   16  C   UNL     1      43.434 -18.068   3.205  1.00  0.00    -0.033 A 
HETATM   17  C   UNL     1      43.164 -19.019   2.207  1.00  0.00     0.009 A 
HETATM   18  C   UNL     1      43.428 -20.371   2.425  1.00  0.00     0.001 A 
HETATM   19  C   UNL     1      43.971 -20.788   3.638  1.00  0.00     0.000 A 
HETATM   20  C   UNL     1      44.255 -19.854   4.632  1.00  0.00     0.001 A 
HETATM   21  C   UNL     1      43.988 -18.500   4.420  1.00  0.00     0.009 A 
ENDBRANCH  15  16
ENDBRANCH  11  15
ENDBRANCH   8   9
ENDBRANCH   7   8
ENDBRANCH   3   7
BRANCH   1  22
HETATM   22  C   UNL     1      43.578 -12.092   7.026  1.00  0.00     0.038 A 
HETATM   23  C   UNL     1      43.369 -10.912   7.754  1.00  0.00     0.059 A 
HETATM   24  C   UNL     1      44.385  -9.958   7.888  1.00  0.00     0.036 A 
HETATM   25  C   UNL     1      45.636 -10.223   7.322  1.00  0.00     0.029 A 
HETATM   26  C   UNL     1      45.860 -11.396   6.605  1.00  0.00     0.004 A 
HETATM   27  C   UNL     1      44.835 -12.326   6.457  1.00  0.00     0.029 A 
BRANCH  24  28
HETATM   28  N   UNL     1      44.269  -8.764   8.621  1.00  0.00    -0.327 N 
HETATM   29  C   UNL     1      43.405  -7.712   8.565  1.00  0.00     0.218 C 
HETATM   30  C   UNL     1      42.444  -7.551   7.422  1.00  0.00     0.117 C 
HETATM   31  O   UNL     1      43.455  -6.860   9.455  1.00  0.00    -0.274 OA
HETATM   32  H   UNL     1      44.956  -8.620   9.355  1.00  0.00     0.169 HD
ENDBRANCH  24  28
ENDBRANCH   1  22
TORSDOF 7
ENDMDL
MODEL 9
REMARK VINA RESULT:      -8.0      3.153      7.402
REMARK  7 active torsions:
REMARK  status: ('A' for Active; 'I' for Inactive)
REMARK       I    between atoms: C_2  and  N_3 
REMARK    1  A    between atoms: N_3  and  C_4 
REMARK    2  A    between atoms: C_6  and  N_7 
REMARK       I    between atoms: N_7  and  C_8 
REMARK       I    between atoms: C_8  and  N_9 
REMARK    3  A    between atoms: N_9  and  C_10 
REMARK    4  A    between atoms: C_10  and  C_11 
REMARK    5  A    between atoms: C_11  and  C_12 
REMARK    6  A    between atoms: N_14  and  C_16 
REMARK    7  A    between atoms: C_16  and  C_17 
ROOT
HETATM    1  N   UNL     1      41.184 -15.568   6.618  1.00  0.00    -0.309 N 
HETATM    2  C   UNL     1      40.406 -14.660   5.972  1.00  0.00     0.320 C 
HETATM    3  N   UNL     1      40.369 -14.719   4.614  1.00  0.00    -0.343 N 
HETATM    4  O   UNL     1      39.725 -13.866   6.618  1.00  0.00    -0.247 OA
HETATM    5  H   UNL     1      40.958 -15.629   7.605  1.00  0.00     0.170 HD
HETATM    6  H   UNL     1      40.638 -15.602   4.197  1.00  0.00     0.164 HD
ENDROOT
BRANCH   3   7
HETATM    7  C   UNL     1      39.763 -13.704   3.782  1.00  0.00     0.125 C 
BRANCH   7   8
HETATM    8  C   UNL     1      40.714 -12.995   2.810  1.00  0.00     0.026 C 
BRANCH   8   9
HETATM    9  C   UNL     1      40.887 -11.471   2.989  1.00  0.00     0.014 C 
HETATM   10  C   UNL     1      41.004 -11.003   4.439  1.00  0.00     0.240 C 
HETATM   11  N   UNL     1      42.493 -10.946   4.737  1.00  0.00    -0.067 N 
HETATM   12  H   UNL     1      42.681  -9.976   5.017  1.00  0.00     0.280 HD
HETATM   13  C   UNL     1      43.231 -11.209   3.452  1.00  0.00     0.235 C 
HETATM   14  C   UNL     1      42.191 -10.966   2.374  1.00  0.00     0.034 C 
BRANCH  11  15
HETATM   15  C   UNL     1      42.942 -11.804   5.891  1.00  0.00     0.273 C 
BRANCH  15  16
HETATM   16  C   UNL     1      43.945 -11.119   6.780  1.00  0.00    -0.033 A 
HETATM   17  C   UNL     1      43.551 -10.055   7.609  1.00  0.00     0.009 A 
HETATM   18  C   UNL     1      44.488  -9.383   8.393  1.00  0.00     0.001 A 
HETATM   19  C   UNL     1      45.825  -9.768   8.366  1.00  0.00     0.000 A 
HETATM   20  C   UNL     1      46.228 -10.830   7.558  1.00  0.00     0.001 A 
HETATM   21  C   UNL     1      45.295 -11.503   6.766  1.00  0.00     0.009 A 
ENDBRANCH  15  16
ENDBRANCH  11  15
ENDBRANCH   8   9
ENDBRANCH   7   8
ENDBRANCH   3   7
BRANCH   1  22
HETATM   22  C   UNL     1      42.377 -16.212   6.232  1.00  0.00     0.038 A 
HETATM   23  C   UNL     1      42.441 -17.243   5.283  1.00  0.00     0.059 A 
HETATM   24  C   UNL     1      43.671 -17.783   4.888  1.00  0.00     0.036 A 
HETATM   25  C   UNL     1      44.846 -17.244   5.422  1.00  0.00     0.029 A 
HETATM   26  C   UNL     1      44.796 -16.213   6.359  1.00  0.00     0.004 A 
HETATM   27  C   UNL     1      43.566 -15.701   6.762  1.00  0.00     0.029 A 
BRANCH  24  28
HETATM   28  N   UNL     1      43.828 -18.796   3.925  1.00  0.00    -0.327 N 
HETATM   29  C   UNL     1      43.875 -20.156   3.998  1.00  0.00     0.218 C 
HETATM   30  C   UNL     1      43.990 -20.863   5.317  1.00  0.00     0.117 C 
HETATM   31  O   UNL     1      43.866 -20.802   2.948  1.00  0.00    -0.274 OA
HETATM   32  H   UNL     1      43.932 -18.488   2.963  1.00  0.00     0.169 HD
ENDBRANCH  24  28
ENDBRANCH   1  22
TORSDOF 7
ENDMDL
MODEL 10
REMARK VINA RESULT:      -8.0      2.578      3.667
REMARK  7 active torsions:
REMARK  status: ('A' for Active; 'I' for Inactive)
REMARK       I    between atoms: C_2  and  N_3 
REMARK    1  A    between atoms: N_3  and  C_4 
REMARK    2  A    between atoms: C_6  and  N_7 
REMARK       I    between atoms: N_7  and  C_8 
REMARK       I    between atoms: C_8  and  N_9 
REMARK    3  A    between atoms: N_9  and  C_10 
REMARK    4  A    between atoms: C_10  and  C_11 
REMARK    5  A    between atoms: C_11  and  C_12 
REMARK    6  A    between atoms: N_14  and  C_16 
REMARK    7  A    between atoms: C_16  and  C_17 
ROOT
HETATM    1  N   UNL     1      39.643 -14.601   0.317  1.00  0.00    -0.309 N 
HETATM    2  C   UNL     1      40.659 -15.063   1.092  1.00  0.00     0.320 C 
HETATM    3  N   UNL     1      41.704 -14.224   1.321  1.00  0.00    -0.343 N 
HETATM    4  O   UNL     1      40.582 -16.178   1.604  1.00  0.00    -0.247 OA
HETATM    5  H   UNL     1      38.806 -15.168   0.410  1.00  0.00     0.170 HD
HETATM    6  H   UNL     1      41.521 -13.236   1.192  1.00  0.00     0.164 HD
ENDROOT
BRANCH   3   7
HETATM    7  C   UNL     1      42.943 -14.635   1.942  1.00  0.00     0.125 C 
BRANCH   7   8
HETATM    8  C   UNL     1      43.152 -14.147   3.381  1.00  0.00     0.026 C 
BRANCH   8   9
HETATM    9  C   UNL     1      42.221 -14.737   4.461  1.00  0.00     0.014 C 
HETATM   10  C   UNL     1      42.300 -16.256   4.619  1.00  0.00     0.240 C 
HETATM   11  N   UNL     1      43.313 -16.504   5.725  1.00  0.00    -0.067 N 
HETATM   12  H   UNL     1      42.810 -17.037   6.445  1.00  0.00     0.280 HD
HETATM   13  C   UNL     1      43.690 -15.172   6.313  1.00  0.00     0.235 C 
HETATM   14  C   UNL     1      42.580 -14.242   5.861  1.00  0.00     0.034 C 
BRANCH  11  15
HETATM   15  C   UNL     1      44.489 -17.357   5.327  1.00  0.00     0.273 C 
BRANCH  15  16
HETATM   16  C   UNL     1      44.118 -18.475   4.391  1.00  0.00    -0.033 A 
HETATM   17  C   UNL     1      44.155 -19.810   4.827  1.00  0.00     0.009 A 
HETATM   18  C   UNL     1      43.864 -20.852   3.947  1.00  0.00     0.001 A 
HETATM   19  C   UNL     1      43.525 -20.575   2.625  1.00  0.00     0.000 A 
HETATM   20  C   UNL     1      43.473 -19.255   2.182  1.00  0.00     0.001 A 
HETATM   21  C   UNL     1      43.768 -18.208   3.058  1.00  0.00     0.009 A 
ENDBRANCH  15  16
ENDBRANCH  11  15
ENDBRANCH   8   9
ENDBRANCH   7   8
ENDBRANCH   3   7
BRANCH   1  22
HETATM   22  C   UNL     1      39.631 -13.679  -0.749  1.00  0.00     0.038 A 
HETATM   23  C   UNL     1      39.538 -12.289  -0.584  1.00  0.00     0.059 A 
HETATM   24  C   UNL     1      39.614 -11.427  -1.684  1.00  0.00     0.036 A 
HETATM   25  C   UNL     1      39.832 -11.971  -2.954  1.00  0.00     0.029 A 
HETATM   26  C   UNL     1      39.935 -13.350  -3.130  1.00  0.00     0.004 A 
HETATM   27  C   UNL     1      39.835 -14.199  -2.031  1.00  0.00     0.029 A 
BRANCH  24  28
HETATM   28  N   UNL     1      39.558 -10.023  -1.606  1.00  0.00    -0.327 N 
HETATM   29  C   UNL     1      40.510  -9.056  -1.488  1.00  0.00     0.218 C 
HETATM   30  C   UNL     1      41.937  -9.398  -1.170  1.00  0.00     0.117 C 
HETATM   31  O   UNL     1      40.167  -7.876  -1.603  1.00  0.00    -0.274 OA
HETATM   32  H   UNL     1      38.632  -9.609  -1.643  1.00  0.00     0.169 HD
ENDBRANCH  24  28
ENDBRANCH   1  22
TORSDOF 7
ENDMDL
