MODEL 1
REMARK VINA RESULT:      -8.2      0.000      0.000
REMARK  4 active torsions:
REMARK  status: ('A' for Active; 'I' for Inactive)
REMARK    1  A    between atoms: C_9  and  C_10 
REMARK    2  A    between atoms: C_17  and  C_18 
REMARK       I    between atoms: C_18  and  N_19 
REMARK    3  A    between atoms: N_19  and  C_20 
REMARK    4  A    between atoms: C_23  and  O_24 
ROOT
HETATM    1  C   UNL     1      44.362 -11.577   3.774  1.00  0.00     0.070 C 
HETATM    2  C   UNL     1      42.920 -11.694   3.340  1.00  0.00     0.037 C 
HETATM    3  N   UNL     1      42.145 -10.554   3.539  1.00  0.00    -0.192 N 
HETATM    4  C   UNL     1      40.796 -10.580   3.525  1.00  0.00     0.725 A 
HETATM    5  N   UNL     1      40.153 -11.705   3.087  1.00  0.00    -0.084 N 
HETATM    6  N   UNL     1      38.816 -11.592   3.225  1.00  0.00    -0.149 NA
HETATM    7  C   UNL     1      38.724 -10.351   3.715  1.00  0.00     0.275 A 
HETATM    8  N   UNL     1      39.913  -9.694   3.907  1.00  0.00    -0.054 NA
HETATM    9  C   UNL     1      40.843 -12.894   2.573  1.00  0.00     0.202 C 
HETATM   10  C   UNL     1      42.339 -12.827   2.867  1.00  0.00     0.062 C 
HETATM   11  H   UNL     1      42.590  -9.759   3.993  1.00  0.00     0.184 HD
ENDROOT
BRANCH  10  12
HETATM   12  C   UNL     1      43.028 -14.141   2.749  1.00  0.00     0.256 C 
HETATM   13  N   UNL     1      42.711 -15.040   3.744  1.00  0.00    -0.323 N 
HETATM   14  H   UNL     1      42.111 -14.712   4.490  1.00  0.00     0.169 HD
HETATM   15  O   UNL     1      43.828 -14.299   1.835  1.00  0.00    -0.267 OA
BRANCH  13  16
HETATM   16  C   UNL     1      43.096 -16.397   3.815  1.00  0.00     0.035 A 
HETATM   17  C   UNL     1      43.803 -16.953   4.881  1.00  0.00     0.032 A 
HETATM   18  C   UNL     1      44.175 -18.302   4.858  1.00  0.00     0.039 A 
HETATM   19  C   UNL     1      43.850 -19.119   3.775  1.00  0.00     0.068 A 
HETATM   20  C   UNL     1      43.148 -18.570   2.705  1.00  0.00     0.039 A 
HETATM   21  C   UNL     1      42.771 -17.218   2.728  1.00  0.00     0.032 A 
BRANCH  19  22
HETATM   22  O   UNL     1      44.279 -20.411   3.884  1.00  0.00    -0.356 OA
HETATM   23  C   UNL     1      44.252 -20.992   5.181  1.00  0.00     0.210 C 
ENDBRANCH  19  22
ENDBRANCH  13  16
ENDBRANCH  10  12
BRANCH   9  24
HETATM   24  C   UNL     1      40.559 -13.066   1.079  1.00  0.00    -0.028 A 
HETATM   25  C   UNL     1      40.834 -12.046   0.148  1.00  0.00     0.011 A 
HETATM   26  C   UNL     1      40.544 -12.220  -1.207  1.00  0.00     0.024 A 
HETATM   27  C   UNL     1      39.992 -13.420  -1.649  1.00  0.00     0.034 A 
HETATM   28 CL   UNL     1      39.627 -13.628  -3.317  1.00  0.00    -0.084 Cl
HETATM   29  C   UNL     1      39.735 -14.449  -0.748  1.00  0.00     0.024 A 
HETATM   30  C   UNL     1      40.020 -14.276   0.609  1.00  0.00     0.011 A 
ENDBRANCH   9  24
TORSDOF 4
ENDMDL
MODEL 2
REMARK VINA RESULT:      -7.9      3.525      7.327
REMARK  4 active torsions:
REMARK  status: ('A' for Active; 'I' for Inactive)
REMARK    1  A    between atoms: C_9  and  C_10 
REMARK    2  A    between atoms: C_17  and  C_18 
REMARK       I    between atoms: C_18  and  N_19 
REMARK    3  A    between atoms: N_19  and  C_20 
REMARK    4  A    between atoms: C_23  and  O_24 
ROOT
HETATM    1  C   UNL     1      43.189 -16.255   1.550  1.00  0.00     0.070 C 
HETATM    2  C   UNL     1      42.793 -15.947   2.974  1.00  0.00     0.037 C 
HETATM    3  N   UNL     1      43.715 -16.332   3.945  1.00  0.00    -0.192 N 
HETATM    4  C   UNL     1      43.394 -16.440   5.251  1.00  0.00     0.725 A 
HETATM    5  N   UNL     1      42.194 -15.951   5.688  1.00  0.00    -0.084 N 
HETATM    6  N   UNL     1      41.999 -16.223   6.994  1.00  0.00    -0.149 NA
HETATM    7  C   UNL     1      43.147 -16.842   7.289  1.00  0.00     0.275 A 
HETATM    8  N   UNL     1      44.031 -16.990   6.251  1.00  0.00    -0.054 NA
HETATM    9  C   UNL     1      41.230 -15.257   4.825  1.00  0.00     0.202 C 
HETATM   10  C   UNL     1      41.601 -15.417   3.353  1.00  0.00     0.062 C 
HETATM   11  H   UNL     1      44.549 -16.821   3.629  1.00  0.00     0.184 HD
ENDROOT
BRANCH  10  12
HETATM   12  C   UNL     1      40.484 -15.103   2.421  1.00  0.00     0.256 C 
HETATM   13  N   UNL     1      40.719 -14.024   1.597  1.00  0.00    -0.323 N 
HETATM   14  H   UNL     1      41.577 -13.507   1.743  1.00  0.00     0.169 HD
HETATM   15  O   UNL     1      39.463 -15.777   2.487  1.00  0.00    -0.267 OA
BRANCH  13  16
HETATM   16  C   UNL     1      39.910 -13.584   0.526  1.00  0.00     0.035 A 
HETATM   17  C   UNL     1      39.183 -12.393   0.535  1.00  0.00     0.032 A 
HETATM   18  C   UNL     1      38.379 -12.044  -0.555  1.00  0.00     0.039 A 
HETATM   19  C   UNL     1      38.284 -12.875  -1.672  1.00  0.00     0.068 A 
HETATM   20  C   UNL     1      39.003 -14.067  -1.688  1.00  0.00     0.039 A 
HETATM   21  C   UNL     1      39.813 -14.416  -0.597  1.00  0.00     0.032 A 
BRANCH  19  22
HETATM   22  O   UNL     1      37.460 -12.413  -2.660  1.00  0.00    -0.356 OA
HETATM   23  C   UNL     1      37.190 -11.018  -2.674  1.00  0.00     0.210 C 
ENDBRANCH  19  22
ENDBRANCH  13  16
ENDBRANCH  10  12
BRANCH   9  24
HETATM   24  C   UNL     1      41.120 -13.786   5.232  1.00  0.00    -0.028 A 
HETATM   25  C   UNL     1      42.208 -12.900   5.121  1.00  0.00     0.011 A 
HETATM   26  C   UNL     1      42.087 -11.567   5.521  1.00  0.00     0.024 A 
HETATM   27  C   UNL     1      40.873 -11.101   6.021  1.00  0.00     0.034 A 
HETATM   28 CL   UNL     1      40.729  -9.463   6.522  1.00  0.00    -0.084 Cl
HETATM   29  C   UNL     1      39.778 -11.956   6.117  1.00  0.00     0.024 A 
HETATM   30  C   UNL     1      39.899 -13.290   5.721  1.00  0.00     0.011 A 
ENDBRANCH   9  24
TORSDOF 4
ENDMDL
MODEL 3
REMARK VINA RESULT:      -7.9      2.810      4.414
REMARK  4 active torsions:
REMARK  status: ('A' for Active; 'I' for Inactive)
REMARK    1  A    between atoms: C_9  and  C_10 
REMARK    2  A    between atoms: C_17  and  C_18 
REMARK       I    between atoms: C_18  and  N_19 
REMARK    3  A    between atoms: N_19  and  C_20 
REMARK    4  A    between atoms: C_23  and  O_24 
ROOT
HETATM    1  C   UNL     1      39.419 -14.661  -1.348  1.00  0.00     0.070 C 
HETATM    2  C   UNL     1      39.990 -13.498  -0.572  1.00  0.00     0.037 C 
HETATM    3  N   UNL     1      39.891 -12.258  -1.199  1.00  0.00    -0.192 N 
HETATM    4  C   UNL     1      40.623 -11.191  -0.820  1.00  0.00     0.725 A 
HETATM    5  N   UNL     1      41.331 -11.245   0.350  1.00  0.00    -0.084 N 
HETATM    6  N   UNL     1      42.074 -10.134   0.527  1.00  0.00    -0.149 NA
HETATM    7  C   UNL     1      41.730  -9.433  -0.559  1.00  0.00     0.275 A 
HETATM    8  N   UNL     1      40.839 -10.042  -1.406  1.00  0.00    -0.054 NA
HETATM    9  C   UNL     1      41.307 -12.391   1.267  1.00  0.00     0.202 C 
HETATM   10  C   UNL     1      40.647 -13.602   0.613  1.00  0.00     0.062 C 
HETATM   11  H   UNL     1      39.487 -12.237  -2.132  1.00  0.00     0.184 HD
ENDROOT
BRANCH  10  12
HETATM   12  C   UNL     1      40.942 -14.886   1.303  1.00  0.00     0.256 C 
HETATM   13  N   UNL     1      42.271 -15.070   1.615  1.00  0.00    -0.323 N 
HETATM   14  H   UNL     1      42.925 -14.369   1.291  1.00  0.00     0.169 HD
HETATM   15  O   UNL     1      40.020 -15.670   1.493  1.00  0.00    -0.267 OA
BRANCH  13  16
HETATM   16  C   UNL     1      42.823 -16.116   2.388  1.00  0.00     0.035 A 
HETATM   17  C   UNL     1      43.086 -17.395   1.896  1.00  0.00     0.032 A 
HETATM   18  C   UNL     1      43.605 -18.385   2.737  1.00  0.00     0.039 A 
HETATM   19  C   UNL     1      43.870 -18.120   4.080  1.00  0.00     0.068 A 
HETATM   20  C   UNL     1      43.608 -16.847   4.580  1.00  0.00     0.039 A 
HETATM   21  C   UNL     1      43.091 -15.851   3.737  1.00  0.00     0.032 A 
BRANCH  19  22
HETATM   22  O   UNL     1      44.370 -19.179   4.784  1.00  0.00    -0.356 OA
HETATM   23  C   UNL     1      43.949 -20.476   4.384  1.00  0.00     0.210 C 
ENDBRANCH  19  22
ENDBRANCH  13  16
ENDBRANCH  10  12
BRANCH   9  24
HETATM   24  C   UNL     1      40.622 -12.003   2.580  1.00  0.00    -0.028 A 
HETATM   25  C   UNL     1      39.365 -11.368   2.603  1.00  0.00     0.011 A 
HETATM   26  C   UNL     1      38.772 -11.006   3.815  1.00  0.00     0.024 A 
HETATM   27  C   UNL     1      39.420 -11.287   5.015  1.00  0.00     0.034 A 
HETATM   28 CL   UNL     1      38.692 -10.829   6.505  1.00  0.00    -0.084 Cl
HETATM   29  C   UNL     1      40.652 -11.935   5.014  1.00  0.00     0.024 A 
HETATM   30  C   UNL     1      41.249 -12.295   3.803  1.00  0.00     0.011 A 
ENDBRANCH   9  24
TORSDOF 4
ENDMDL
MODEL 4
REMARK VINA RESULT:      -7.9      2.255      2.771
REMARK  4 active torsions:
REMARK  status: ('A' for Active; 'I' for Inactive)
REMARK    1  A    between atoms: C_9  and  C_10 
REMARK    2  A    between atoms: C_17  and  C_18 
REMARK       I    between atoms: C_18  and  N_19 
REMARK    3  A    between atoms: N_19  and  C_20 
REMARK    4  A    between atoms: C_23  and  O_24 
ROOT
HETATM    1  C   UNL     1      43.582 -13.162   7.058  1.00  0.00     0.070 C 
HETATM    2  C   UNL     1      42.421 -12.500   6.357  1.00  0.00     0.037 C 
HETATM    3  N   UNL     1      42.182 -11.176   6.719  1.00  0.00    -0.192 N 
HETATM    4  C   UNL     1      41.018 -10.548   6.455  1.00  0.00     0.725 A 
HETATM    5  N   UNL     1      40.114 -11.139   5.616  1.00  0.00    -0.084 N 
HETATM    6  N   UNL     1      38.975 -10.421   5.536  1.00  0.00    -0.149 NA
HETATM    7  C   UNL     1      39.284  -9.385   6.324  1.00  0.00     0.275 A 
HETATM    8  N   UNL     1      40.528  -9.421   6.901  1.00  0.00    -0.054 NA
HETATM    9  C   UNL     1      40.349 -12.414   4.927  1.00  0.00     0.202 C 
HETATM   10  C   UNL     1      41.577 -13.122   5.493  1.00  0.00     0.062 C 
HETATM   11  H   UNL     1      42.772 -10.778   7.447  1.00  0.00     0.184 HD
ENDROOT
BRANCH  10  12
HETATM   12  C   UNL     1      41.643 -14.568   5.144  1.00  0.00     0.256 C 
HETATM   13  N   UNL     1      42.648 -14.892   4.259  1.00  0.00    -0.323 N 
HETATM   14  H   UNL     1      43.192 -14.129   3.876  1.00  0.00     0.169 HD
HETATM   15  O   UNL     1      40.802 -15.321   5.620  1.00  0.00    -0.267 OA
BRANCH  13  16
HETATM   16  C   UNL     1      43.038 -16.189   3.859  1.00  0.00     0.035 A 
HETATM   17  C   UNL     1      42.667 -16.778   2.650  1.00  0.00     0.032 A 
HETATM   18  C   UNL     1      43.071 -18.082   2.343  1.00  0.00     0.039 A 
HETATM   19  C   UNL     1      43.850 -18.821   3.234  1.00  0.00     0.068 A 
HETATM   20  C   UNL     1      44.222 -18.242   4.444  1.00  0.00     0.039 A 
HETATM   21  C   UNL     1      43.821 -16.932   4.751  1.00  0.00     0.032 A 
BRANCH  19  22
HETATM   22  O   UNL     1      44.167 -20.080   2.807  1.00  0.00    -0.356 OA
HETATM   23  C   UNL     1      43.517 -20.546   1.632  1.00  0.00     0.210 C 
ENDBRANCH  19  22
ENDBRANCH  13  16
ENDBRANCH  10  12
BRANCH   9  24
HETATM   24  C   UNL     1      40.463 -12.186   3.418  1.00  0.00    -0.028 A 
HETATM   25  C   UNL     1      41.481 -11.389   2.861  1.00  0.00     0.011 A 
HETATM   26  C   UNL     1      41.548 -11.180   1.481  1.00  0.00     0.024 A 
HETATM   27  C   UNL     1      40.609 -11.777   0.643  1.00  0.00     0.034 A 
HETATM   28 CL   UNL     1      40.689 -11.509  -1.054  1.00  0.00    -0.084 Cl
HETATM   29  C   UNL     1      39.609 -12.587   1.173  1.00  0.00     0.024 A 
HETATM   30  C   UNL     1      39.537 -12.794   2.552  1.00  0.00     0.011 A 
ENDBRANCH   9  24
TORSDOF 4
ENDMDL
MODEL 5
REMARK VINA RESULT:      -7.8      3.671      6.813
REMARK  4 active torsions:
REMARK  status: ('A' for Active; 'I' for Inactive)
REMARK    1  A    between atoms: C_9  and  C_10 
REMARK    2  A    between atoms: C_17  and  C_18 
REMARK       I    between atoms: C_18  and  N_19 
REMARK    3  A    between atoms: N_19  and  C_20 
REMARK    4  A    between atoms: C_23  and  O_24 
ROOT
HETATM    1  C   UNL     1      39.812 -10.482   6.393  1.00  0.00     0.070 C 
HETATM    2  C   UNL     1      41.164 -11.150   6.351  1.00  0.00     0.037 C 
HETATM    3  N   UNL     1      42.100 -10.658   7.258  1.00  0.00    -0.192 N 
HETATM    4  C   UNL     1      43.423 -10.895   7.141  1.00  0.00     0.725 A 
HETATM    5  N   UNL     1      43.858 -11.825   6.236  1.00  0.00    -0.084 N 
HETATM    6  N   UNL     1      45.205 -11.869   6.186  1.00  0.00    -0.149 NA
HETATM    7  C   UNL     1      45.514 -10.965   7.122  1.00  0.00     0.275 A 
HETATM    8  N   UNL     1      44.452 -10.351   7.735  1.00  0.00    -0.054 NA
HETATM    9  C   UNL     1      42.963 -12.636   5.402  1.00  0.00     0.202 C 
HETATM   10  C   UNL     1      41.533 -12.105   5.457  1.00  0.00     0.062 C 
HETATM   11  H   UNL     1      41.819  -9.872   7.839  1.00  0.00     0.184 HD
ENDROOT
BRANCH  10  12
HETATM   12  C   UNL     1      40.670 -12.603   4.352  1.00  0.00     0.256 C 
HETATM   13  N   UNL     1      41.208 -12.440   3.094  1.00  0.00    -0.323 N 
HETATM   14  H   UNL     1      42.087 -11.943   3.027  1.00  0.00     0.169 HD
HETATM   15  O   UNL     1      39.570 -13.061   4.634  1.00  0.00    -0.267 OA
BRANCH  13  16
HETATM   16  C   UNL     1      40.688 -12.938   1.879  1.00  0.00     0.035 A 
HETATM   17  C   UNL     1      39.944 -12.176   0.978  1.00  0.00     0.032 A 
HETATM   18  C   UNL     1      39.437 -12.754  -0.190  1.00  0.00     0.039 A 
HETATM   19  C   UNL     1      39.660 -14.101  -0.481  1.00  0.00     0.068 A 
HETATM   20  C   UNL     1      40.399 -14.869   0.416  1.00  0.00     0.039 A 
HETATM   21  C   UNL     1      40.912 -14.289   1.586  1.00  0.00     0.032 A 
BRANCH  19  22
HETATM   22  O   UNL     1      39.104 -14.533  -1.651  1.00  0.00    -0.356 OA
HETATM   23  C   UNL     1      38.228 -13.635  -2.319  1.00  0.00     0.210 C 
ENDBRANCH  19  22
ENDBRANCH  13  16
ENDBRANCH  10  12
BRANCH   9  24
HETATM   24  C   UNL     1      43.045 -14.108   5.815  1.00  0.00    -0.028 A 
HETATM   25  C   UNL     1      42.966 -14.507   7.163  1.00  0.00     0.011 A 
HETATM   26  C   UNL     1      43.065 -15.855   7.514  1.00  0.00     0.024 A 
HETATM   27  C   UNL     1      43.229 -16.819   6.522  1.00  0.00     0.034 A 
HETATM   28 CL   UNL     1      43.362 -18.478   6.958  1.00  0.00    -0.084 Cl
HETATM   29  C   UNL     1      43.287 -16.447   5.182  1.00  0.00     0.024 A 
HETATM   30  C   UNL     1      43.191 -15.099   4.829  1.00  0.00     0.011 A 
ENDBRANCH   9  24
TORSDOF 4
ENDMDL
MODEL 6
REMARK VINA RESULT:      -7.8      3.655      6.664
REMARK  4 active torsions:
REMARK  status: ('A' for Active; 'I' for Inactive)
REMARK    1  A    between atoms: C_9  and  C_10 
REMARK    2  A    between atoms: C_17  and  C_18 
REMARK       I    between atoms: C_18  and  N_19 
REMARK    3  A    between atoms: N_19  and  C_20 
REMARK    4  A    between atoms: C_23  and  O_24 
ROOT
HETATM    1  C   UNL     1      41.740 -10.165  -0.601  1.00  0.00     0.070 C 
HETATM    2  C   UNL     1      41.229 -11.585  -0.582  1.00  0.00     0.037 C 
HETATM    3  N   UNL     1      41.094 -12.186  -1.832  1.00  0.00    -0.192 N 
HETATM    4  C   UNL     1      40.357 -13.298  -2.029  1.00  0.00     0.725 A 
HETATM    5  N   UNL     1      39.897 -13.997  -0.946  1.00  0.00    -0.084 N 
HETATM    6  N   UNL     1      39.106 -15.023  -1.323  1.00  0.00    -0.149 NA
HETATM    7  C   UNL     1      39.170 -14.905  -2.654  1.00  0.00     0.275 A 
HETATM    8  N   UNL     1      39.931 -13.866  -3.127  1.00  0.00    -0.054 NA
HETATM    9  C   UNL     1      40.200 -13.642   0.446  1.00  0.00     0.202 C 
HETATM   10  C   UNL     1      40.826 -12.252   0.531  1.00  0.00     0.062 C 
HETATM   11  H   UNL     1      41.307 -11.618  -2.649  1.00  0.00     0.184 HD
ENDROOT
BRANCH  10  12
HETATM   12  C   UNL     1      40.786 -11.664   1.897  1.00  0.00     0.256 C 
HETATM   13  N   UNL     1      39.602 -11.872   2.570  1.00  0.00    -0.323 N 
HETATM   14  H   UNL     1      38.855 -12.331   2.063  1.00  0.00     0.169 HD
HETATM   15  O   UNL     1      41.757 -11.026   2.285  1.00  0.00    -0.267 OA
BRANCH  13  16
HETATM   16  C   UNL     1      39.327 -11.557   3.919  1.00  0.00     0.035 A 
HETATM   17  C   UNL     1      38.730 -10.367   4.336  1.00  0.00     0.032 A 
HETATM   18  C   UNL     1      38.521 -10.118   5.697  1.00  0.00     0.039 A 
HETATM   19  C   UNL     1      38.903 -11.048   6.665  1.00  0.00     0.068 A 
HETATM   20  C   UNL     1      39.503 -12.236   6.256  1.00  0.00     0.039 A 
HETATM   21  C   UNL     1      39.710 -12.489   4.892  1.00  0.00     0.032 A 
BRANCH  19  22
HETATM   22  O   UNL     1      38.644 -10.672   7.953  1.00  0.00    -0.356 OA
HETATM   23  C   UNL     1      39.462  -9.649   8.503  1.00  0.00     0.210 C 
ENDBRANCH  19  22
ENDBRANCH  13  16
ENDBRANCH  10  12
BRANCH   9  24
HETATM   24  C   UNL     1      41.089 -14.712   1.083  1.00  0.00    -0.028 A 
HETATM   25  C   UNL     1      42.494 -14.640   1.028  1.00  0.00     0.011 A 
HETATM   26  C   UNL     1      43.282 -15.642   1.599  1.00  0.00     0.024 A 
HETATM   27  C   UNL     1      42.676 -16.717   2.245  1.00  0.00     0.034 A 
HETATM   28 CL   UNL     1      43.648 -17.955   2.938  1.00  0.00    -0.084 Cl
HETATM   29  C   UNL     1      41.288 -16.794   2.330  1.00  0.00     0.024 A 
HETATM   30  C   UNL     1      40.498 -15.795   1.756  1.00  0.00     0.011 A 
ENDBRANCH   9  24
TORSDOF 4
ENDMDL
MODEL 7
REMARK VINA RESULT:      -7.6      3.642      6.359
REMARK  4 active torsions:
REMARK  status: ('A' for Active; 'I' for Inactive)
REMARK    1  A    between atoms: C_9  and  C_10 
REMARK    2  A    between atoms: C_17  and  C_18 
REMARK       I    between atoms: C_18  and  N_19 
REMARK    3  A    between atoms: N_19  and  C_20 
REMARK    4  A    between atoms: C_23  and  O_24 
ROOT
HETATM    1  C   UNL     1      41.613 -10.230  -0.084  1.00  0.00     0.070 C 
HETATM    2  C   UNL     1      41.149 -11.662  -0.194  1.00  0.00     0.037 C 
HETATM    3  N   UNL     1      41.076 -12.167  -1.491  1.00  0.00    -0.192 N 
HETATM    4  C   UNL     1      40.383 -13.282  -1.800  1.00  0.00     0.725 A 
HETATM    5  N   UNL     1      39.911 -14.078  -0.792  1.00  0.00    -0.084 N 
HETATM    6  N   UNL     1      39.168 -15.095  -1.276  1.00  0.00    -0.149 NA
HETATM    7  C   UNL     1      39.272 -14.870  -2.591  1.00  0.00     0.275 A 
HETATM    8  N   UNL     1      40.013 -13.774  -2.954  1.00  0.00    -0.054 NA
HETATM    9  C   UNL     1      40.155 -13.825   0.633  1.00  0.00     0.202 C 
HETATM   10  C   UNL     1      40.731 -12.428   0.848  1.00  0.00     0.062 C 
HETATM   11  H   UNL     1      41.296 -11.530  -2.253  1.00  0.00     0.184 HD
ENDROOT
BRANCH  10  12
HETATM   12  C   UNL     1      40.626 -11.951   2.254  1.00  0.00     0.256 C 
HETATM   13  N   UNL     1      41.824 -11.916   2.933  1.00  0.00    -0.323 N 
HETATM   14  H   UNL     1      42.639 -12.278   2.454  1.00  0.00     0.169 HD
HETATM   15  O   UNL     1      39.515 -11.678   2.694  1.00  0.00    -0.267 OA
BRANCH  13  16
HETATM   16  C   UNL     1      42.053 -11.381   4.220  1.00  0.00     0.035 A 
HETATM   17  C   UNL     1      41.718 -10.080   4.595  1.00  0.00     0.032 A 
HETATM   18  C   UNL     1      42.008  -9.616   5.883  1.00  0.00     0.039 A 
HETATM   19  C   UNL     1      42.636 -10.439   6.818  1.00  0.00     0.068 A 
HETATM   20  C   UNL     1      42.977 -11.738   6.450  1.00  0.00     0.039 A 
HETATM   21  C   UNL     1      42.683 -12.206   5.161  1.00  0.00     0.032 A 
BRANCH  19  22
HETATM   22  O   UNL     1      42.863  -9.856   8.033  1.00  0.00    -0.356 OA
HETATM   23  C   UNL     1      43.834 -10.468   8.871  1.00  0.00     0.210 C 
ENDBRANCH  19  22
ENDBRANCH  13  16
ENDBRANCH  10  12
BRANCH   9  24
HETATM   24  C   UNL     1      41.058 -14.914   1.217  1.00  0.00    -0.028 A 
HETATM   25  C   UNL     1      40.541 -15.982   1.973  1.00  0.00     0.011 A 
HETATM   26  C   UNL     1      41.390 -16.951   2.513  1.00  0.00     0.024 A 
HETATM   27  C   UNL     1      42.763 -16.871   2.290  1.00  0.00     0.034 A 
HETATM   28 CL   UNL     1      43.807 -18.059   2.966  1.00  0.00    -0.084 Cl
HETATM   29  C   UNL     1      43.291 -15.835   1.525  1.00  0.00     0.024 A 
HETATM   30  C   UNL     1      42.444 -14.864   0.987  1.00  0.00     0.011 A 
ENDBRANCH   9  24
TORSDOF 4
ENDMDL
MODEL 8
REMARK VINA RESULT:      -7.6      3.367      5.679
REMARK  4 active torsions:
REMARK  status: ('A' for Active; 'I' for Inactive)
REMARK    1  A    between atoms: C_9  and  C_10 
REMARK    2  A    between atoms: C_17  and  C_18 
REMARK       I    between atoms: C_18  and  N_19 
REMARK    3  A    between atoms: N_19  and  C_20 
REMARK    4  A    between atoms: C_23  and  O_24 
ROOT
HETATM    1  C   UNL     1      40.817 -16.208   2.460  1.00  0.00     0.070 C 
HETATM    2  C   UNL     1      40.618 -15.082   1.474  1.00  0.00     0.037 C 
HETATM    3  N   UNL     1      39.729 -15.349   0.436  1.00  0.00    -0.192 N 
HETATM    4  C   UNL     1      39.682 -14.610  -0.691  1.00  0.00     0.725 A 
HETATM    5  N   UNL     1      40.368 -13.427  -0.744  1.00  0.00    -0.084 N 
HETATM    6  N   UNL     1      40.286 -12.866  -1.968  1.00  0.00    -0.149 NA
HETATM    7  C   UNL     1      39.498 -13.750  -2.590  1.00  0.00     0.275 A 
HETATM    8  N   UNL     1      39.101 -14.828  -1.842  1.00  0.00    -0.054 NA
HETATM    9  C   UNL     1      41.126 -12.869   0.382  1.00  0.00     0.202 C 
HETATM   10  C   UNL     1      41.294 -13.904   1.493  1.00  0.00     0.062 C 
HETATM   11  H   UNL     1      39.322 -16.281   0.397  1.00  0.00     0.184 HD
ENDROOT
BRANCH  10  12
HETATM   12  C   UNL     1      42.370 -13.565   2.464  1.00  0.00     0.256 C 
HETATM   13  N   UNL     1      41.941 -12.845   3.557  1.00  0.00    -0.323 N 
HETATM   14  H   UNL     1      40.972 -12.554   3.569  1.00  0.00     0.169 HD
HETATM   15  O   UNL     1      43.518 -13.902   2.202  1.00  0.00    -0.267 OA
BRANCH  13  16
HETATM   16  C   UNL     1      42.700 -12.507   4.699  1.00  0.00     0.035 A 
HETATM   17  C   UNL     1      43.320 -11.271   4.887  1.00  0.00     0.032 A 
HETATM   18  C   UNL     1      44.081 -11.027   6.034  1.00  0.00     0.039 A 
HETATM   19  C   UNL     1      44.239 -12.007   7.014  1.00  0.00     0.068 A 
HETATM   20  C   UNL     1      43.627 -13.245   6.833  1.00  0.00     0.039 A 
HETATM   21  C   UNL     1      42.859 -13.490   5.684  1.00  0.00     0.032 A 
BRANCH  19  22
HETATM   22  O   UNL     1      45.011 -11.634   8.078  1.00  0.00    -0.356 OA
HETATM   23  C   UNL     1      45.979 -10.618   7.847  1.00  0.00     0.210 C 
ENDBRANCH  19  22
ENDBRANCH  13  16
ENDBRANCH  10  12
BRANCH   9  24
HETATM   24  C   UNL     1      40.457 -11.589   0.888  1.00  0.00    -0.028 A 
HETATM   25  C   UNL     1      41.124 -10.349   0.882  1.00  0.00     0.011 A 
HETATM   26  C   UNL     1      40.497  -9.200   1.370  1.00  0.00     0.024 A 
HETATM   27  C   UNL     1      39.194  -9.275   1.855  1.00  0.00     0.034 A 
HETATM   28 CL   UNL     1      38.429  -7.860   2.466  1.00  0.00    -0.084 Cl
HETATM   29  C   UNL     1      38.509 -10.487   1.848  1.00  0.00     0.024 A 
HETATM   30  C   UNL     1      39.135 -11.638   1.364  1.00  0.00     0.011 A 
ENDBRANCH   9  24
TORSDOF 4
ENDMDL
MODEL 9
REMARK VINA RESULT:      -7.3     15.584     17.513
REMARK  4 active torsions:
REMARK  status: ('A' for Active; 'I' for Inactive)
REMARK    1  A    between atoms: C_9  and  C_10 
REMARK    2  A    between atoms: C_17  and  C_18 
REMARK       I    between atoms: C_18  and  N_19 
REMARK    3  A    between atoms: N_19  and  C_20 
REMARK    4  A    between atoms: C_23  and  O_24 
ROOT
HETATM    1  C   UNL     1      47.288 -29.964   3.519  1.00  0.00     0.070 C 
HETATM    2  C   UNL     1      46.092 -30.054   2.602  1.00  0.00     0.037 C 
HETATM    3  N   UNL     1      44.902 -29.552   3.123  1.00  0.00    -0.192 N 
HETATM    4  C   UNL     1      43.696 -29.844   2.595  1.00  0.00     0.725 A 
HETATM    5  N   UNL     1      43.631 -30.471   1.381  1.00  0.00    -0.084 N 
HETATM    6  N   UNL     1      42.358 -30.767   1.048  1.00  0.00    -0.149 NA
HETATM    7  C   UNL     1      41.704 -30.248   2.093  1.00  0.00     0.275 A 
HETATM    8  N   UNL     1      42.486 -29.668   3.060  1.00  0.00    -0.054 NA
HETATM    9  C   UNL     1      44.807 -30.811   0.571  1.00  0.00     0.202 C 
HETATM   10  C   UNL     1      46.092 -30.649   1.381  1.00  0.00     0.062 C 
HETATM   11  H   UNL     1      44.920 -29.210   4.082  1.00  0.00     0.184 HD
ENDROOT
BRANCH  10  12
HETATM   12  C   UNL     1      47.263 -31.347   0.783  1.00  0.00     0.256 C 
HETATM   13  N   UNL     1      48.191 -30.506   0.208  1.00  0.00    -0.323 N 
HETATM   14  H   UNL     1      47.967 -29.520   0.177  1.00  0.00     0.169 HD
HETATM   15  O   UNL     1      47.287 -32.571   0.809  1.00  0.00    -0.267 OA
BRANCH  13  16
HETATM   16  C   UNL     1      49.457 -30.866  -0.306  1.00  0.00     0.035 A 
HETATM   17  C   UNL     1      50.413 -31.586   0.410  1.00  0.00     0.032 A 
HETATM   18  C   UNL     1      51.657 -31.875  -0.161  1.00  0.00     0.039 A 
HETATM   19  C   UNL     1      51.970 -31.452  -1.454  1.00  0.00     0.068 A 
HETATM   20  C   UNL     1      51.022 -30.730  -2.173  1.00  0.00     0.039 A 
HETATM   21  C   UNL     1      49.772 -30.443  -1.603  1.00  0.00     0.032 A 
BRANCH  19  22
HETATM   22  O   UNL     1      53.220 -31.800  -1.883  1.00  0.00    -0.356 OA
HETATM   23  C   UNL     1      53.854 -32.880  -1.211  1.00  0.00     0.210 C 
ENDBRANCH  19  22
ENDBRANCH  13  16
ENDBRANCH  10  12
BRANCH   9  24
HETATM   24  C   UNL     1      44.828 -29.973  -0.710  1.00  0.00    -0.028 A 
HETATM   25  C   UNL     1      44.465 -30.515  -1.957  1.00  0.00     0.011 A 
HETATM   26  C   UNL     1      44.514 -29.734  -3.115  1.00  0.00     0.024 A 
HETATM   27  C   UNL     1      44.910 -28.401  -3.035  1.00  0.00     0.034 A 
HETATM   28 CL   UNL     1      44.980 -27.445  -4.463  1.00  0.00    -0.084 Cl
HETATM   29  C   UNL     1      45.251 -27.841  -1.807  1.00  0.00     0.024 A 
HETATM   30  C   UNL     1      45.206 -28.621  -0.649  1.00  0.00     0.011 A 
ENDBRANCH   9  24
TORSDOF 4
ENDMDL
MODEL 10
REMARK VINA RESULT:      -7.1      7.874     10.729
REMARK  4 active torsions:
REMARK  status: ('A' for Active; 'I' for Inactive)
REMARK    1  A    between atoms: C_9  and  C_10 
REMARK    2  A    between atoms: C_17  and  C_18 
REMARK       I    between atoms: C_18  and  N_19 
REMARK    3  A    between atoms: N_19  and  C_20 
REMARK    4  A    between atoms: C_23  and  O_24 
ROOT
HETATM    1  C   UNL     1      39.067 -10.834  12.330  1.00  0.00     0.070 C 
HETATM    2  C   UNL     1      40.218  -9.857  12.352  1.00  0.00     0.037 C 
HETATM    3  N   UNL     1      40.877  -9.741  13.574  1.00  0.00    -0.192 N 
HETATM    4  C   UNL     1      41.689  -8.704  13.867  1.00  0.00     0.725 A 
HETATM    5  N   UNL     1      42.062  -7.844  12.871  1.00  0.00    -0.084 N 
HETATM    6  N   UNL     1      42.796  -6.820  13.355  1.00  0.00    -0.149 NA
HETATM    7  C   UNL     1      42.859  -7.155  14.648  1.00  0.00     0.275 A 
HETATM    8  N   UNL     1      42.201  -8.305  15.002  1.00  0.00    -0.054 NA
HETATM    9  C   UNL     1      41.673  -8.002  11.464  1.00  0.00     0.202 C 
HETATM   10  C   UNL     1      40.578  -9.055  11.316  1.00  0.00     0.062 C 
HETATM   11  H   UNL     1      40.512 -10.281  14.355  1.00  0.00     0.184 HD
ENDROOT
BRANCH  10  12
HETATM   12  C   UNL     1      39.858  -8.986  10.015  1.00  0.00     0.256 C 
HETATM   13  N   UNL     1      40.486  -9.648   8.984  1.00  0.00    -0.323 N 
HETATM   14  H   UNL     1      41.394 -10.051   9.176  1.00  0.00     0.169 HD
HETATM   15  O   UNL     1      38.824  -8.332   9.956  1.00  0.00    -0.267 OA
BRANCH  13  16
HETATM   16  C   UNL     1      39.975  -9.872   7.686  1.00  0.00     0.035 A 
HETATM   17  C   UNL     1      38.993 -10.815   7.385  1.00  0.00     0.032 A 
HETATM   18  C   UNL     1      38.564 -10.997   6.065  1.00  0.00     0.039 A 
HETATM   19  C   UNL     1      39.106 -10.244   5.024  1.00  0.00     0.068 A 
HETATM   20  C   UNL     1      40.090  -9.302   5.315  1.00  0.00     0.039 A 
HETATM   21  C   UNL     1      40.518  -9.116   6.638  1.00  0.00     0.032 A 
BRANCH  19  22
HETATM   22  O   UNL     1      38.598 -10.528   3.788  1.00  0.00    -0.356 OA
HETATM   23  C   UNL     1      39.289 -11.501   3.015  1.00  0.00     0.210 C 
ENDBRANCH  19  22
ENDBRANCH  13  16
ENDBRANCH  10  12
BRANCH   9  24
HETATM   24  C   UNL     1      42.901  -8.328  10.610  1.00  0.00    -0.028 A 
HETATM   25  C   UNL     1      43.717  -9.443  10.876  1.00  0.00     0.011 A 
HETATM   26  C   UNL     1      44.844  -9.705  10.093  1.00  0.00     0.024 A 
HETATM   27  C   UNL     1      45.159  -8.864   9.028  1.00  0.00     0.034 A 
HETATM   28 CL   UNL     1      46.554  -9.182   8.073  1.00  0.00    -0.084 Cl
HETATM   29  C   UNL     1      44.351  -7.769   8.735  1.00  0.00     0.024 A 
HETATM   30  C   UNL     1      43.225  -7.503   9.518  1.00  0.00     0.011 A 
ENDBRANCH   9  24
TORSDOF 4
ENDMDL
