MODEL 1
REMARK VINA RESULT:      -9.1      0.000      0.000
REMARK  5 active torsions:
REMARK  status: ('A' for Active; 'I' for Inactive)
REMARK    1  A    between atoms: C_2  and  C_3 
REMARK    2  A    between atoms: C_8  and  C_9 
REMARK       I    between atoms: C_9  and  N_10 
REMARK    3  A    between atoms: N_10  and  C_11 
REMARK    4  A    between atoms: C_11  and  C_12 
REMARK    5  A    between atoms: C_19  and  C_20 
ROOT
HETATM    1  C   UNL     1      42.371 -15.377   5.014  1.00  0.00     0.118 C 
HETATM    2  N   UNL     1      43.528 -14.770   5.678  1.00  0.00    -0.366 N 
HETATM    3  C   UNL     1      43.441 -13.482   6.069  1.00  0.00     0.123 A 
HETATM    4  N   UNL     1      42.746 -12.592   5.309  1.00  0.00    -0.240 N 
HETATM    5  N   UNL     1      42.663 -11.361   5.837  1.00  0.00    -0.165 NA
HETATM    6  C   UNL     1      43.433 -11.447   6.948  1.00  0.00     0.148 A 
HETATM    7  C   UNL     1      43.950 -12.765   7.118  1.00  0.00     0.088 A 
HETATM    8  C   UNL     1      42.119 -12.956   4.060  1.00  0.00     0.221 C 
HETATM    9  C   UNL     1      41.572 -14.394   4.127  1.00  0.00     0.066 C 
HETATM   10  H   UNL     1      44.012 -15.425   6.296  1.00  0.00     0.161 HD
ENDROOT
BRANCH   6  11
HETATM   11  C   UNL     1      43.664 -10.295   7.835  1.00  0.00     0.272 C 
HETATM   12  N   UNL     1      42.521  -9.849   8.460  1.00  0.00    -0.353 N 
HETATM   13  H   UNL     1      41.655 -10.250   8.110  1.00  0.00     0.162 HD
HETATM   14  O   UNL     1      44.766  -9.775   7.984  1.00  0.00    -0.266 OA
BRANCH  12  15
HETATM   15  C   UNL     1      42.478  -8.613   9.212  1.00  0.00     0.155 C 
BRANCH  15  16
HETATM   16  C   UNL     1      42.135  -8.844  10.684  1.00  0.00     0.139 C 
HETATM   17  O   UNL     1      42.466 -10.192  11.073  1.00  0.00    -0.384 OA
HETATM   18  C   UNL     1      42.790 -10.182  12.472  1.00  0.00     0.168 C 
HETATM   19  C   UNL     1      42.840  -8.733  12.922  1.00  0.00     0.029 C 
HETATM   20  C   UNL     1      42.938  -7.966  11.626  1.00  0.00     0.035 C 
ENDBRANCH  15  16
ENDBRANCH  12  15
ENDBRANCH   6  11
BRANCH   8  21
HETATM   21  C   UNL     1      43.091 -12.760   2.918  1.00  0.00     0.409 C 
HETATM   22  F   UNL     1      44.135 -11.971   3.262  1.00  0.00    -0.169 F 
HETATM   23  F   UNL     1      43.592 -13.907   2.420  1.00  0.00    -0.169 F 
HETATM   24  F   UNL     1      42.465 -12.130   1.887  1.00  0.00    -0.169 F 
ENDBRANCH   8  21
BRANCH   1  25
HETATM   25  C   UNL     1      42.791 -16.628   4.260  1.00  0.00    -0.035 A 
HETATM   26  C   UNL     1      42.236 -16.899   2.997  1.00  0.00     0.011 A 
HETATM   27  C   UNL     1      42.610 -18.041   2.282  1.00  0.00     0.024 A 
HETATM   28  C   UNL     1      43.547 -18.919   2.821  1.00  0.00     0.034 A 
HETATM   29  C   UNL     1      44.113 -18.665   4.066  1.00  0.00     0.024 A 
HETATM   30 CL   UNL     1      44.003 -20.325   1.942  1.00  0.00    -0.084 Cl
HETATM   31  C   UNL     1      43.736 -17.525   4.782  1.00  0.00     0.011 A 
ENDBRANCH   1  25
TORSDOF 5
ENDMDL
MODEL 2
REMARK VINA RESULT:      -8.6      5.673      8.132
REMARK  5 active torsions:
REMARK  status: ('A' for Active; 'I' for Inactive)
REMARK    1  A    between atoms: C_2  and  C_3 
REMARK    2  A    between atoms: C_8  and  C_9 
REMARK       I    between atoms: C_9  and  N_10 
REMARK    3  A    between atoms: N_10  and  C_11 
REMARK    4  A    between atoms: C_11  and  C_12 
REMARK    5  A    between atoms: C_19  and  C_20 
ROOT
HETATM    1  C   UNL     1      42.922 -16.211   1.619  1.00  0.00     0.118 C 
HETATM    2  N   UNL     1      41.464 -16.131   1.485  1.00  0.00    -0.366 N 
HETATM    3  C   UNL     1      40.924 -14.984   1.025  1.00  0.00     0.123 A 
HETATM    4  N   UNL     1      41.486 -13.791   1.362  1.00  0.00    -0.240 N 
HETATM    5  N   UNL     1      40.911 -12.726   0.783  1.00  0.00    -0.165 NA
HETATM    6  C   UNL     1      39.861 -13.264   0.118  1.00  0.00     0.148 A 
HETATM    7  C   UNL     1      39.830 -14.682   0.259  1.00  0.00     0.088 A 
HETATM    8  C   UNL     1      42.630 -13.688   2.238  1.00  0.00     0.221 C 
HETATM    9  C   UNL     1      43.587 -14.874   2.021  1.00  0.00     0.066 C 
HETATM   10  H   UNL     1      41.051 -17.012   1.173  1.00  0.00     0.161 HD
ENDROOT
BRANCH   6  11
HETATM   11  C   UNL     1      38.909 -12.439  -0.645  1.00  0.00     0.272 C 
HETATM   12  N   UNL     1      39.201 -12.369  -1.988  1.00  0.00    -0.353 N 
HETATM   13  H   UNL     1      40.109 -12.743  -2.251  1.00  0.00     0.162 HD
HETATM   14  O   UNL     1      37.960 -11.858  -0.125  1.00  0.00    -0.266 OA
BRANCH  12  15
HETATM   15  C   UNL     1      38.522 -11.458  -2.885  1.00  0.00     0.155 C 
BRANCH  15  16
HETATM   16  C   UNL     1      39.314 -10.169  -3.107  1.00  0.00     0.139 C 
HETATM   17  O   UNL     1      39.057  -9.229  -2.045  1.00  0.00    -0.384 OA
HETATM   18  C   UNL     1      40.226  -8.411  -1.885  1.00  0.00     0.168 C 
HETATM   19  C   UNL     1      41.319  -8.994  -2.764  1.00  0.00     0.029 C 
HETATM   20  C   UNL     1      40.816 -10.382  -3.074  1.00  0.00     0.035 C 
ENDBRANCH  15  16
ENDBRANCH  12  15
ENDBRANCH   6  11
BRANCH   8  21
HETATM   21  C   UNL     1      42.172 -13.570   3.674  1.00  0.00     0.409 C 
HETATM   22  F   UNL     1      41.738 -12.324   3.974  1.00  0.00    -0.169 F 
HETATM   23  F   UNL     1      41.195 -14.435   4.012  1.00  0.00    -0.169 F 
HETATM   24  F   UNL     1      43.216 -13.817   4.510  1.00  0.00    -0.169 F 
ENDBRANCH   8  21
BRANCH   1  25
HETATM   25  C   UNL     1      43.304 -17.352   2.548  1.00  0.00    -0.035 A 
HETATM   26  C   UNL     1      43.612 -17.081   3.892  1.00  0.00     0.011 A 
HETATM   27  C   UNL     1      43.963 -18.114   4.767  1.00  0.00     0.024 A 
HETATM   28  C   UNL     1      44.002 -19.428   4.307  1.00  0.00     0.034 A 
HETATM   29  C   UNL     1      43.694 -19.717   2.982  1.00  0.00     0.024 A 
HETATM   30 CL   UNL     1      44.438 -20.696   5.384  1.00  0.00    -0.084 Cl
HETATM   31  C   UNL     1      43.347 -18.683   2.107  1.00  0.00     0.011 A 
ENDBRANCH   1  25
TORSDOF 5
ENDMDL
MODEL 3
REMARK VINA RESULT:      -8.5      1.347      2.302
REMARK  5 active torsions:
REMARK  status: ('A' for Active; 'I' for Inactive)
REMARK    1  A    between atoms: C_2  and  C_3 
REMARK    2  A    between atoms: C_8  and  C_9 
REMARK       I    between atoms: C_9  and  N_10 
REMARK    3  A    between atoms: N_10  and  C_11 
REMARK    4  A    between atoms: C_11  and  C_12 
REMARK    5  A    between atoms: C_19  and  C_20 
ROOT
HETATM    1  C   UNL     1      42.361 -15.504   4.960  1.00  0.00     0.118 C 
HETATM    2  N   UNL     1      43.520 -14.880   5.604  1.00  0.00    -0.366 N 
HETATM    3  C   UNL     1      43.421 -13.594   5.997  1.00  0.00     0.123 A 
HETATM    4  N   UNL     1      42.701 -12.713   5.250  1.00  0.00    -0.240 N 
HETATM    5  N   UNL     1      42.608 -11.484   5.780  1.00  0.00    -0.165 NA
HETATM    6  C   UNL     1      43.398 -11.559   6.878  1.00  0.00     0.148 A 
HETATM    7  C   UNL     1      43.938 -12.869   7.038  1.00  0.00     0.088 A 
HETATM    8  C   UNL     1      42.057 -13.086   4.012  1.00  0.00     0.221 C 
HETATM    9  C   UNL     1      41.533 -14.532   4.088  1.00  0.00     0.066 C 
HETATM   10  H   UNL     1      44.025 -15.527   6.213  1.00  0.00     0.161 HD
ENDROOT
BRANCH   6  11
HETATM   11  C   UNL     1      43.628 -10.404   7.760  1.00  0.00     0.272 C 
HETATM   12  N   UNL     1      42.493  -9.983   8.415  1.00  0.00    -0.353 N 
HETATM   13  H   UNL     1      41.626 -10.401   8.087  1.00  0.00     0.162 HD
HETATM   14  O   UNL     1      44.722  -9.861   7.883  1.00  0.00    -0.266 OA
BRANCH  12  15
HETATM   15  C   UNL     1      42.443  -8.749   9.171  1.00  0.00     0.155 C 
BRANCH  15  16
HETATM   16  C   UNL     1      41.718  -7.636   8.413  1.00  0.00     0.139 C 
HETATM   17  O   UNL     1      42.615  -6.987   7.491  1.00  0.00    -0.384 OA
HETATM   18  C   UNL     1      41.837  -6.497   6.388  1.00  0.00     0.168 C 
HETATM   19  C   UNL     1      40.424  -7.029   6.549  1.00  0.00     0.029 C 
HETATM   20  C   UNL     1      40.584  -8.150   7.546  1.00  0.00     0.035 C 
ENDBRANCH  15  16
ENDBRANCH  12  15
ENDBRANCH   6  11
BRANCH   8  21
HETATM   21  C   UNL     1      43.006 -12.875   2.853  1.00  0.00     0.409 C 
HETATM   22  F   UNL     1      43.932 -11.924   3.115  1.00  0.00    -0.169 F 
HETATM   23  F   UNL     1      43.660 -13.989   2.469  1.00  0.00    -0.169 F 
HETATM   24  F   UNL     1      42.313 -12.439   1.767  1.00  0.00    -0.169 F 
ENDBRANCH   8  21
BRANCH   1  25
HETATM   25  C   UNL     1      42.786 -16.748   4.198  1.00  0.00    -0.035 A 
HETATM   26  C   UNL     1      42.274 -16.985   2.911  1.00  0.00     0.011 A 
HETATM   27  C   UNL     1      42.654 -18.120   2.188  1.00  0.00     0.024 A 
HETATM   28  C   UNL     1      43.555 -19.025   2.744  1.00  0.00     0.034 A 
HETATM   29  C   UNL     1      44.078 -18.805   4.014  1.00  0.00     0.024 A 
HETATM   30 CL   UNL     1      44.017 -20.424   1.855  1.00  0.00    -0.084 Cl
HETATM   31  C   UNL     1      43.695 -17.672   4.737  1.00  0.00     0.011 A 
ENDBRANCH   1  25
TORSDOF 5
ENDMDL
MODEL 4
REMARK VINA RESULT:      -8.5      4.929      9.701
REMARK  5 active torsions:
REMARK  status: ('A' for Active; 'I' for Inactive)
REMARK    1  A    between atoms: C_2  and  C_3 
REMARK    2  A    between atoms: C_8  and  C_9 
REMARK       I    between atoms: C_9  and  N_10 
REMARK    3  A    between atoms: N_10  and  C_11 
REMARK    4  A    between atoms: C_11  and  C_12 
REMARK    5  A    between atoms: C_19  and  C_20 
ROOT
HETATM    1  C   UNL     1      42.605 -10.092  10.890  1.00  0.00     0.118 C 
HETATM    2  N   UNL     1      42.131  -9.309   9.746  1.00  0.00    -0.366 N 
HETATM    3  C   UNL     1      42.452  -9.727   8.504  1.00  0.00     0.123 A 
HETATM    4  N   UNL     1      43.665 -10.302   8.279  1.00  0.00    -0.240 N 
HETATM    5  N   UNL     1      43.842 -10.749   7.026  1.00  0.00    -0.165 NA
HETATM    6  C   UNL     1      42.715 -10.346   6.392  1.00  0.00     0.148 A 
HETATM    7  C   UNL     1      41.824  -9.687   7.289  1.00  0.00     0.088 A 
HETATM    8  C   UNL     1      44.661 -10.454   9.316  1.00  0.00     0.221 C 
HETATM    9  C   UNL     1      43.991 -10.742  10.672  1.00  0.00     0.066 C 
HETATM   10  H   UNL     1      41.194  -8.929   9.893  1.00  0.00     0.161 HD
ENDROOT
BRANCH   6  11
HETATM   11  C   UNL     1      42.491 -10.591   4.958  1.00  0.00     0.272 C 
HETATM   12  N   UNL     1      42.952 -11.818   4.535  1.00  0.00    -0.353 N 
HETATM   13  H   UNL     1      43.528 -12.317   5.209  1.00  0.00     0.162 HD
HETATM   14  O   UNL     1      41.962  -9.772   4.213  1.00  0.00    -0.266 OA
BRANCH  12  15
HETATM   15  C   UNL     1      43.019 -12.184   3.136  1.00  0.00     0.155 C 
BRANCH  15  16
HETATM   16  C   UNL     1      42.563 -13.623   2.893  1.00  0.00     0.139 C 
HETATM   17  O   UNL     1      43.289 -14.204   1.792  1.00  0.00    -0.384 OA
HETATM   18  C   UNL     1      43.375 -15.619   2.015  1.00  0.00     0.168 C 
HETATM   19  C   UNL     1      42.837 -15.899   3.407  1.00  0.00     0.029 C 
HETATM   20  C   UNL     1      42.850 -14.542   4.067  1.00  0.00     0.035 C 
ENDBRANCH  15  16
ENDBRANCH  12  15
ENDBRANCH   6  11
BRANCH   8  21
HETATM   21  C   UNL     1      45.551  -9.232   9.359  1.00  0.00     0.409 C 
HETATM   22  F   UNL     1      46.559  -9.299   8.459  1.00  0.00    -0.169 F 
HETATM   23  F   UNL     1      44.899  -8.070   9.156  1.00  0.00    -0.169 F 
HETATM   24  F   UNL     1      46.141  -9.138  10.581  1.00  0.00    -0.169 F 
ENDBRANCH   8  21
BRANCH   1  25
HETATM   25  C   UNL     1      42.549  -9.258  12.159  1.00  0.00    -0.035 A 
HETATM   26  C   UNL     1      41.627  -9.587  13.168  1.00  0.00     0.011 A 
HETATM   27  C   UNL     1      41.560  -8.838  14.347  1.00  0.00     0.024 A 
HETATM   28  C   UNL     1      42.418  -7.757  14.530  1.00  0.00     0.034 A 
HETATM   29  C   UNL     1      43.342  -7.419  13.546  1.00  0.00     0.024 A 
HETATM   30 CL   UNL     1      42.331  -6.833  15.979  1.00  0.00    -0.084 Cl
HETATM   31  C   UNL     1      43.407  -8.167  12.367  1.00  0.00     0.011 A 
ENDBRANCH   1  25
TORSDOF 5
ENDMDL
MODEL 5
REMARK VINA RESULT:      -8.4      5.033      7.407
REMARK  5 active torsions:
REMARK  status: ('A' for Active; 'I' for Inactive)
REMARK    1  A    between atoms: C_2  and  C_3 
REMARK    2  A    between atoms: C_8  and  C_9 
REMARK       I    between atoms: C_9  and  N_10 
REMARK    3  A    between atoms: N_10  and  C_11 
REMARK    4  A    between atoms: C_11  and  C_12 
REMARK    5  A    between atoms: C_19  and  C_20 
ROOT
HETATM    1  C   UNL     1      42.711 -15.768   3.301  1.00  0.00     0.118 C 
HETATM    2  N   UNL     1      41.370 -15.658   2.721  1.00  0.00    -0.366 N 
HETATM    3  C   UNL     1      40.685 -14.510   2.901  1.00  0.00     0.123 A 
HETATM    4  N   UNL     1      40.806 -13.828   4.073  1.00  0.00    -0.240 N 
HETATM    5  N   UNL     1      40.140 -12.664   4.108  1.00  0.00    -0.165 NA
HETATM    6  C   UNL     1      39.477 -12.651   2.927  1.00  0.00     0.148 A 
HETATM    7  C   UNL     1      39.785 -13.805   2.147  1.00  0.00     0.088 A 
HETATM    8  C   UNL     1      41.617 -14.304   5.171  1.00  0.00     0.221 C 
HETATM    9  C   UNL     1      42.874 -15.019   4.644  1.00  0.00     0.066 C 
HETATM   10  H   UNL     1      41.298 -16.118   1.811  1.00  0.00     0.161 HD
ENDROOT
BRANCH   6  11
HETATM   11  C   UNL     1      38.572 -11.554   2.547  1.00  0.00     0.272 C 
HETATM   12  N   UNL     1      37.681 -11.900   1.556  1.00  0.00    -0.353 N 
HETATM   13  H   UNL     1      37.866 -12.791   1.102  1.00  0.00     0.162 HD
HETATM   14  O   UNL     1      38.623 -10.437   3.053  1.00  0.00    -0.266 OA
BRANCH  12  15
HETATM   15  C   UNL     1      36.840 -10.926   0.892  1.00  0.00     0.155 C 
BRANCH  15  16
HETATM   16  C   UNL     1      37.233 -10.728  -0.573  1.00  0.00     0.139 C 
HETATM   17  O   UNL     1      38.352  -9.825  -0.677  1.00  0.00    -0.384 OA
HETATM   18  C   UNL     1      39.096 -10.177  -1.853  1.00  0.00     0.168 C 
HETATM   19  C   UNL     1      38.514 -11.470  -2.397  1.00  0.00     0.029 C 
HETATM   20  C   UNL     1      37.709 -12.006  -1.238  1.00  0.00     0.035 C 
ENDBRANCH  15  16
ENDBRANCH  12  15
ENDBRANCH   6  11
BRANCH   8  21
HETATM   21  C   UNL     1      40.789 -15.183   6.081  1.00  0.00     0.409 C 
HETATM   22  F   UNL     1      40.251 -16.237   5.426  1.00  0.00    -0.169 F 
HETATM   23  F   UNL     1      41.465 -15.663   7.143  1.00  0.00    -0.169 F 
HETATM   24  F   UNL     1      39.742 -14.472   6.577  1.00  0.00    -0.169 F 
ENDBRANCH   8  21
BRANCH   1  25
HETATM   25  C   UNL     1      43.127 -17.226   3.395  1.00  0.00    -0.035 A 
HETATM   26  C   UNL     1      43.652 -17.724   4.600  1.00  0.00     0.011 A 
HETATM   27  C   UNL     1      44.038 -19.063   4.713  1.00  0.00     0.024 A 
HETATM   28  C   UNL     1      43.897 -19.918   3.623  1.00  0.00     0.034 A 
HETATM   29  C   UNL     1      43.373 -19.447   2.423  1.00  0.00     0.024 A 
HETATM   30 CL   UNL     1      44.376 -21.565   3.762  1.00  0.00    -0.084 Cl
HETATM   31  C   UNL     1      42.991 -18.107   2.311  1.00  0.00     0.011 A 
ENDBRANCH   1  25
TORSDOF 5
ENDMDL
MODEL 6
REMARK VINA RESULT:      -8.0      2.425      3.053
REMARK  5 active torsions:
REMARK  status: ('A' for Active; 'I' for Inactive)
REMARK    1  A    between atoms: C_2  and  C_3 
REMARK    2  A    between atoms: C_8  and  C_9 
REMARK       I    between atoms: C_9  and  N_10 
REMARK    3  A    between atoms: N_10  and  C_11 
REMARK    4  A    between atoms: C_11  and  C_12 
REMARK    5  A    between atoms: C_19  and  C_20 
ROOT
HETATM    1  C   UNL     1      42.173 -13.664   3.827  1.00  0.00     0.118 C 
HETATM    2  N   UNL     1      41.229 -13.692   4.947  1.00  0.00    -0.366 N 
HETATM    3  C   UNL     1      41.009 -12.550   5.631  1.00  0.00     0.123 A 
HETATM    4  N   UNL     1      42.034 -11.677   5.832  1.00  0.00    -0.240 N 
HETATM    5  N   UNL     1      41.680 -10.543   6.456  1.00  0.00    -0.165 NA
HETATM    6  C   UNL     1      40.376 -10.749   6.758  1.00  0.00     0.148 A 
HETATM    7  C   UNL     1      39.924 -12.009   6.266  1.00  0.00     0.088 A 
HETATM    8  C   UNL     1      43.380 -11.936   5.374  1.00  0.00     0.221 C 
HETATM    9  C   UNL     1      43.359 -12.694   4.034  1.00  0.00     0.066 C 
HETATM   10  H   UNL     1      40.428 -14.302   4.769  1.00  0.00     0.161 HD
ENDROOT
BRANCH   6  11
HETATM   11  C   UNL     1      39.575  -9.759   7.496  1.00  0.00     0.272 C 
HETATM   12  N   UNL     1      39.927  -9.651   8.822  1.00  0.00    -0.353 N 
HETATM   13  H   UNL     1      40.562 -10.370   9.159  1.00  0.00     0.162 HD
HETATM   14  O   UNL     1      38.671  -9.109   6.979  1.00  0.00    -0.266 OA
BRANCH  12  15
HETATM   15  C   UNL     1      39.144  -8.892   9.775  1.00  0.00     0.155 C 
BRANCH  15  16
HETATM   16  C   UNL     1      39.816  -8.822  11.148  1.00  0.00     0.139 C 
HETATM   17  O   UNL     1      40.631  -9.990  11.371  1.00  0.00    -0.384 OA
HETATM   18  C   UNL     1      41.709  -9.617  12.242  1.00  0.00     0.168 C 
HETATM   19  C   UNL     1      41.660  -8.109  12.415  1.00  0.00     0.029 C 
HETATM   20  C   UNL     1      40.775  -7.654  11.280  1.00  0.00     0.035 C 
ENDBRANCH  15  16
ENDBRANCH  12  15
ENDBRANCH   6  11
BRANCH   8  21
HETATM   21  C   UNL     1      44.156 -12.671   6.443  1.00  0.00     0.409 C 
HETATM   22  F   UNL     1      44.159 -14.010   6.246  1.00  0.00    -0.169 F 
HETATM   23  F   UNL     1      45.438 -12.273   6.563  1.00  0.00    -0.169 F 
HETATM   24  F   UNL     1      43.572 -12.469   7.655  1.00  0.00    -0.169 F 
ENDBRANCH   8  21
BRANCH   1  25
HETATM   25  C   UNL     1      42.628 -15.072   3.485  1.00  0.00    -0.035 A 
HETATM   26  C   UNL     1      42.702 -16.045   4.496  1.00  0.00     0.011 A 
HETATM   27  C   UNL     1      43.114 -17.349   4.206  1.00  0.00     0.024 A 
HETATM   28  C   UNL     1      43.448 -17.694   2.899  1.00  0.00     0.034 A 
HETATM   29  C   UNL     1      43.375 -16.748   1.882  1.00  0.00     0.024 A 
HETATM   30 CL   UNL     1      43.959 -19.298   2.544  1.00  0.00    -0.084 Cl
HETATM   31  C   UNL     1      42.967 -15.443   2.174  1.00  0.00     0.011 A 
ENDBRANCH   1  25
TORSDOF 5
ENDMDL
MODEL 7
REMARK VINA RESULT:      -7.9      5.555      7.448
REMARK  5 active torsions:
REMARK  status: ('A' for Active; 'I' for Inactive)
REMARK    1  A    between atoms: C_2  and  C_3 
REMARK    2  A    between atoms: C_8  and  C_9 
REMARK       I    between atoms: C_9  and  N_10 
REMARK    3  A    between atoms: N_10  and  C_11 
REMARK    4  A    between atoms: C_11  and  C_12 
REMARK    5  A    between atoms: C_19  and  C_20 
ROOT
HETATM    1  C   UNL     1      42.949 -15.997   1.758  1.00  0.00     0.118 C 
HETATM    2  N   UNL     1      41.536 -16.060   1.375  1.00  0.00    -0.366 N 
HETATM    3  C   UNL     1      40.940 -14.935   0.929  1.00  0.00     0.123 A 
HETATM    4  N   UNL     1      41.284 -13.732   1.466  1.00  0.00    -0.240 N 
HETATM    5  N   UNL     1      40.684 -12.678   0.891  1.00  0.00    -0.165 NA
HETATM    6  C   UNL     1      39.835 -13.250   0.004  1.00  0.00     0.148 A 
HETATM    7  C   UNL     1      39.960 -14.671   0.011  1.00  0.00     0.088 A 
HETATM    8  C   UNL     1      42.244 -13.602   2.538  1.00  0.00     0.221 C 
HETATM    9  C   UNL     1      43.365 -14.647   2.390  1.00  0.00     0.066 C 
HETATM   10  H   UNL     1      41.294 -16.941   0.916  1.00  0.00     0.161 HD
ENDROOT
BRANCH   6  11
HETATM   11  C   UNL     1      38.928 -12.455  -0.839  1.00  0.00     0.272 C 
HETATM   12  N   UNL     1      39.159 -11.100  -0.764  1.00  0.00    -0.353 N 
HETATM   13  H   UNL     1      39.796 -10.813  -0.025  1.00  0.00     0.162 HD
HETATM   14  O   UNL     1      38.042 -12.955  -1.526  1.00  0.00    -0.266 OA
BRANCH  12  15
HETATM   15  C   UNL     1      38.262 -10.124  -1.347  1.00  0.00     0.155 C 
BRANCH  15  16
HETATM   16  C   UNL     1      37.253  -9.588  -0.332  1.00  0.00     0.139 C 
HETATM   17  O   UNL     1      37.796  -9.650   1.001  1.00  0.00    -0.384 OA
HETATM   18  C   UNL     1      37.206  -8.591   1.770  1.00  0.00     0.168 C 
HETATM   19  C   UNL     1      36.401  -7.725   0.818  1.00  0.00     0.029 C 
HETATM   20  C   UNL     1      36.921  -8.122  -0.542  1.00  0.00     0.035 C 
ENDBRANCH  15  16
ENDBRANCH  12  15
ENDBRANCH   6  11
BRANCH   8  21
HETATM   21  C   UNL     1      41.542 -13.692   3.874  1.00  0.00     0.409 C 
HETATM   22  F   UNL     1      40.925 -12.536   4.209  1.00  0.00    -0.169 F 
HETATM   23  F   UNL     1      40.628 -14.679   3.948  1.00  0.00    -0.169 F 
HETATM   24  F   UNL     1      42.453 -13.932   4.855  1.00  0.00    -0.169 F 
ENDBRANCH   8  21
BRANCH   1  25
HETATM   25  C   UNL     1      43.311 -17.183   2.635  1.00  0.00    -0.035 A 
HETATM   26  C   UNL     1      43.595 -16.982   3.997  1.00  0.00     0.011 A 
HETATM   27  C   UNL     1      43.927 -18.059   4.825  1.00  0.00     0.024 A 
HETATM   28  C   UNL     1      43.971 -19.348   4.300  1.00  0.00     0.034 A 
HETATM   29  C   UNL     1      43.687 -19.569   2.956  1.00  0.00     0.024 A 
HETATM   30 CL   UNL     1      44.384 -20.671   5.319  1.00  0.00    -0.084 Cl
HETATM   31  C   UNL     1      43.359 -18.491   2.128  1.00  0.00     0.011 A 
ENDBRANCH   1  25
TORSDOF 5
ENDMDL
MODEL 8
REMARK VINA RESULT:      -7.9      6.394      9.560
REMARK  5 active torsions:
REMARK  status: ('A' for Active; 'I' for Inactive)
REMARK    1  A    between atoms: C_2  and  C_3 
REMARK    2  A    between atoms: C_8  and  C_9 
REMARK       I    between atoms: C_9  and  N_10 
REMARK    3  A    between atoms: N_10  and  C_11 
REMARK    4  A    between atoms: C_11  and  C_12 
REMARK    5  A    between atoms: C_19  and  C_20 
ROOT
HETATM    1  C   UNL     1      39.023 -11.188   0.278  1.00  0.00     0.118 C 
HETATM    2  N   UNL     1      38.826 -12.120   1.392  1.00  0.00    -0.366 N 
HETATM    3  C   UNL     1      39.845 -12.934   1.736  1.00  0.00     0.123 A 
HETATM    4  N   UNL     1      40.662 -13.437   0.770  1.00  0.00    -0.240 N 
HETATM    5  N   UNL     1      41.685 -14.169   1.237  1.00  0.00    -0.165 NA
HETATM    6  C   UNL     1      41.448 -14.217   2.570  1.00  0.00     0.148 A 
HETATM    7  C   UNL     1      40.290 -13.462   2.918  1.00  0.00     0.088 A 
HETATM    8  C   UNL     1      40.464 -13.169  -0.636  1.00  0.00     0.221 C 
HETATM    9  C   UNL     1      39.932 -11.739  -0.844  1.00  0.00     0.066 C 
HETATM   10  H   UNL     1      38.262 -11.718   2.144  1.00  0.00     0.161 HD
ENDROOT
BRANCH   6  11
HETATM   11  C   UNL     1      42.316 -14.964   3.495  1.00  0.00     0.272 C 
HETATM   12  N   UNL     1      42.413 -16.303   3.191  1.00  0.00    -0.353 N 
HETATM   13  H   UNL     1      41.756 -16.634   2.489  1.00  0.00     0.162 HD
HETATM   14  O   UNL     1      42.881 -14.443   4.452  1.00  0.00    -0.266 OA
BRANCH  12  15
HETATM   15  C   UNL     1      43.045 -17.259   4.078  1.00  0.00     0.155 C 
BRANCH  15  16
HETATM   16  C   UNL     1      43.720 -18.397   3.312  1.00  0.00     0.139 C 
HETATM   17  O   UNL     1      43.881 -19.550   4.161  1.00  0.00    -0.384 OA
HETATM   18  C   UNL     1      43.847 -20.720   3.330  1.00  0.00     0.168 C 
HETATM   19  C   UNL     1      43.464 -20.278   1.929  1.00  0.00     0.029 C 
HETATM   20  C   UNL     1      42.895 -18.896   2.141  1.00  0.00     0.035 C 
ENDBRANCH  15  16
ENDBRANCH  12  15
ENDBRANCH   6  11
BRANCH   8  21
HETATM   21  C   UNL     1      39.557 -14.217  -1.238  1.00  0.00     0.409 C 
HETATM   22  F   UNL     1      39.954 -14.589  -2.477  1.00  0.00    -0.169 F 
HETATM   23  F   UNL     1      39.439 -15.334  -0.494  1.00  0.00    -0.169 F 
HETATM   24  F   UNL     1      38.303 -13.711  -1.380  1.00  0.00    -0.169 F 
ENDBRANCH   8  21
BRANCH   1  25
HETATM   25  C   UNL     1      37.682 -10.702  -0.247  1.00  0.00    -0.035 A 
HETATM   26  C   UNL     1      36.695 -10.272   0.657  1.00  0.00     0.011 A 
HETATM   27  C   UNL     1      35.455  -9.816   0.198  1.00  0.00     0.024 A 
HETATM   28  C   UNL     1      35.194  -9.781  -1.170  1.00  0.00     0.034 A 
HETATM   29  C   UNL     1      36.160 -10.196  -2.081  1.00  0.00     0.024 A 
HETATM   30 CL   UNL     1      33.667  -9.224  -1.733  1.00  0.00    -0.084 Cl
HETATM   31  C   UNL     1      37.398 -10.654  -1.621  1.00  0.00     0.011 A 
ENDBRANCH   1  25
TORSDOF 5
ENDMDL
MODEL 9
REMARK VINA RESULT:      -7.8      2.985      3.938
REMARK  5 active torsions:
REMARK  status: ('A' for Active; 'I' for Inactive)
REMARK    1  A    between atoms: C_2  and  C_3 
REMARK    2  A    between atoms: C_8  and  C_9 
REMARK       I    between atoms: C_9  and  N_10 
REMARK    3  A    between atoms: N_10  and  C_11 
REMARK    4  A    between atoms: C_11  and  C_12 
REMARK    5  A    between atoms: C_19  and  C_20 
ROOT
HETATM    1  C   UNL     1      42.757 -13.338   2.765  1.00  0.00     0.118 C 
HETATM    2  N   UNL     1      42.445 -12.230   3.672  1.00  0.00    -0.366 N 
HETATM    3  C   UNL     1      43.026 -12.213   4.889  1.00  0.00     0.123 A 
HETATM    4  N   UNL     1      43.244 -13.383   5.549  1.00  0.00    -0.240 N 
HETATM    5  N   UNL     1      43.897 -13.249   6.713  1.00  0.00    -0.165 NA
HETATM    6  C   UNL     1      44.013 -11.906   6.850  1.00  0.00     0.148 A 
HETATM    7  C   UNL     1      43.463 -11.222   5.726  1.00  0.00     0.088 A 
HETATM    8  C   UNL     1      42.841 -14.665   5.017  1.00  0.00     0.221 C 
HETATM    9  C   UNL     1      42.992 -14.687   3.484  1.00  0.00     0.066 C 
HETATM   10  H   UNL     1      42.342 -11.339   3.180  1.00  0.00     0.161 HD
ENDROOT
BRANCH   6  11
HETATM   11  C   UNL     1      44.644 -11.289   8.028  1.00  0.00     0.272 C 
HETATM   12  N   UNL     1      43.744 -10.942   9.010  1.00  0.00    -0.353 N 
HETATM   13  H   UNL     1      42.766 -10.996   8.736  1.00  0.00     0.162 HD
HETATM   14  O   UNL     1      45.852 -11.089   8.113  1.00  0.00    -0.266 OA
BRANCH  12  15
HETATM   15  C   UNL     1      44.116 -10.144  10.160  1.00  0.00     0.155 C 
BRANCH  15  16
HETATM   16  C   UNL     1      42.983  -9.224  10.616  1.00  0.00     0.139 C 
HETATM   17  O   UNL     1      41.879  -9.998  11.125  1.00  0.00    -0.384 OA
HETATM   18  C   UNL     1      41.202  -9.207  12.113  1.00  0.00     0.168 C 
HETATM   19  C   UNL     1      42.036  -7.962  12.356  1.00  0.00     0.029 C 
HETATM   20  C   UNL     1      43.379  -8.320  11.767  1.00  0.00     0.035 C 
ENDBRANCH  15  16
ENDBRANCH  12  15
ENDBRANCH   6  11
BRANCH   8  21
HETATM   21  C   UNL     1      41.433 -14.989   5.464  1.00  0.00     0.409 C 
HETATM   22  F   UNL     1      40.508 -14.644   4.539  1.00  0.00    -0.169 F 
HETATM   23  F   UNL     1      41.240 -16.287   5.771  1.00  0.00    -0.169 F 
HETATM   24  F   UNL     1      41.132 -14.277   6.583  1.00  0.00    -0.169 F 
ENDBRANCH   8  21
BRANCH   1  25
HETATM   25  C   UNL     1      41.706 -13.438   1.672  1.00  0.00    -0.035 A 
HETATM   26  C   UNL     1      41.130 -12.267   1.151  1.00  0.00     0.011 A 
HETATM   27  C   UNL     1      40.164 -12.333   0.142  1.00  0.00     0.024 A 
HETATM   28  C   UNL     1      39.771 -13.571  -0.359  1.00  0.00     0.034 A 
HETATM   29  C   UNL     1      40.334 -14.742   0.139  1.00  0.00     0.024 A 
HETATM   30 CL   UNL     1      38.579 -13.650  -1.597  1.00  0.00    -0.084 Cl
HETATM   31  C   UNL     1      41.297 -14.675   1.150  1.00  0.00     0.011 A 
ENDBRANCH   1  25
TORSDOF 5
ENDMDL
MODEL 10
REMARK VINA RESULT:      -7.7      4.476      9.024
REMARK  5 active torsions:
REMARK  status: ('A' for Active; 'I' for Inactive)
REMARK    1  A    between atoms: C_2  and  C_3 
REMARK    2  A    between atoms: C_8  and  C_9 
REMARK       I    between atoms: C_9  and  N_10 
REMARK    3  A    between atoms: N_10  and  C_11 
REMARK    4  A    between atoms: C_11  and  C_12 
REMARK    5  A    between atoms: C_19  and  C_20 
ROOT
HETATM    1  C   UNL     1      43.302  -9.451   7.906  1.00  0.00     0.118 C 
HETATM    2  N   UNL     1      43.294 -10.912   7.790  1.00  0.00    -0.366 N 
HETATM    3  C   UNL     1      42.946 -11.461   6.608  1.00  0.00     0.123 A 
HETATM    4  N   UNL     1      41.984 -10.870   5.848  1.00  0.00    -0.240 N 
HETATM    5  N   UNL     1      41.777 -11.460   4.660  1.00  0.00    -0.165 NA
HETATM    6  C   UNL     1      42.584 -12.547   4.710  1.00  0.00     0.148 A 
HETATM    7  C   UNL     1      43.325 -12.587   5.927  1.00  0.00     0.088 A 
HETATM    8  C   UNL     1      41.275  -9.684   6.270  1.00  0.00     0.221 C 
HETATM    9  C   UNL     1      42.207  -8.752   7.068  1.00  0.00     0.066 C 
HETATM   10  H   UNL     1      44.056 -11.350   8.312  1.00  0.00     0.161 HD
ENDROOT
BRANCH   6  11
HETATM   11  C   UNL     1      42.652 -13.525   3.611  1.00  0.00     0.272 C 
HETATM   12  N   UNL     1      41.935 -14.674   3.858  1.00  0.00    -0.353 N 
HETATM   13  H   UNL     1      41.598 -14.774   4.813  1.00  0.00     0.162 HD
HETATM   14  O   UNL     1      43.301 -13.337   2.586  1.00  0.00    -0.266 OA
BRANCH  12  15
HETATM   15  C   UNL     1      42.025 -15.844   3.011  1.00  0.00     0.155 C 
BRANCH  15  16
HETATM   16  C   UNL     1      43.272 -16.677   3.308  1.00  0.00     0.139 C 
HETATM   17  O   UNL     1      43.351 -16.984   4.713  1.00  0.00    -0.384 OA
HETATM   18  C   UNL     1      44.041 -18.235   4.856  1.00  0.00     0.168 C 
HETATM   19  C   UNL     1      44.233 -18.815   3.466  1.00  0.00     0.029 C 
HETATM   20  C   UNL     1      43.259 -18.031   2.621  1.00  0.00     0.035 C 
ENDBRANCH  15  16
ENDBRANCH  12  15
ENDBRANCH   6  11
BRANCH   8  21
HETATM   21  C   UNL     1      40.039 -10.072   7.050  1.00  0.00     0.409 C 
HETATM   22  F   UNL     1      38.948  -9.370   6.665  1.00  0.00    -0.169 F 
HETATM   23  F   UNL     1      39.731 -11.381   6.975  1.00  0.00    -0.169 F 
HETATM   24  F   UNL     1      40.223  -9.791   8.369  1.00  0.00    -0.169 F 
ENDBRANCH   8  21
BRANCH   1  25
HETATM   25  C   UNL     1      43.267  -9.038   9.367  1.00  0.00    -0.035 A 
HETATM   26  C   UNL     1      42.871  -7.734   9.712  1.00  0.00     0.011 A 
HETATM   27  C   UNL     1      42.826  -7.330  11.050  1.00  0.00     0.024 A 
HETATM   28  C   UNL     1      43.170  -8.230  12.056  1.00  0.00     0.034 A 
HETATM   29  C   UNL     1      43.558  -9.527  11.736  1.00  0.00     0.024 A 
HETATM   30 CL   UNL     1      43.118  -7.731  13.702  1.00  0.00    -0.084 Cl
HETATM   31  C   UNL     1      43.606  -9.928  10.398  1.00  0.00     0.011 A 
ENDBRANCH   1  25
TORSDOF 5
ENDMDL
