MODEL 1
REMARK VINA RESULT:      -8.6      0.000      0.000
REMARK  5 active torsions:
REMARK  status: ('A' for Active; 'I' for Inactive)
REMARK    1  A    between atoms: C_4  and  N_5 
REMARK       I    between atoms: N_5  and  C_6 
REMARK       I    between atoms: C_6  and  N_7 
REMARK    2  A    between atoms: N_7  and  C_8 
REMARK    3  A    between atoms: C_10  and  C_11 
REMARK       I    between atoms: C_11  and  N_12 
REMARK    4  A    between atoms: N_12  and  C_13 
REMARK    5  A    between atoms: C_13  and  C_14 
ROOT
HETATM    1  C   UNL     1      42.693 -13.370   5.288  1.00  0.00     0.078 A 
HETATM    2  S   UNL     1      43.485 -13.279   6.786  1.00  0.00    -0.067 SA
HETATM    3  C   UNL     1      44.369 -11.881   6.318  1.00  0.00     0.074 A 
HETATM    4  C   UNL     1      44.151 -11.592   4.981  1.00  0.00     0.027 A 
HETATM    5  C   UNL     1      43.178 -12.459   4.383  1.00  0.00     0.039 A 
ENDROOT
BRANCH   1   6
HETATM    6  N   UNL     1      41.735 -14.348   5.250  1.00  0.00    -0.303 N 
HETATM    7  C   UNL     1      41.845 -15.692   5.019  1.00  0.00     0.325 C 
HETATM    8  N   UNL     1      43.030 -16.137   4.496  1.00  0.00    -0.309 N 
HETATM    9  O   UNL     1      40.845 -16.380   5.216  1.00  0.00    -0.247 OA
HETATM   10  H   UNL     1      43.702 -15.425   4.265  1.00  0.00     0.170 HD
HETATM   11  H   UNL     1      40.773 -14.043   5.348  1.00  0.00     0.171 HD
BRANCH   8  12
HETATM   12  C   UNL     1      43.342 -17.431   4.028  1.00  0.00     0.036 A 
HETATM   13  C   UNL     1      43.955 -18.420   4.800  1.00  0.00     0.029 A 
HETATM   14  C   UNL     1      44.178 -19.696   4.270  1.00  0.00     0.002 A 
HETATM   15  C   UNL     1      43.805 -19.989   2.961  1.00  0.00     0.000 A 
HETATM   16  C   UNL     1      43.210 -19.007   2.177  1.00  0.00     0.002 A 
HETATM   17  C   UNL     1      42.977 -17.734   2.708  1.00  0.00     0.029 A 
ENDBRANCH   8  12
ENDBRANCH   1   6
BRANCH   3  18
HETATM   18  C   UNL     1      45.169 -11.198   7.327  1.00  0.00     0.258 C 
HETATM   19  N   UNL     1      44.490 -10.819   8.469  1.00  0.00    -0.352 N 
HETATM   20  H   UNL     1      43.483 -10.859   8.494  1.00  0.00     0.163 HD
HETATM   21  O   UNL     1      46.371 -10.974   7.205  1.00  0.00    -0.267 OA
BRANCH  19  22
HETATM   22  C   UNL     1      45.179 -10.235   9.601  1.00  0.00     0.162 C 
BRANCH  22  23
HETATM   23  C   UNL     1      44.262  -9.879  10.736  1.00  0.00    -0.023 A 
HETATM   24  C   UNL     1      43.667 -10.875  11.504  1.00  0.00     0.125 A 
HETATM   25  N   UNL     1      42.875 -10.644  12.577  1.00  0.00    -0.273 NA
HETATM   26  C   UNL     1      42.676  -9.353  12.915  1.00  0.00     0.116 A 
HETATM   27  C   UNL     1      43.229  -8.285  12.230  1.00  0.00     0.020 A 
HETATM   28  C   UNL     1      44.037  -8.555  11.128  1.00  0.00     0.012 A 
ENDBRANCH  22  23
ENDBRANCH  19  22
ENDBRANCH   3  18
TORSDOF 5
ENDMDL
MODEL 2
REMARK VINA RESULT:      -8.2      2.367      9.378
REMARK  5 active torsions:
REMARK  status: ('A' for Active; 'I' for Inactive)
REMARK    1  A    between atoms: C_4  and  N_5 
REMARK       I    between atoms: N_5  and  C_6 
REMARK       I    between atoms: C_6  and  N_7 
REMARK    2  A    between atoms: N_7  and  C_8 
REMARK    3  A    between atoms: C_10  and  C_11 
REMARK       I    between atoms: C_11  and  N_12 
REMARK    4  A    between atoms: N_12  and  C_13 
REMARK    5  A    between atoms: C_13  and  C_14 
ROOT
HETATM    1  C   UNL     1      40.979 -12.716   5.612  1.00  0.00     0.078 A 
HETATM    2  S   UNL     1      41.844 -13.224   4.244  1.00  0.00    -0.067 SA
HETATM    3  C   UNL     1      41.324 -14.852   4.428  1.00  0.00     0.074 A 
HETATM    4  C   UNL     1      40.616 -15.006   5.608  1.00  0.00     0.027 A 
HETATM    5  C   UNL     1      40.418 -13.764   6.297  1.00  0.00     0.039 A 
ENDROOT
BRANCH   1   6
HETATM    6  N   UNL     1      41.019 -11.358   5.794  1.00  0.00    -0.303 N 
HETATM    7  C   UNL     1      41.946 -10.573   6.424  1.00  0.00     0.325 C 
HETATM    8  N   UNL     1      42.857 -11.209   7.224  1.00  0.00    -0.309 N 
HETATM    9  O   UNL     1      41.833  -9.355   6.292  1.00  0.00    -0.247 OA
HETATM   10  H   UNL     1      42.730 -12.201   7.332  1.00  0.00     0.170 HD
HETATM   11  H   UNL     1      40.215 -10.834   5.469  1.00  0.00     0.171 HD
BRANCH   8  12
HETATM   12  C   UNL     1      43.805 -10.629   8.093  1.00  0.00     0.036 A 
HETATM   13  C   UNL     1      43.607 -10.445   9.463  1.00  0.00     0.029 A 
HETATM   14  C   UNL     1      44.625  -9.911  10.262  1.00  0.00     0.002 A 
HETATM   15  C   UNL     1      45.843  -9.541   9.696  1.00  0.00     0.000 A 
HETATM   16  C   UNL     1      46.045  -9.704   8.329  1.00  0.00     0.002 A 
HETATM   17  C   UNL     1      45.032 -10.247   7.532  1.00  0.00     0.029 A 
ENDBRANCH   8  12
ENDBRANCH   1   6
BRANCH   3  18
HETATM   18  C   UNL     1      41.647 -15.806   3.375  1.00  0.00     0.258 C 
HETATM   19  N   UNL     1      42.980 -16.155   3.275  1.00  0.00    -0.352 N 
HETATM   20  H   UNL     1      43.678 -15.632   3.783  1.00  0.00     0.163 HD
HETATM   21  O   UNL     1      40.810 -16.297   2.621  1.00  0.00    -0.267 OA
BRANCH  19  22
HETATM   22  C   UNL     1      43.429 -17.177   2.354  1.00  0.00     0.162 C 
BRANCH  22  23
HETATM   23  C   UNL     1      43.597 -18.524   2.995  1.00  0.00    -0.023 A 
HETATM   24  C   UNL     1      43.443 -19.688   2.247  1.00  0.00     0.125 A 
HETATM   25  N   UNL     1      43.631 -20.938   2.729  1.00  0.00    -0.273 NA
HETATM   26  C   UNL     1      44.007 -21.038   4.022  1.00  0.00     0.116 A 
HETATM   27  C   UNL     1      44.201 -19.948   4.852  1.00  0.00     0.020 A 
HETATM   28  C   UNL     1      43.997 -18.674   4.327  1.00  0.00     0.012 A 
ENDBRANCH  22  23
ENDBRANCH  19  22
ENDBRANCH   3  18
TORSDOF 5
ENDMDL
MODEL 3
REMARK VINA RESULT:      -8.1      5.392      8.808
REMARK  5 active torsions:
REMARK  status: ('A' for Active; 'I' for Inactive)
REMARK    1  A    between atoms: C_4  and  N_5 
REMARK       I    between atoms: N_5  and  C_6 
REMARK       I    between atoms: C_6  and  N_7 
REMARK    2  A    between atoms: N_7  and  C_8 
REMARK    3  A    between atoms: C_10  and  C_11 
REMARK       I    between atoms: C_11  and  N_12 
REMARK    4  A    between atoms: N_12  and  C_13 
REMARK    5  A    between atoms: C_13  and  C_14 
ROOT
HETATM    1  C   UNL     1      41.278 -12.681   2.891  1.00  0.00     0.078 A 
HETATM    2  S   UNL     1      42.491 -13.844   3.125  1.00  0.00    -0.067 SA
HETATM    3  C   UNL     1      41.698 -14.500   4.503  1.00  0.00     0.074 A 
HETATM    4  C   UNL     1      40.598 -13.731   4.843  1.00  0.00     0.027 A 
HETATM    5  C   UNL     1      40.356 -12.672   3.907  1.00  0.00     0.039 A 
ENDROOT
BRANCH   1   6
HETATM    6  N   UNL     1      41.456 -11.949   1.746  1.00  0.00    -0.303 N 
HETATM    7  C   UNL     1      40.785 -11.986   0.554  1.00  0.00     0.325 C 
HETATM    8  N   UNL     1      39.971 -13.066   0.333  1.00  0.00    -0.309 N 
HETATM    9  O   UNL     1      41.030 -11.094  -0.257  1.00  0.00    -0.247 OA
HETATM   10  H   UNL     1      39.984 -13.777   1.043  1.00  0.00     0.170 HD
HETATM   11  H   UNL     1      42.244 -11.311   1.735  1.00  0.00     0.171 HD
BRANCH   8  12
HETATM   12  C   UNL     1      39.299 -13.418  -0.856  1.00  0.00     0.036 A 
HETATM   13  C   UNL     1      39.626 -14.520  -1.648  1.00  0.00     0.029 A 
HETATM   14  C   UNL     1      38.869 -14.828  -2.784  1.00  0.00     0.002 A 
HETATM   15  C   UNL     1      37.788 -14.027  -3.147  1.00  0.00     0.000 A 
HETATM   16  C   UNL     1      37.463 -12.916  -2.375  1.00  0.00     0.002 A 
HETATM   17  C   UNL     1      38.213 -12.615  -1.234  1.00  0.00     0.029 A 
ENDBRANCH   8  12
ENDBRANCH   1   6
BRANCH   3  18
HETATM   18  C   UNL     1      42.230 -15.722   5.092  1.00  0.00     0.258 C 
HETATM   19  N   UNL     1      43.484 -16.099   4.652  1.00  0.00    -0.352 N 
HETATM   20  H   UNL     1      43.894 -15.647   3.849  1.00  0.00     0.163 HD
HETATM   21  O   UNL     1      41.635 -16.385   5.939  1.00  0.00    -0.267 OA
BRANCH  19  22
HETATM   22  C   UNL     1      44.185 -17.224   5.233  1.00  0.00     0.162 C 
BRANCH  22  23
HETATM   23  C   UNL     1      44.075 -18.480   4.417  1.00  0.00    -0.023 A 
HETATM   24  C   UNL     1      44.132 -19.729   5.029  1.00  0.00     0.125 A 
HETATM   25  N   UNL     1      43.985 -20.907   4.379  1.00  0.00    -0.273 NA
HETATM   26  C   UNL     1      43.753 -20.840   3.051  1.00  0.00     0.116 A 
HETATM   27  C   UNL     1      43.664 -19.654   2.345  1.00  0.00     0.020 A 
HETATM   28  C   UNL     1      43.822 -18.458   3.041  1.00  0.00     0.012 A 
ENDBRANCH  22  23
ENDBRANCH  19  22
ENDBRANCH   3  18
TORSDOF 5
ENDMDL
MODEL 4
REMARK VINA RESULT:      -8.0      1.913      9.677
REMARK  5 active torsions:
REMARK  status: ('A' for Active; 'I' for Inactive)
REMARK    1  A    between atoms: C_4  and  N_5 
REMARK       I    between atoms: N_5  and  C_6 
REMARK       I    between atoms: C_6  and  N_7 
REMARK    2  A    between atoms: N_7  and  C_8 
REMARK    3  A    between atoms: C_10  and  C_11 
REMARK       I    between atoms: C_11  and  N_12 
REMARK    4  A    between atoms: N_12  and  C_13 
REMARK    5  A    between atoms: C_13  and  C_14 
ROOT
HETATM    1  C   UNL     1      43.705 -10.589   7.340  1.00  0.00     0.078 A 
HETATM    2  S   UNL     1      42.379 -11.025   6.374  1.00  0.00    -0.067 SA
HETATM    3  C   UNL     1      42.981 -12.617   6.137  1.00  0.00     0.074 A 
HETATM    4  C   UNL     1      44.249 -12.745   6.680  1.00  0.00     0.027 A 
HETATM    5  C   UNL     1      44.670 -11.564   7.377  1.00  0.00     0.039 A 
ENDROOT
BRANCH   1   6
HETATM    6  N   UNL     1      43.580  -9.337   7.884  1.00  0.00    -0.303 N 
HETATM    7  C   UNL     1      43.242  -8.949   9.151  1.00  0.00     0.325 C 
HETATM    8  N   UNL     1      42.696  -9.903   9.968  1.00  0.00    -0.309 N 
HETATM    9  O   UNL     1      43.376  -7.758   9.427  1.00  0.00    -0.247 OA
HETATM   10  H   UNL     1      42.529 -10.799   9.545  1.00  0.00     0.170 HD
HETATM   11  H   UNL     1      43.694  -8.555   7.249  1.00  0.00     0.171 HD
BRANCH   8  12
HETATM   12  C   UNL     1      42.128  -9.729  11.248  1.00  0.00     0.036 A 
HETATM   13  C   UNL     1      42.866  -9.497  12.411  1.00  0.00     0.029 A 
HETATM   14  C   UNL     1      42.217  -9.281  13.632  1.00  0.00     0.002 A 
HETATM   15  C   UNL     1      40.826  -9.310  13.703  1.00  0.00     0.000 A 
HETATM   16  C   UNL     1      40.082  -9.556  12.555  1.00  0.00     0.002 A 
HETATM   17  C   UNL     1      40.729  -9.762  11.333  1.00  0.00     0.029 A 
ENDBRANCH   8  12
ENDBRANCH   1   6
BRANCH   3  18
HETATM   18  C   UNL     1      42.128 -13.587   5.461  1.00  0.00     0.258 C 
HETATM   19  N   UNL     1      42.700 -14.231   4.380  1.00  0.00    -0.352 N 
HETATM   20  H   UNL     1      43.573 -13.900   4.000  1.00  0.00     0.163 HD
HETATM   21  O   UNL     1      40.980 -13.847   5.814  1.00  0.00    -0.267 OA
BRANCH  19  22
HETATM   22  C   UNL     1      42.013 -15.299   3.685  1.00  0.00     0.162 C 
BRANCH  22  23
HETATM   23  C   UNL     1      42.807 -16.572   3.620  1.00  0.00    -0.023 A 
HETATM   24  C   UNL     1      43.571 -16.986   4.707  1.00  0.00     0.125 A 
HETATM   25  N   UNL     1      44.269 -18.144   4.756  1.00  0.00    -0.273 NA
HETATM   26  C   UNL     1      44.192 -18.943   3.670  1.00  0.00     0.116 A 
HETATM   27  C   UNL     1      43.453 -18.636   2.541  1.00  0.00     0.020 A 
HETATM   28  C   UNL     1      42.748 -17.435   2.521  1.00  0.00     0.012 A 
ENDBRANCH  22  23
ENDBRANCH  19  22
ENDBRANCH   3  18
TORSDOF 5
ENDMDL
MODEL 5
REMARK VINA RESULT:      -7.7      4.845      8.657
REMARK  5 active torsions:
REMARK  status: ('A' for Active; 'I' for Inactive)
REMARK    1  A    between atoms: C_4  and  N_5 
REMARK       I    between atoms: N_5  and  C_6 
REMARK       I    between atoms: C_6  and  N_7 
REMARK    2  A    between atoms: N_7  and  C_8 
REMARK    3  A    between atoms: C_10  and  C_11 
REMARK       I    between atoms: C_11  and  N_12 
REMARK    4  A    between atoms: N_12  and  C_13 
REMARK    5  A    between atoms: C_13  and  C_14 
ROOT
HETATM    1  C   UNL     1      41.888 -12.869   4.347  1.00  0.00     0.078 A 
HETATM    2  S   UNL     1      40.832 -12.647   3.037  1.00  0.00    -0.067 SA
HETATM    3  C   UNL     1      41.799 -11.390   2.375  1.00  0.00     0.074 A 
HETATM    4  C   UNL     1      42.833 -11.065   3.237  1.00  0.00     0.027 A 
HETATM    5  C   UNL     1      42.883 -11.924   4.384  1.00  0.00     0.039 A 
ENDROOT
BRANCH   1   6
HETATM    6  N   UNL     1      41.541 -13.933   5.138  1.00  0.00    -0.303 N 
HETATM    7  C   UNL     1      41.961 -15.234   5.112  1.00  0.00     0.325 C 
HETATM    8  N   UNL     1      42.639 -15.646   3.995  1.00  0.00    -0.309 N 
HETATM    9  O   UNL     1      41.624 -15.952   6.052  1.00  0.00    -0.247 OA
HETATM   10  H   UNL     1      42.716 -14.969   3.255  1.00  0.00     0.170 HD
HETATM   11  H   UNL     1      40.812 -13.768   5.823  1.00  0.00     0.171 HD
BRANCH   8  12
HETATM   12  C   UNL     1      43.039 -16.955   3.654  1.00  0.00     0.036 A 
HETATM   13  C   UNL     1      42.556 -17.663   2.552  1.00  0.00     0.029 A 
HETATM   14  C   UNL     1      43.051 -18.939   2.257  1.00  0.00     0.002 A 
HETATM   15  C   UNL     1      44.020 -19.523   3.069  1.00  0.00     0.000 A 
HETATM   16  C   UNL     1      44.496 -18.834   4.179  1.00  0.00     0.002 A 
HETATM   17  C   UNL     1      44.010 -17.555   4.469  1.00  0.00     0.029 A 
ENDBRANCH   8  12
ENDBRANCH   1   6
BRANCH   3  18
HETATM   18  C   UNL     1      41.451 -10.868   1.059  1.00  0.00     0.258 C 
HETATM   19  N   UNL     1      40.326 -11.419   0.478  1.00  0.00    -0.352 N 
HETATM   20  H   UNL     1      39.906 -12.246   0.875  1.00  0.00     0.163 HD
HETATM   21  O   UNL     1      42.088  -9.987   0.486  1.00  0.00    -0.267 OA
BRANCH  19  22
HETATM   22  C   UNL     1      39.796 -10.919  -0.773  1.00  0.00     0.162 C 
BRANCH  22  23
HETATM   23  C   UNL     1      39.300 -12.004  -1.685  1.00  0.00    -0.023 A 
HETATM   24  C   UNL     1      40.196 -12.775  -2.420  1.00  0.00     0.125 A 
HETATM   25  N   UNL     1      39.841 -13.807  -3.220  1.00  0.00    -0.273 NA
HETATM   26  C   UNL     1      38.524 -14.098  -3.283  1.00  0.00     0.116 A 
HETATM   27  C   UNL     1      37.550 -13.406  -2.585  1.00  0.00     0.020 A 
HETATM   28  C   UNL     1      37.947 -12.348  -1.772  1.00  0.00     0.012 A 
ENDBRANCH  22  23
ENDBRANCH  19  22
ENDBRANCH   3  18
TORSDOF 5
ENDMDL
MODEL 6
REMARK VINA RESULT:      -7.5      6.487     10.130
REMARK  5 active torsions:
REMARK  status: ('A' for Active; 'I' for Inactive)
REMARK    1  A    between atoms: C_4  and  N_5 
REMARK       I    between atoms: N_5  and  C_6 
REMARK       I    between atoms: C_6  and  N_7 
REMARK    2  A    between atoms: N_7  and  C_8 
REMARK    3  A    between atoms: C_10  and  C_11 
REMARK       I    between atoms: C_11  and  N_12 
REMARK    4  A    between atoms: N_12  and  C_13 
REMARK    5  A    between atoms: C_13  and  C_14 
ROOT
HETATM    1  C   UNL     1      39.769 -12.912   0.453  1.00  0.00     0.078 A 
HETATM    2  S   UNL     1      40.854 -12.845   1.755  1.00  0.00    -0.067 SA
HETATM    3  C   UNL     1      41.459 -14.420   1.428  1.00  0.00     0.074 A 
HETATM    4  C   UNL     1      40.725 -15.025   0.421  1.00  0.00     0.027 A 
HETATM    5  C   UNL     1      39.741 -14.148  -0.144  1.00  0.00     0.039 A 
ENDROOT
BRANCH   1   6
HETATM    6  N   UNL     1      39.103 -11.731   0.251  1.00  0.00    -0.303 N 
HETATM    7  C   UNL     1      39.405 -10.667  -0.553  1.00  0.00     0.325 C 
HETATM    8  N   UNL     1      40.676 -10.614  -1.062  1.00  0.00    -0.309 N 
HETATM    9  O   UNL     1      38.543  -9.799  -0.683  1.00  0.00    -0.247 OA
HETATM   10  H   UNL     1      41.303 -11.335  -0.750  1.00  0.00     0.170 HD
HETATM   11  H   UNL     1      38.282 -11.573   0.823  1.00  0.00     0.171 HD
BRANCH   8  12
HETATM   12  C   UNL     1      41.281  -9.562  -1.781  1.00  0.00     0.036 A 
HETATM   13  C   UNL     1      42.335  -8.784  -1.297  1.00  0.00     0.029 A 
HETATM   14  C   UNL     1      42.913  -7.794  -2.101  1.00  0.00     0.002 A 
HETATM   15  C   UNL     1      42.433  -7.564  -3.388  1.00  0.00     0.000 A 
HETATM   16  C   UNL     1      41.372  -8.321  -3.874  1.00  0.00     0.002 A 
HETATM   17  C   UNL     1      40.801  -9.317  -3.075  1.00  0.00     0.029 A 
ENDBRANCH   8  12
ENDBRANCH   1   6
BRANCH   3  18
HETATM   18  C   UNL     1      42.614 -14.890   2.184  1.00  0.00     0.258 C 
HETATM   19  N   UNL     1      42.351 -15.859   3.133  1.00  0.00    -0.352 N 
HETATM   20  H   UNL     1      41.398 -16.069   3.388  1.00  0.00     0.163 HD
HETATM   21  O   UNL     1      43.759 -14.482   2.001  1.00  0.00    -0.267 OA
BRANCH  19  22
HETATM   22  C   UNL     1      43.415 -16.500   3.876  1.00  0.00     0.162 C 
BRANCH  22  23
HETATM   23  C   UNL     1      43.568 -17.959   3.558  1.00  0.00    -0.023 A 
HETATM   24  C   UNL     1      44.064 -18.844   4.511  1.00  0.00     0.125 A 
HETATM   25  N   UNL     1      44.181 -20.179   4.329  1.00  0.00    -0.273 NA
HETATM   26  C   UNL     1      43.768 -20.666   3.139  1.00  0.00     0.116 A 
HETATM   27  C   UNL     1      43.248 -19.880   2.127  1.00  0.00     0.020 A 
HETATM   28  C   UNL     1      43.143 -18.509   2.343  1.00  0.00     0.012 A 
ENDBRANCH  22  23
ENDBRANCH  19  22
ENDBRANCH   3  18
TORSDOF 5
ENDMDL
MODEL 7
REMARK VINA RESULT:      -7.3      4.810      8.606
REMARK  5 active torsions:
REMARK  status: ('A' for Active; 'I' for Inactive)
REMARK    1  A    between atoms: C_4  and  N_5 
REMARK       I    between atoms: N_5  and  C_6 
REMARK       I    between atoms: C_6  and  N_7 
REMARK    2  A    between atoms: N_7  and  C_8 
REMARK    3  A    between atoms: C_10  and  C_11 
REMARK       I    between atoms: C_11  and  N_12 
REMARK    4  A    between atoms: N_12  and  C_13 
REMARK    5  A    between atoms: C_13  and  C_14 
ROOT
HETATM    1  C   UNL     1      42.202 -14.104   5.219  1.00  0.00     0.078 A 
HETATM    2  S   UNL     1      42.575 -13.705   3.613  1.00  0.00    -0.067 SA
HETATM    3  C   UNL     1      41.050 -12.949   3.369  1.00  0.00     0.074 A 
HETATM    4  C   UNL     1      40.231 -13.139   4.469  1.00  0.00     0.027 A 
HETATM    5  C   UNL     1      40.901 -13.812   5.544  1.00  0.00     0.039 A 
ENDROOT
BRANCH   1   6
HETATM    6  N   UNL     1      43.258 -14.665   5.888  1.00  0.00    -0.303 N 
HETATM    7  C   UNL     1      43.848 -15.891   5.750  1.00  0.00     0.325 C 
HETATM    8  N   UNL     1      43.164 -16.831   5.025  1.00  0.00    -0.309 N 
HETATM    9  O   UNL     1      44.900 -16.080   6.358  1.00  0.00    -0.247 OA
HETATM   10  H   UNL     1      42.250 -16.558   4.706  1.00  0.00     0.170 HD
HETATM   11  H   UNL     1      43.646 -14.125   6.654  1.00  0.00     0.171 HD
BRANCH   8  12
HETATM   12  C   UNL     1      43.472 -18.198   4.865  1.00  0.00     0.036 A 
HETATM   13  C   UNL     1      43.862 -18.780   3.657  1.00  0.00     0.029 A 
HETATM   14  C   UNL     1      44.203 -20.136   3.600  1.00  0.00     0.002 A 
HETATM   15  C   UNL     1      44.142 -20.925   4.746  1.00  0.00     0.000 A 
HETATM   16  C   UNL     1      43.738 -20.361   5.951  1.00  0.00     0.002 A 
HETATM   17  C   UNL     1      43.407 -19.003   6.011  1.00  0.00     0.029 A 
ENDBRANCH   8  12
ENDBRANCH   1   6
BRANCH   3  18
HETATM   18  C   UNL     1      40.827 -12.224   2.124  1.00  0.00     0.258 C 
HETATM   19  N   UNL     1      39.705 -12.597   1.411  1.00  0.00    -0.352 N 
HETATM   20  H   UNL     1      39.202 -13.435   1.662  1.00  0.00     0.163 HD
HETATM   21  O   UNL     1      41.561 -11.325   1.720  1.00  0.00    -0.267 OA
BRANCH  19  22
HETATM   22  C   UNL     1      39.295 -11.887   0.217  1.00  0.00     0.162 C 
BRANCH  22  23
HETATM   23  C   UNL     1      38.878 -12.796  -0.902  1.00  0.00    -0.023 A 
HETATM   24  C   UNL     1      37.745 -12.513  -1.660  1.00  0.00     0.125 A 
HETATM   25  N   UNL     1      37.330 -13.244  -2.720  1.00  0.00    -0.273 NA
HETATM   26  C   UNL     1      38.091 -14.308  -3.055  1.00  0.00     0.116 A 
HETATM   27  C   UNL     1      39.242 -14.673  -2.381  1.00  0.00     0.020 A 
HETATM   28  C   UNL     1      39.641 -13.901  -1.292  1.00  0.00     0.012 A 
ENDBRANCH  22  23
ENDBRANCH  19  22
ENDBRANCH   3  18
TORSDOF 5
ENDMDL
MODEL 8
REMARK VINA RESULT:      -7.2      2.795      3.281
REMARK  5 active torsions:
REMARK  status: ('A' for Active; 'I' for Inactive)
REMARK    1  A    between atoms: C_4  and  N_5 
REMARK       I    between atoms: N_5  and  C_6 
REMARK       I    between atoms: C_6  and  N_7 
REMARK    2  A    between atoms: N_7  and  C_8 
REMARK    3  A    between atoms: C_10  and  C_11 
REMARK       I    between atoms: C_11  and  N_12 
REMARK    4  A    between atoms: N_12  and  C_13 
REMARK    5  A    between atoms: C_13  and  C_14 
ROOT
HETATM    1  C   UNL     1      40.345 -12.717   4.144  1.00  0.00     0.078 A 
HETATM    2  S   UNL     1      39.570 -12.611   5.650  1.00  0.00    -0.067 SA
HETATM    3  C   UNL     1      40.346 -11.125   6.028  1.00  0.00     0.074 A 
HETATM    4  C   UNL     1      41.288 -10.808   5.064  1.00  0.00     0.027 A 
HETATM    5  C   UNL     1      41.288 -11.735   3.970  1.00  0.00     0.039 A 
ENDROOT
BRANCH   1   6
HETATM    6  N   UNL     1      39.906 -13.774   3.391  1.00  0.00    -0.303 N 
HETATM    7  C   UNL     1      40.392 -15.048   3.278  1.00  0.00     0.325 C 
HETATM    8  N   UNL     1      41.646 -15.280   3.777  1.00  0.00    -0.309 N 
HETATM    9  O   UNL     1      39.702 -15.859   2.663  1.00  0.00    -0.247 OA
HETATM   10  H   UNL     1      42.134 -14.475   4.130  1.00  0.00     0.170 HD
HETATM   11  H   UNL     1      39.132 -13.591   2.763  1.00  0.00     0.171 HD
BRANCH   8  12
HETATM   12  C   UNL     1      42.428 -16.448   3.652  1.00  0.00     0.036 A 
HETATM   13  C   UNL     1      42.613 -17.146   2.457  1.00  0.00     0.029 A 
HETATM   14  C   UNL     1      43.453 -18.265   2.412  1.00  0.00     0.002 A 
HETATM   15  C   UNL     1      44.101 -18.705   3.563  1.00  0.00     0.000 A 
HETATM   16  C   UNL     1      43.911 -18.027   4.763  1.00  0.00     0.002 A 
HETATM   17  C   UNL     1      43.081 -16.903   4.806  1.00  0.00     0.029 A 
ENDBRANCH   8  12
ENDBRANCH   1   6
BRANCH   3  18
HETATM   18  C   UNL     1      39.927 -10.410   7.227  1.00  0.00     0.258 C 
HETATM   19  N   UNL     1      40.935  -9.769   7.921  1.00  0.00    -0.352 N 
HETATM   20  H   UNL     1      41.900  -9.954   7.695  1.00  0.00     0.163 HD
HETATM   21  O   UNL     1      38.761 -10.350   7.612  1.00  0.00    -0.267 OA
BRANCH  19  22
HETATM   22  C   UNL     1      40.651  -8.926   9.064  1.00  0.00     0.162 C 
BRANCH  22  23
HETATM   23  C   UNL     1      41.281  -9.416  10.335  1.00  0.00    -0.023 A 
HETATM   24  C   UNL     1      42.647  -9.680  10.392  1.00  0.00     0.125 A 
HETATM   25  N   UNL     1      43.306 -10.069  11.508  1.00  0.00    -0.273 NA
HETATM   26  C   UNL     1      42.570 -10.187  12.634  1.00  0.00     0.116 A 
HETATM   27  C   UNL     1      41.211  -9.937  12.694  1.00  0.00     0.020 A 
HETATM   28  C   UNL     1      40.561  -9.542  11.527  1.00  0.00     0.012 A 
ENDBRANCH  22  23
ENDBRANCH  19  22
ENDBRANCH   3  18
TORSDOF 5
ENDMDL
MODEL 9
REMARK VINA RESULT:      -7.1      2.998      9.648
REMARK  5 active torsions:
REMARK  status: ('A' for Active; 'I' for Inactive)
REMARK    1  A    between atoms: C_4  and  N_5 
REMARK       I    between atoms: N_5  and  C_6 
REMARK       I    between atoms: C_6  and  N_7 
REMARK    2  A    between atoms: N_7  and  C_8 
REMARK    3  A    between atoms: C_10  and  C_11 
REMARK       I    between atoms: C_11  and  N_12 
REMARK    4  A    between atoms: N_12  and  C_13 
REMARK    5  A    between atoms: C_13  and  C_14 
ROOT
HETATM    1  C   UNL     1      43.493 -10.419   7.223  1.00  0.00     0.078 A 
HETATM    2  S   UNL     1      42.318 -11.305   6.378  1.00  0.00    -0.067 SA
HETATM    3  C   UNL     1      43.338 -12.684   6.258  1.00  0.00     0.074 A 
HETATM    4  C   UNL     1      44.605 -12.395   6.738  1.00  0.00     0.027 A 
HETATM    5  C   UNL     1      44.695 -11.078   7.297  1.00  0.00     0.039 A 
ENDROOT
BRANCH   1   6
HETATM    6  N   UNL     1      43.035  -9.201   7.653  1.00  0.00    -0.303 N 
HETATM    7  C   UNL     1      42.632  -8.791   8.894  1.00  0.00     0.325 C 
HETATM    8  N   UNL     1      42.394  -9.768   9.824  1.00  0.00    -0.309 N 
HETATM    9  O   UNL     1      42.432  -7.587   9.051  1.00  0.00    -0.247 OA
HETATM   10  H   UNL     1      42.476 -10.715   9.496  1.00  0.00     0.170 HD
HETATM   11  H   UNL     1      42.910  -8.488   6.943  1.00  0.00     0.171 HD
BRANCH   8  12
HETATM   12  C   UNL     1      41.830  -9.626  11.109  1.00  0.00     0.036 A 
HETATM   13  C   UNL     1      40.465  -9.725  11.385  1.00  0.00     0.029 A 
HETATM   14  C   UNL     1      39.998  -9.625  12.701  1.00  0.00     0.002 A 
HETATM   15  C   UNL     1      40.889  -9.410  13.749  1.00  0.00     0.000 A 
HETATM   16  C   UNL     1      42.249  -9.292  13.484  1.00  0.00     0.002 A 
HETATM   17  C   UNL     1      42.718  -9.402  12.171  1.00  0.00     0.029 A 
ENDBRANCH   8  12
ENDBRANCH   1   6
BRANCH   3  18
HETATM   18  C   UNL     1      42.775 -13.918   5.725  1.00  0.00     0.258 C 
HETATM   19  N   UNL     1      41.458 -13.844   5.315  1.00  0.00    -0.352 N 
HETATM   20  H   UNL     1      40.901 -13.037   5.552  1.00  0.00     0.163 HD
HETATM   21  O   UNL     1      43.410 -14.965   5.619  1.00  0.00    -0.267 OA
BRANCH  19  22
HETATM   22  C   UNL     1      40.804 -14.956   4.659  1.00  0.00     0.162 C 
BRANCH  22  23
HETATM   23  C   UNL     1      40.489 -14.694   3.215  1.00  0.00    -0.023 A 
HETATM   24  C   UNL     1      40.470 -13.393   2.719  1.00  0.00     0.125 A 
HETATM   25  N   UNL     1      40.252 -13.071   1.424  1.00  0.00    -0.273 NA
HETATM   26  C   UNL     1      40.057 -14.098   0.569  1.00  0.00     0.116 A 
HETATM   27  C   UNL     1      40.068 -15.428   0.951  1.00  0.00     0.020 A 
HETATM   28  C   UNL     1      40.292 -15.727   2.293  1.00  0.00     0.012 A 
ENDBRANCH  22  23
ENDBRANCH  19  22
ENDBRANCH   3  18
TORSDOF 5
ENDMDL
MODEL 10
REMARK VINA RESULT:      -7.1      5.861      9.381
REMARK  5 active torsions:
REMARK  status: ('A' for Active; 'I' for Inactive)
REMARK    1  A    between atoms: C_4  and  N_5 
REMARK       I    between atoms: N_5  and  C_6 
REMARK       I    between atoms: C_6  and  N_7 
REMARK    2  A    between atoms: N_7  and  C_8 
REMARK    3  A    between atoms: C_10  and  C_11 
REMARK       I    between atoms: C_11  and  N_12 
REMARK    4  A    between atoms: N_12  and  C_13 
REMARK    5  A    between atoms: C_13  and  C_14 
ROOT
HETATM    1  C   UNL     1      42.611  -7.292  11.882  1.00  0.00     0.078 A 
HETATM    2  S   UNL     1      41.164  -6.633  12.476  1.00  0.00    -0.067 SA
HETATM    3  C   UNL     1      41.352  -7.405  14.000  1.00  0.00     0.074 A 
HETATM    4  C   UNL     1      42.439  -8.263  13.981  1.00  0.00     0.027 A 
HETATM    5  C   UNL     1      43.169  -8.198  12.749  1.00  0.00     0.039 A 
ENDROOT
BRANCH   1   6
HETATM    6  N   UNL     1      42.942  -6.818  10.640  1.00  0.00    -0.303 N 
HETATM    7  C   UNL     1      43.378  -7.478   9.523  1.00  0.00     0.325 C 
HETATM    8  N   UNL     1      43.801  -8.769   9.692  1.00  0.00    -0.309 N 
HETATM    9  O   UNL     1      43.436  -6.834   8.477  1.00  0.00    -0.247 OA
HETATM   10  H   UNL     1      43.816  -9.106  10.639  1.00  0.00     0.170 HD
HETATM   11  H   UNL     1      42.926  -5.811  10.521  1.00  0.00     0.171 HD
BRANCH   8  12
HETATM   12  C   UNL     1      44.432  -9.607   8.748  1.00  0.00     0.036 A 
HETATM   13  C   UNL     1      45.793  -9.559   8.440  1.00  0.00     0.029 A 
HETATM   14  C   UNL     1      46.347 -10.466   7.529  1.00  0.00     0.002 A 
HETATM   15  C   UNL     1      45.543 -11.418   6.907  1.00  0.00     0.000 A 
HETATM   16  C   UNL     1      44.182 -11.464   7.193  1.00  0.00     0.002 A 
HETATM   17  C   UNL     1      43.630 -10.564   8.111  1.00  0.00     0.029 A 
ENDBRANCH   8  12
ENDBRANCH   1   6
BRANCH   3  18
HETATM   18  C   UNL     1      40.420  -7.065  15.068  1.00  0.00     0.258 C 
HETATM   19  N   UNL     1      40.830  -7.398  16.345  1.00  0.00    -0.352 N 
HETATM   20  H   UNL     1      41.631  -7.996  16.477  1.00  0.00     0.163 HD
HETATM   21  O   UNL     1      39.342  -6.505  14.879  1.00  0.00    -0.267 OA
BRANCH  19  22
HETATM   22  C   UNL     1      40.061  -7.018  17.511  1.00  0.00     0.162 C 
BRANCH  22  23
HETATM   23  C   UNL     1      40.363  -7.854  18.721  1.00  0.00    -0.023 A 
HETATM   24  C   UNL     1      39.346  -8.543  19.377  1.00  0.00     0.125 A 
HETATM   25  N   UNL     1      39.537  -9.362  20.437  1.00  0.00    -0.273 NA
HETATM   26  C   UNL     1      40.810  -9.518  20.859  1.00  0.00     0.116 A 
HETATM   27  C   UNL     1      41.896  -8.893  20.274  1.00  0.00     0.020 A 
HETATM   28  C   UNL     1      41.667  -8.054  19.186  1.00  0.00     0.012 A 
ENDBRANCH  22  23
ENDBRANCH  19  22
ENDBRANCH   3  18
TORSDOF 5
ENDMDL
