MODEL 1
REMARK VINA RESULT:      -8.8      0.000      0.000
REMARK  2 active torsions:
REMARK  status: ('A' for Active; 'I' for Inactive)
REMARK    1  A    between atoms: C_8  and  N_9 
REMARK       I    between atoms: N_9  and  C_10 
REMARK       I    between atoms: C_10  and  N_11 
REMARK    2  A    between atoms: N_11  and  C_12 
ROOT
HETATM    1  C   UNL     1      43.487 -20.066   2.538  1.00  0.00     0.044 A 
HETATM    2  C   UNL     1      43.953 -20.058   3.845  1.00  0.00     0.117 A 
HETATM    3  F   UNL     1      44.283 -21.213   4.433  1.00  0.00    -0.206 F 
HETATM    4  C   UNL     1      44.055 -18.872   4.560  1.00  0.00     0.067 A 
HETATM    5  C   UNL     1      43.701 -17.656   3.957  1.00  0.00     0.074 A 
HETATM    6  C   UNL     1      43.674 -16.491   4.799  1.00  0.00     0.102 C 
HETATM    7  N   UNL     1      43.611 -15.557   5.488  1.00  0.00    -0.191 NA
HETATM    8  C   UNL     1      43.272 -17.642   2.610  1.00  0.00     0.057 A 
HETATM    9  C   UNL     1      43.138 -18.861   1.924  1.00  0.00     0.034 A 
ENDROOT
BRANCH   8  10
HETATM   10  N   UNL     1      42.903 -16.478   1.889  1.00  0.00    -0.308 N 
HETATM   11  C   UNL     1      41.683 -15.856   1.994  1.00  0.00     0.321 C 
HETATM   12  N   UNL     1      41.490 -14.943   0.982  1.00  0.00    -0.336 N 
HETATM   13  O   UNL     1      40.848 -16.053   2.864  1.00  0.00    -0.247 OA
HETATM   14  H   UNL     1      42.068 -15.111   0.167  1.00  0.00     0.164 HD
HETATM   15  H   UNL     1      43.658 -15.864   1.608  1.00  0.00     0.170 HD
BRANCH  12  16
HETATM   16  C   UNL     1      40.188 -14.341   0.739  1.00  0.00     0.118 C 
HETATM   17  C   UNL     1      39.801 -14.040  -0.719  1.00  0.00     0.210 C 
HETATM   18  N   UNL     1      38.620 -13.107  -0.531  1.00  0.00    -0.065 N 
HETATM   19  C   UNL     1      39.344 -15.218  -1.565  1.00  0.00     0.035 C 
HETATM   20  H   UNL     1      37.829 -13.640  -0.143  1.00  0.00     0.280 HD
HETATM   21  C   UNL     1      38.164 -12.503  -1.822  1.00  0.00     0.235 C 
HETATM   22  C   UNL     1      39.084 -12.150   0.535  1.00  0.00     0.237 C 
HETATM   23  C   UNL     1      37.726 -13.641  -2.742  1.00  0.00     0.028 C 
HETATM   24  C   UNL     1      38.805 -14.717  -2.910  1.00  0.00     0.004 C 
HETATM   25  C   UNL     1      39.999 -12.982   1.435  1.00  0.00     0.055 C 
ENDBRANCH  12  16
ENDBRANCH   8  10
TORSDOF 2
ENDMDL
MODEL 2
REMARK VINA RESULT:      -8.1      3.194      7.603
REMARK  2 active torsions:
REMARK  status: ('A' for Active; 'I' for Inactive)
REMARK    1  A    between atoms: C_8  and  N_9 
REMARK       I    between atoms: N_9  and  C_10 
REMARK       I    between atoms: C_10  and  N_11 
REMARK    2  A    between atoms: N_11  and  C_12 
ROOT
HETATM    1  C   UNL     1      39.743 -14.217  -1.462  1.00  0.00     0.044 A 
HETATM    2  C   UNL     1      39.841 -12.887  -1.845  1.00  0.00     0.117 A 
HETATM    3  F   UNL     1      39.443 -12.522  -3.068  1.00  0.00    -0.206 F 
HETATM    4  C   UNL     1      40.374 -11.934  -0.986  1.00  0.00     0.067 A 
HETATM    5  C   UNL     1      40.805 -12.307   0.296  1.00  0.00     0.074 A 
HETATM    6  C   UNL     1      41.492 -11.311   1.071  1.00  0.00     0.102 C 
HETATM    7  N   UNL     1      42.085 -10.519   1.681  1.00  0.00    -0.191 NA
HETATM    8  C   UNL     1      40.664 -13.649   0.718  1.00  0.00     0.057 A 
HETATM    9  C   UNL     1      40.162 -14.600  -0.187  1.00  0.00     0.034 A 
ENDROOT
BRANCH   8  10
HETATM   10  N   UNL     1      41.047 -14.143   1.991  1.00  0.00    -0.308 N 
HETATM   11  C   UNL     1      42.243 -14.765   2.253  1.00  0.00     0.321 C 
HETATM   12  N   UNL     1      42.231 -15.397   3.476  1.00  0.00    -0.336 N 
HETATM   13  O   UNL     1      43.224 -14.775   1.523  1.00  0.00    -0.247 OA
HETATM   14  H   UNL     1      41.300 -15.606   3.815  1.00  0.00     0.164 HD
HETATM   15  H   UNL     1      40.634 -13.685   2.794  1.00  0.00     0.170 HD
BRANCH  12  16
HETATM   16  C   UNL     1      43.284 -16.321   3.865  1.00  0.00     0.118 C 
HETATM   17  C   UNL     1      43.036 -17.822   3.641  1.00  0.00     0.210 C 
HETATM   18  N   UNL     1      44.128 -18.439   4.494  1.00  0.00    -0.065 N 
HETATM   19  C   UNL     1      43.193 -18.340   2.221  1.00  0.00     0.035 C 
HETATM   20  H   UNL     1      45.042 -18.247   4.059  1.00  0.00     0.280 HD
HETATM   21  C   UNL     1      43.988 -19.925   4.604  1.00  0.00     0.235 C 
HETATM   22  C   UNL     1      44.066 -17.658   5.779  1.00  0.00     0.237 C 
HETATM   23  C   UNL     1      44.098 -20.512   3.197  1.00  0.00     0.028 C 
HETATM   24  C   UNL     1      43.115 -19.871   2.211  1.00  0.00     0.004 C 
HETATM   25  C   UNL     1      43.644 -16.249   5.359  1.00  0.00     0.055 C 
ENDBRANCH  12  16
ENDBRANCH   8  10
TORSDOF 2
ENDMDL
MODEL 3
REMARK VINA RESULT:      -8.0      4.282      6.901
REMARK  2 active torsions:
REMARK  status: ('A' for Active; 'I' for Inactive)
REMARK    1  A    between atoms: C_8  and  N_9 
REMARK       I    between atoms: N_9  and  C_10 
REMARK       I    between atoms: C_10  and  N_11 
REMARK    2  A    between atoms: N_11  and  C_12 
ROOT
HETATM    1  C   UNL     1      44.216 -17.966   4.241  1.00  0.00     0.044 A 
HETATM    2  C   UNL     1      43.755 -18.452   3.026  1.00  0.00     0.117 A 
HETATM    3  F   UNL     1      44.376 -19.491   2.454  1.00  0.00    -0.206 F 
HETATM    4  C   UNL     1      42.678 -17.860   2.381  1.00  0.00     0.067 A 
HETATM    5  C   UNL     1      42.026 -16.764   2.966  1.00  0.00     0.074 A 
HETATM    6  C   UNL     1      41.028 -16.097   2.176  1.00  0.00     0.102 C 
HETATM    7  N   UNL     1      40.251 -15.532   1.521  1.00  0.00    -0.191 NA
HETATM    8  C   UNL     1      42.452 -16.289   4.227  1.00  0.00     0.057 A 
HETATM    9  C   UNL     1      43.571 -16.880   4.837  1.00  0.00     0.034 A 
ENDROOT
BRANCH   8  10
HETATM   10  N   UNL     1      41.866 -15.202   4.925  1.00  0.00    -0.308 N 
HETATM   11  C   UNL     1      42.218 -13.887   4.747  1.00  0.00     0.321 C 
HETATM   12  N   UNL     1      41.711 -13.086   5.746  1.00  0.00    -0.336 N 
HETATM   13  O   UNL     1      42.889 -13.440   3.829  1.00  0.00    -0.247 OA
HETATM   14  H   UNL     1      41.481 -13.590   6.593  1.00  0.00     0.164 HD
HETATM   15  H   UNL     1      40.916 -15.336   5.250  1.00  0.00     0.170 HD
BRANCH  12  16
HETATM   16  C   UNL     1      42.148 -11.708   5.910  1.00  0.00     0.118 C 
HETATM   17  C   UNL     1      43.267 -11.430   6.928  1.00  0.00     0.210 C 
HETATM   18  N   UNL     1      43.161  -9.925   7.089  1.00  0.00    -0.065 N 
HETATM   19  C   UNL     1      44.686 -11.762   6.495  1.00  0.00     0.035 C 
HETATM   20  H   UNL     1      43.467  -9.472   6.217  1.00  0.00     0.280 HD
HETATM   21  C   UNL     1      44.033  -9.412   8.192  1.00  0.00     0.235 C 
HETATM   22  C   UNL     1      41.682  -9.682   7.230  1.00  0.00     0.237 C 
HETATM   23  C   UNL     1      45.481  -9.749   7.840  1.00  0.00     0.028 C 
HETATM   24  C   UNL     1      45.685 -11.238   7.533  1.00  0.00     0.004 C 
HETATM   25  C   UNL     1      41.026 -10.757   6.361  1.00  0.00     0.055 C 
ENDBRANCH  12  16
ENDBRANCH   8  10
TORSDOF 2
ENDMDL
MODEL 4
REMARK VINA RESULT:      -7.9      4.399      6.821
REMARK  2 active torsions:
REMARK  status: ('A' for Active; 'I' for Inactive)
REMARK    1  A    between atoms: C_8  and  N_9 
REMARK       I    between atoms: N_9  and  C_10 
REMARK       I    between atoms: C_10  and  N_11 
REMARK    2  A    between atoms: N_11  and  C_12 
ROOT
HETATM    1  C   UNL     1      42.723 -17.578   2.404  1.00  0.00     0.044 A 
HETATM    2  C   UNL     1      43.694 -18.353   3.022  1.00  0.00     0.117 A 
HETATM    3  F   UNL     1      44.234 -19.383   2.361  1.00  0.00    -0.206 F 
HETATM    4  C   UNL     1      44.093 -18.092   4.326  1.00  0.00     0.067 A 
HETATM    5  C   UNL     1      43.526 -17.021   5.033  1.00  0.00     0.074 A 
HETATM    6  C   UNL     1      43.861 -16.905   6.426  1.00  0.00     0.102 C 
HETATM    7  N   UNL     1      44.099 -16.836   7.562  1.00  0.00    -0.191 NA
HETATM    8  C   UNL     1      42.572 -16.192   4.399  1.00  0.00     0.057 A 
HETATM    9  C   UNL     1      42.156 -16.505   3.094  1.00  0.00     0.034 A 
ENDROOT
BRANCH   8  10
HETATM   10  N   UNL     1      41.942 -15.074   5.003  1.00  0.00    -0.308 N 
HETATM   11  C   UNL     1      42.342 -13.772   4.830  1.00  0.00     0.321 C 
HETATM   12  N   UNL     1      41.753 -12.933   5.748  1.00  0.00    -0.336 N 
HETATM   13  O   UNL     1      43.116 -13.365   3.975  1.00  0.00    -0.247 OA
HETATM   14  H   UNL     1      41.424 -13.408   6.580  1.00  0.00     0.164 HD
HETATM   15  H   UNL     1      40.961 -15.179   5.230  1.00  0.00     0.170 HD
BRANCH  12  16
HETATM   16  C   UNL     1      42.203 -11.560   5.922  1.00  0.00     0.118 C 
HETATM   17  C   UNL     1      43.295 -11.295   6.971  1.00  0.00     0.210 C 
HETATM   18  N   UNL     1      43.205  -9.788   7.126  1.00  0.00    -0.065 N 
HETATM   19  C   UNL     1      44.722 -11.646   6.581  1.00  0.00     0.035 C 
HETATM   20  H   UNL     1      43.542  -9.341   6.262  1.00  0.00     0.280 HD
HETATM   21  C   UNL     1      44.051  -9.284   8.253  1.00  0.00     0.235 C 
HETATM   22  C   UNL     1      41.725  -9.525   7.223  1.00  0.00     0.237 C 
HETATM   23  C   UNL     1      45.505  -9.641   7.943  1.00  0.00     0.028 C 
HETATM   24  C   UNL     1      45.697 -11.132   7.646  1.00  0.00     0.004 C 
HETATM   25  C   UNL     1      41.081 -10.594   6.339  1.00  0.00     0.055 C 
ENDBRANCH  12  16
ENDBRANCH   8  10
TORSDOF 2
ENDMDL
MODEL 5
REMARK VINA RESULT:      -7.8      3.313      7.969
REMARK  2 active torsions:
REMARK  status: ('A' for Active; 'I' for Inactive)
REMARK    1  A    between atoms: C_8  and  N_9 
REMARK       I    between atoms: N_9  and  C_10 
REMARK       I    between atoms: C_10  and  N_11 
REMARK    2  A    between atoms: N_11  and  C_12 
ROOT
HETATM    1  C   UNL     1      38.162 -13.861  -2.681  1.00  0.00     0.044 A 
HETATM    2  C   UNL     1      37.507 -12.734  -2.205  1.00  0.00     0.117 A 
HETATM    3  F   UNL     1      36.431 -12.275  -2.855  1.00  0.00    -0.206 F 
HETATM    4  C   UNL     1      37.967 -12.060  -1.082  1.00  0.00     0.067 A 
HETATM    5  C   UNL     1      39.100 -12.526  -0.399  1.00  0.00     0.074 A 
HETATM    6  C   UNL     1      39.619 -11.696   0.653  1.00  0.00     0.102 C 
HETATM    7  N   UNL     1      40.063 -11.004   1.475  1.00  0.00    -0.191 NA
HETATM    8  C   UNL     1      39.749 -13.702  -0.842  1.00  0.00     0.057 A 
HETATM    9  C   UNL     1      39.287 -14.339  -2.006  1.00  0.00     0.034 A 
ENDROOT
BRANCH   8  10
HETATM   10  N   UNL     1      40.890 -14.278  -0.228  1.00  0.00    -0.308 N 
HETATM   11  C   UNL     1      40.841 -15.231   0.759  1.00  0.00     0.321 C 
HETATM   12  N   UNL     1      42.063 -15.393   1.372  1.00  0.00    -0.336 N 
HETATM   13  O   UNL     1      39.858 -15.883   1.081  1.00  0.00    -0.247 OA
HETATM   14  H   UNL     1      42.678 -14.595   1.267  1.00  0.00     0.164 HD
HETATM   15  H   UNL     1      41.737 -14.300  -0.783  1.00  0.00     0.170 HD
BRANCH  12  16
HETATM   16  C   UNL     1      42.202 -16.160   2.600  1.00  0.00     0.118 C 
HETATM   17  C   UNL     1      43.070 -15.564   3.720  1.00  0.00     0.210 C 
HETATM   18  N   UNL     1      43.281 -16.772   4.614  1.00  0.00    -0.065 N 
HETATM   19  C   UNL     1      42.447 -14.458   4.557  1.00  0.00     0.035 C 
HETATM   20  H   UNL     1      42.388 -17.017   5.063  1.00  0.00     0.280 HD
HETATM   21  C   UNL     1      44.272 -16.503   5.703  1.00  0.00     0.235 C 
HETATM   22  C   UNL     1      43.621 -17.877   3.650  1.00  0.00     0.237 C 
HETATM   23  C   UNL     1      43.724 -15.367   6.566  1.00  0.00     0.028 C 
HETATM   24  C   UNL     1      43.357 -14.125   5.745  1.00  0.00     0.004 C 
HETATM   25  C   UNL     1      42.820 -17.552   2.387  1.00  0.00     0.055 C 
ENDBRANCH  12  16
ENDBRANCH   8  10
TORSDOF 2
ENDMDL
MODEL 6
REMARK VINA RESULT:      -7.6      3.287      7.748
REMARK  2 active torsions:
REMARK  status: ('A' for Active; 'I' for Inactive)
REMARK    1  A    between atoms: C_8  and  N_9 
REMARK       I    between atoms: N_9  and  C_10 
REMARK       I    between atoms: C_10  and  N_11 
REMARK    2  A    between atoms: N_11  and  C_12 
ROOT
HETATM    1  C   UNL     1      39.796 -14.149  -1.878  1.00  0.00     0.044 A 
HETATM    2  C   UNL     1      39.439 -12.851  -2.213  1.00  0.00     0.117 A 
HETATM    3  F   UNL     1      39.428 -12.483  -3.499  1.00  0.00    -0.206 F 
HETATM    4  C   UNL     1      39.120 -11.922  -1.233  1.00  0.00     0.067 A 
HETATM    5  C   UNL     1      39.137 -12.294   0.120  1.00  0.00     0.074 A 
HETATM    6  C   UNL     1      38.957 -11.248   1.089  1.00  0.00     0.102 C 
HETATM    7  N   UNL     1      38.853 -10.396   1.874  1.00  0.00    -0.191 NA
HETATM    8  C   UNL     1      39.450 -13.626   0.474  1.00  0.00     0.057 A 
HETATM    9  C   UNL     1      39.811 -14.534  -0.536  1.00  0.00     0.034 A 
ENDROOT
BRANCH   8  10
HETATM   10  N   UNL     1      39.486 -14.124   1.801  1.00  0.00    -0.308 N 
HETATM   11  C   UNL     1      40.609 -14.148   2.591  1.00  0.00     0.321 C 
HETATM   12  N   UNL     1      40.434 -14.942   3.702  1.00  0.00    -0.336 N 
HETATM   13  O   UNL     1      41.653 -13.548   2.374  1.00  0.00    -0.247 OA
HETATM   14  H   UNL     1      39.697 -15.628   3.598  1.00  0.00     0.164 HD
HETATM   15  H   UNL     1      38.617 -14.088   2.320  1.00  0.00     0.170 HD
BRANCH  12  16
HETATM   16  C   UNL     1      41.553 -15.317   4.552  1.00  0.00     0.118 C 
HETATM   17  C   UNL     1      42.165 -16.713   4.351  1.00  0.00     0.210 C 
HETATM   18  N   UNL     1      42.987 -16.868   5.617  1.00  0.00    -0.065 N 
HETATM   19  C   UNL     1      43.093 -16.892   3.160  1.00  0.00     0.035 C 
HETATM   20  H   UNL     1      43.782 -16.214   5.583  1.00  0.00     0.280 HD
HETATM   21  C   UNL     1      43.546 -18.248   5.764  1.00  0.00     0.235 C 
HETATM   22  C   UNL     1      42.060 -16.396   6.706  1.00  0.00     0.237 C 
HETATM   23  C   UNL     1      44.464 -18.511   4.570  1.00  0.00     0.028 C 
HETATM   24  C   UNL     1      43.770 -18.265   3.225  1.00  0.00     0.004 C 
HETATM   25  C   UNL     1      41.218 -15.299   6.053  1.00  0.00     0.055 C 
ENDBRANCH  12  16
ENDBRANCH   8  10
TORSDOF 2
ENDMDL
MODEL 7
REMARK VINA RESULT:      -7.6      3.362      8.260
REMARK  2 active torsions:
REMARK  status: ('A' for Active; 'I' for Inactive)
REMARK    1  A    between atoms: C_8  and  N_9 
REMARK       I    between atoms: N_9  and  C_10 
REMARK       I    between atoms: C_10  and  N_11 
REMARK    2  A    between atoms: N_11  and  C_12 
ROOT
HETATM    1  C   UNL     1      39.000 -10.990   0.201  1.00  0.00     0.044 A 
HETATM    2  C   UNL     1      38.096 -11.160  -0.838  1.00  0.00     0.117 A 
HETATM    3  F   UNL     1      37.181 -10.214  -1.077  1.00  0.00    -0.206 F 
HETATM    4  C   UNL     1      38.110 -12.311  -1.616  1.00  0.00     0.067 A 
HETATM    5  C   UNL     1      39.058 -13.314  -1.368  1.00  0.00     0.074 A 
HETATM    6  C   UNL     1      38.916 -14.544  -2.098  1.00  0.00     0.102 C 
HETATM    7  N   UNL     1      38.776 -15.554  -2.656  1.00  0.00    -0.191 NA
HETATM    8  C   UNL     1      40.017 -13.132  -0.346  1.00  0.00     0.057 A 
HETATM    9  C   UNL     1      39.954 -11.978   0.453  1.00  0.00     0.034 A 
ENDROOT
BRANCH   8  10
HETATM   10  N   UNL     1      41.032 -14.065  -0.012  1.00  0.00    -0.308 N 
HETATM   11  C   UNL     1      40.920 -15.013   0.976  1.00  0.00     0.321 C 
HETATM   12  N   UNL     1      42.138 -15.576   1.282  1.00  0.00    -0.336 N 
HETATM   13  O   UNL     1      39.886 -15.349   1.535  1.00  0.00    -0.247 OA
HETATM   14  H   UNL     1      42.929 -15.001   1.018  1.00  0.00     0.164 HD
HETATM   15  H   UNL     1      41.677 -14.314  -0.752  1.00  0.00     0.170 HD
BRANCH  12  16
HETATM   16  C   UNL     1      42.313 -16.419   2.454  1.00  0.00     0.118 C 
HETATM   17  C   UNL     1      43.142 -15.857   3.621  1.00  0.00     0.210 C 
HETATM   18  N   UNL     1      43.414 -17.111   4.430  1.00  0.00    -0.065 N 
HETATM   19  C   UNL     1      42.455 -14.848   4.527  1.00  0.00     0.035 C 
HETATM   20  H   UNL     1      42.533 -17.435   4.852  1.00  0.00     0.280 HD
HETATM   21  C   UNL     1      44.383 -16.866   5.543  1.00  0.00     0.235 C 
HETATM   22  C   UNL     1      43.818 -18.126   3.393  1.00  0.00     0.237 C 
HETATM   23  C   UNL     1      43.770 -15.825   6.478  1.00  0.00     0.028 C 
HETATM   24  C   UNL     1      43.339 -14.550   5.743  1.00  0.00     0.004 C 
HETATM   25  C   UNL     1      43.007 -17.758   2.150  1.00  0.00     0.055 C 
ENDBRANCH  12  16
ENDBRANCH   8  10
TORSDOF 2
ENDMDL
MODEL 8
REMARK VINA RESULT:      -7.4      2.002      2.234
REMARK  2 active torsions:
REMARK  status: ('A' for Active; 'I' for Inactive)
REMARK    1  A    between atoms: C_8  and  N_9 
REMARK       I    between atoms: N_9  and  C_10 
REMARK       I    between atoms: C_10  and  N_11 
REMARK    2  A    between atoms: N_11  and  C_12 
ROOT
HETATM    1  C   UNL     1      43.621 -18.337   2.822  1.00  0.00     0.044 A 
HETATM    2  C   UNL     1      43.977 -18.208   4.158  1.00  0.00     0.117 A 
HETATM    3  F   UNL     1      45.017 -18.903   4.632  1.00  0.00    -0.206 F 
HETATM    4  C   UNL     1      43.251 -17.391   5.015  1.00  0.00     0.067 A 
HETATM    5  C   UNL     1      42.153 -16.666   4.531  1.00  0.00     0.074 A 
HETATM    6  C   UNL     1      41.350 -15.970   5.499  1.00  0.00     0.102 C 
HETATM    7  N   UNL     1      40.677 -15.442   6.286  1.00  0.00    -0.191 NA
HETATM    8  C   UNL     1      41.809 -16.748   3.162  1.00  0.00     0.057 A 
HETATM    9  C   UNL     1      42.533 -17.615   2.327  1.00  0.00     0.034 A 
ENDROOT
BRANCH   8  10
HETATM   10  N   UNL     1      40.733 -16.053   2.554  1.00  0.00    -0.308 N 
HETATM   11  C   UNL     1      40.882 -14.988   1.700  1.00  0.00     0.321 C 
HETATM   12  N   UNL     1      39.690 -14.328   1.497  1.00  0.00    -0.336 N 
HETATM   13  O   UNL     1      41.922 -14.639   1.161  1.00  0.00    -0.247 OA
HETATM   14  H   UNL     1      39.009 -14.485   2.230  1.00  0.00     0.164 HD
HETATM   15  H   UNL     1      39.879 -16.579   2.415  1.00  0.00     0.170 HD
BRANCH  12  16
HETATM   16  C   UNL     1      39.641 -13.034   0.834  1.00  0.00     0.118 C 
HETATM   17  C   UNL     1      40.446 -12.866  -0.465  1.00  0.00     0.210 C 
HETATM   18  N   UNL     1      40.462 -11.357  -0.618  1.00  0.00    -0.065 N 
HETATM   19  C   UNL     1      39.845 -13.465  -1.727  1.00  0.00     0.035 C 
HETATM   20  H   UNL     1      39.510 -11.033  -0.843  1.00  0.00     0.280 HD
HETATM   21  C   UNL     1      41.362 -10.910  -1.727  1.00  0.00     0.235 C 
HETATM   22  C   UNL     1      40.794 -10.859   0.764  1.00  0.00     0.237 C 
HETATM   23  C   UNL     1      40.836 -11.512  -3.029  1.00  0.00     0.028 C 
HETATM   24  C   UNL     1      40.661 -13.033  -2.950  1.00  0.00     0.004 C 
HETATM   25  C   UNL     1      40.151 -11.876   1.709  1.00  0.00     0.055 C 
ENDBRANCH  12  16
ENDBRANCH   8  10
TORSDOF 2
ENDMDL
MODEL 9
REMARK VINA RESULT:      -7.4      4.648      8.385
REMARK  2 active torsions:
REMARK  status: ('A' for Active; 'I' for Inactive)
REMARK    1  A    between atoms: C_8  and  N_9 
REMARK       I    between atoms: N_9  and  C_10 
REMARK       I    between atoms: C_10  and  N_11 
REMARK    2  A    between atoms: N_11  and  C_12 
ROOT
HETATM    1  C   UNL     1      39.193 -10.797   2.402  1.00  0.00     0.044 A 
HETATM    2  C   UNL     1      38.682  -9.716   3.106  1.00  0.00     0.117 A 
HETATM    3  F   UNL     1      38.379  -8.589   2.453  1.00  0.00    -0.206 F 
HETATM    4  C   UNL     1      38.506  -9.778   4.482  1.00  0.00     0.067 A 
HETATM    5  C   UNL     1      38.830 -10.951   5.180  1.00  0.00     0.074 A 
HETATM    6  C   UNL     1      38.780 -10.896   6.615  1.00  0.00     0.102 C 
HETATM    7  N   UNL     1      38.780 -10.838   7.776  1.00  0.00    -0.191 NA
HETATM    8  C   UNL     1      39.305 -12.078   4.469  1.00  0.00     0.057 A 
HETATM    9  C   UNL     1      39.513 -11.973   3.084  1.00  0.00     0.034 A 
ENDROOT
BRANCH   8  10
HETATM   10  N   UNL     1      39.650 -13.321   5.059  1.00  0.00    -0.308 N 
HETATM   11  C   UNL     1      40.936 -13.719   5.330  1.00  0.00     0.321 C 
HETATM   12  N   UNL     1      41.001 -15.063   5.620  1.00  0.00    -0.336 N 
HETATM   13  O   UNL     1      41.926 -13.001   5.333  1.00  0.00    -0.247 OA
HETATM   14  H   UNL     1      40.217 -15.594   5.262  1.00  0.00     0.164 HD
HETATM   15  H   UNL     1      38.950 -13.747   5.654  1.00  0.00     0.170 HD
BRANCH  12  16
HETATM   16  C   UNL     1      42.275 -15.763   5.699  1.00  0.00     0.118 C 
HETATM   17  C   UNL     1      42.493 -16.958   4.756  1.00  0.00     0.210 C 
HETATM   18  N   UNL     1      43.700 -17.624   5.388  1.00  0.00    -0.065 N 
HETATM   19  C   UNL     1      42.831 -16.638   3.309  1.00  0.00     0.035 C 
HETATM   20  H   UNL     1      44.524 -17.020   5.257  1.00  0.00     0.280 HD
HETATM   21  C   UNL     1      44.010 -18.947   4.760  1.00  0.00     0.235 C 
HETATM   22  C   UNL     1      43.377 -17.634   6.859  1.00  0.00     0.237 C 
HETATM   23  C   UNL     1      44.322 -18.703   3.284  1.00  0.00     0.028 C 
HETATM   24  C   UNL     1      43.216 -17.922   2.566  1.00  0.00     0.004 C 
HETATM   25  C   UNL     1      42.562 -16.360   7.087  1.00  0.00     0.055 C 
ENDBRANCH  12  16
ENDBRANCH   8  10
TORSDOF 2
ENDMDL
MODEL 10
REMARK VINA RESULT:      -7.3      3.546      7.972
REMARK  2 active torsions:
REMARK  status: ('A' for Active; 'I' for Inactive)
REMARK    1  A    between atoms: C_8  and  N_9 
REMARK       I    between atoms: N_9  and  C_10 
REMARK       I    between atoms: C_10  and  N_11 
REMARK    2  A    between atoms: N_11  and  C_12 
ROOT
HETATM    1  C   UNL     1      41.166  -9.847   0.780  1.00  0.00     0.044 A 
HETATM    2  C   UNL     1      40.807 -10.259  -0.495  1.00  0.00     0.117 A 
HETATM    3  F   UNL     1      40.691  -9.353  -1.472  1.00  0.00    -0.206 F 
HETATM    4  C   UNL     1      40.539 -11.595  -0.765  1.00  0.00     0.067 A 
HETATM    5  C   UNL     1      40.647 -12.553   0.253  1.00  0.00     0.074 A 
HETATM    6  C   UNL     1      40.200 -13.885  -0.049  1.00  0.00     0.102 C 
HETATM    7  N   UNL     1      39.800 -14.951  -0.282  1.00  0.00    -0.191 NA
HETATM    8  C   UNL     1      41.060 -12.155   1.545  1.00  0.00     0.057 A 
HETATM    9  C   UNL     1      41.284 -10.792   1.801  1.00  0.00     0.034 A 
ENDROOT
BRANCH   8  10
HETATM   10  N   UNL     1      41.221 -13.030   2.650  1.00  0.00    -0.308 N 
HETATM   11  C   UNL     1      42.396 -13.662   2.974  1.00  0.00     0.321 C 
HETATM   12  N   UNL     1      42.197 -14.665   3.896  1.00  0.00    -0.336 N 
HETATM   13  O   UNL     1      43.503 -13.395   2.528  1.00  0.00    -0.247 OA
HETATM   14  H   UNL     1      41.245 -15.007   3.924  1.00  0.00     0.164 HD
HETATM   15  H   UNL     1      40.601 -12.881   3.437  1.00  0.00     0.170 HD
BRANCH  12  16
HETATM   16  C   UNL     1      43.241 -15.629   4.207  1.00  0.00     0.118 C 
HETATM   17  C   UNL     1      42.991 -17.099   3.830  1.00  0.00     0.210 C 
HETATM   18  N   UNL     1      44.068 -17.804   4.634  1.00  0.00    -0.065 N 
HETATM   19  C   UNL     1      43.171 -17.472   2.368  1.00  0.00     0.035 C 
HETATM   20  H   UNL     1      44.989 -17.573   4.236  1.00  0.00     0.280 HD
HETATM   21  C   UNL     1      43.921 -19.292   4.593  1.00  0.00     0.235 C 
HETATM   22  C   UNL     1      43.986 -17.155   5.991  1.00  0.00     0.237 C 
HETATM   23  C   UNL     1      44.052 -19.736   3.136  1.00  0.00     0.028 C 
HETATM   24  C   UNL     1      43.088 -18.994   2.203  1.00  0.00     0.004 C 
HETATM   25  C   UNL     1      43.576 -15.709   5.706  1.00  0.00     0.055 C 
ENDBRANCH  12  16
ENDBRANCH   8  10
TORSDOF 2
ENDMDL
