MODEL 1
REMARK VINA RESULT:      -8.8      0.000      0.000
REMARK  9 active torsions:
REMARK  status: ('A' for Active; 'I' for Inactive)
REMARK    1  A    between atoms: C_3  and  C_4 
REMARK    2  A    between atoms: C_4  and  O_5 
REMARK    3  A    between atoms: C_8  and  C_9 
REMARK    4  A    between atoms: C_9  and  O_10 
REMARK    5  A    between atoms: O_10  and  C_11 
REMARK    6  A    between atoms: C_11  and  C_12 
REMARK    7  A    between atoms: C_15  and  C_16 
REMARK    8  A    between atoms: C_16  and  N_17 
REMARK       I    between atoms: N_17  and  C_18 
REMARK       I    between atoms: C_18  and  N_19 
REMARK    9  A    between atoms: N_19  and  C_20 
ROOT
HETATM    1  C   UNL     1      43.265 -11.833   3.509  1.00  0.00     0.293 C 
HETATM    2  O   UNL     1      42.849 -11.152   2.587  1.00  0.00    -0.259 OA
ENDROOT
BRANCH   1   3
HETATM    3  O   UNL     1      43.594 -13.146   3.446  1.00  0.00    -0.311 OA
BRANCH   3   4
HETATM    4  C   UNL     1      42.484 -14.057   3.509  1.00  0.00     0.239 C 
BRANCH   4   5
HETATM    5  C   UNL     1      42.793 -15.459   3.983  1.00  0.00     0.076 A 
HETATM    6  C   UNL     1      42.852 -15.816   5.327  1.00  0.00     0.073 A 
HETATM    7  C   UNL     1      43.232 -17.130   5.678  1.00  0.00    -0.031 A 
HETATM    8  C   UNL     1      43.385 -17.534   7.124  1.00  0.00     0.050 C 
HETATM    9  C   UNL     1      43.459 -18.075   4.637  1.00  0.00    -0.000 A 
HETATM   10  C   UNL     1      43.365 -17.616   3.306  1.00  0.00     0.068 A 
HETATM   11  C   UNL     1      43.777 -19.439   4.851  1.00  0.00     0.014 A 
HETATM   12  N   UNL     1      43.072 -16.348   2.992  1.00  0.00    -0.249 NA
HETATM   13  C   UNL     1      43.592 -18.501   2.261  1.00  0.00     0.032 A 
HETATM   14  C   UNL     1      43.910 -19.841   2.485  1.00  0.00     0.002 A 
HETATM   15  C   UNL     1      44.001 -20.312   3.785  1.00  0.00     0.001 A 
BRANCH   6  16
HETATM   16  C   UNL     1      42.575 -14.788   6.345  1.00  0.00     0.295 C 
HETATM   17  O   UNL     1      43.421 -14.049   6.817  1.00  0.00    -0.259 OA
BRANCH  16  18
HETATM   18  O   UNL     1      41.252 -14.808   6.638  1.00  0.00    -0.322 OA
HETATM   19  C   UNL     1      40.573 -13.593   6.318  1.00  0.00     0.213 C 
ENDBRANCH  16  18
ENDBRANCH   6  16
ENDBRANCH   4   5
ENDBRANCH   3   4
ENDBRANCH   1   3
BRANCH   1  20
HETATM   20  C   UNL     1      43.612 -11.266   4.843  1.00  0.00     0.039 A 
HETATM   21  C   UNL     1      44.919 -11.448   5.314  1.00  0.00     0.018 A 
HETATM   22  C   UNL     1      45.252 -11.104   6.628  1.00  0.00     0.010 A 
HETATM   23  C   UNL     1      44.280 -10.587   7.495  1.00  0.00    -0.040 A 
HETATM   24  C   UNL     1      42.991 -10.341   6.999  1.00  0.00     0.010 A 
HETATM   25  C   UNL     1      42.657 -10.680   5.683  1.00  0.00     0.018 A 
BRANCH  23  26
HETATM   26  C   UNL     1      44.602 -10.349   8.946  1.00  0.00     0.162 C 
BRANCH  26  27
HETATM   27  N   UNL     1      43.535 -10.766   9.821  1.00  0.00    -0.339 N 
HETATM   28  C   UNL     1      42.975  -9.819  10.644  1.00  0.00     0.316 C 
HETATM   29  N   UNL     1      42.072 -10.384  11.507  1.00  0.00    -0.339 N 
HETATM   30  O   UNL     1      43.263  -8.632  10.607  1.00  0.00    -0.247 OA
HETATM   31  H   UNL     1      41.641 -11.228  11.160  1.00  0.00     0.164 HD
HETATM   32  H   UNL     1      43.619 -11.684  10.229  1.00  0.00     0.164 HD
BRANCH  29  33
HETATM   33  C   UNL     1      41.298  -9.612  12.475  1.00  0.00     0.078 C 
HETATM   34  C   UNL     1      39.980 -10.290  12.847  1.00  0.00     0.032 C 
HETATM   35  C   UNL     1      42.114  -9.258  13.717  1.00  0.00     0.032 C 
ENDBRANCH  29  33
ENDBRANCH  26  27
ENDBRANCH  23  26
ENDBRANCH   1  20
TORSDOF 9
ENDMDL
MODEL 2
REMARK VINA RESULT:      -8.4      1.917      3.116
REMARK  9 active torsions:
REMARK  status: ('A' for Active; 'I' for Inactive)
REMARK    1  A    between atoms: C_3  and  C_4 
REMARK    2  A    between atoms: C_4  and  O_5 
REMARK    3  A    between atoms: C_8  and  C_9 
REMARK    4  A    between atoms: C_9  and  O_10 
REMARK    5  A    between atoms: O_10  and  C_11 
REMARK    6  A    between atoms: C_11  and  C_12 
REMARK    7  A    between atoms: C_15  and  C_16 
REMARK    8  A    between atoms: C_16  and  N_17 
REMARK       I    between atoms: N_17  and  C_18 
REMARK       I    between atoms: C_18  and  N_19 
REMARK    9  A    between atoms: N_19  and  C_20 
ROOT
HETATM    1  C   UNL     1      43.513 -11.331   4.387  1.00  0.00     0.293 C 
HETATM    2  O   UNL     1      44.296 -11.434   3.458  1.00  0.00    -0.259 OA
ENDROOT
BRANCH   1   3
HETATM    3  O   UNL     1      42.171 -11.511   4.321  1.00  0.00    -0.311 OA
BRANCH   3   4
HETATM    4  C   UNL     1      41.683 -12.702   4.961  1.00  0.00     0.239 C 
BRANCH   4   5
HETATM    5  C   UNL     1      41.792 -13.983   4.167  1.00  0.00     0.076 A 
HETATM    6  C   UNL     1      40.995 -14.267   3.061  1.00  0.00     0.073 A 
HETATM    7  C   UNL     1      41.109 -15.527   2.432  1.00  0.00    -0.031 A 
HETATM    8  C   UNL     1      40.209 -15.903   1.281  1.00  0.00     0.050 C 
HETATM    9  C   UNL     1      42.101 -16.435   2.899  1.00  0.00    -0.000 A 
HETATM   10  C   UNL     1      42.865 -16.049   4.021  1.00  0.00     0.068 A 
HETATM   11  C   UNL     1      42.366 -17.698   2.315  1.00  0.00     0.014 A 
HETATM   12  N   UNL     1      42.695 -14.879   4.648  1.00  0.00    -0.249 NA
HETATM   13  C   UNL     1      43.833 -16.911   4.517  1.00  0.00     0.032 A 
HETATM   14  C   UNL     1      44.081 -18.155   3.937  1.00  0.00     0.002 A 
HETATM   15  C   UNL     1      43.346 -18.550   2.830  1.00  0.00     0.001 A 
BRANCH   6  16
HETATM   16  C   UNL     1      40.011 -13.263   2.620  1.00  0.00     0.295 C 
HETATM   17  O   UNL     1      38.879 -13.178   3.062  1.00  0.00    -0.259 OA
BRANCH  16  18
HETATM   18  O   UNL     1      40.584 -12.475   1.678  1.00  0.00    -0.322 OA
HETATM   19  C   UNL     1      39.821 -12.369   0.476  1.00  0.00     0.213 C 
ENDBRANCH  16  18
ENDBRANCH   6  16
ENDBRANCH   4   5
ENDBRANCH   3   4
ENDBRANCH   1   3
BRANCH   1  20
HETATM   20  C   UNL     1      43.949 -11.122   5.796  1.00  0.00     0.039 A 
HETATM   21  C   UNL     1      43.136 -10.340   6.626  1.00  0.00     0.018 A 
HETATM   22  C   UNL     1      43.580  -9.956   7.896  1.00  0.00     0.010 A 
HETATM   23  C   UNL     1      44.850 -10.338   8.348  1.00  0.00    -0.040 A 
HETATM   24  C   UNL     1      45.632 -11.179   7.543  1.00  0.00     0.010 A 
HETATM   25  C   UNL     1      45.187 -11.568   6.275  1.00  0.00     0.018 A 
BRANCH  23  26
HETATM   26  C   UNL     1      45.384  -9.810   9.653  1.00  0.00     0.162 C 
BRANCH  26  27
HETATM   27  N   UNL     1      44.362  -9.175  10.448  1.00  0.00    -0.339 N 
HETATM   28  C   UNL     1      43.718  -9.939  11.391  1.00  0.00     0.316 C 
HETATM   29  N   UNL     1      42.689  -9.244  11.972  1.00  0.00    -0.339 N 
HETATM   30  O   UNL     1      44.028 -11.090  11.658  1.00  0.00    -0.247 OA
HETATM   31  H   UNL     1      42.815  -8.243  11.975  1.00  0.00     0.164 HD
HETATM   32  H   UNL     1      43.776  -8.504   9.976  1.00  0.00     0.164 HD
BRANCH  29  33
HETATM   33  C   UNL     1      41.850  -9.794  13.033  1.00  0.00     0.078 C 
HETATM   34  C   UNL     1      41.926  -8.978  14.324  1.00  0.00     0.032 C 
HETATM   35  C   UNL     1      40.405  -9.995  12.583  1.00  0.00     0.032 C 
ENDBRANCH  29  33
ENDBRANCH  26  27
ENDBRANCH  23  26
ENDBRANCH   1  20
TORSDOF 9
ENDMDL
MODEL 3
REMARK VINA RESULT:      -8.4      2.730      4.422
REMARK  9 active torsions:
REMARK  status: ('A' for Active; 'I' for Inactive)
REMARK    1  A    between atoms: C_3  and  C_4 
REMARK    2  A    between atoms: C_4  and  O_5 
REMARK    3  A    between atoms: C_8  and  C_9 
REMARK    4  A    between atoms: C_9  and  O_10 
REMARK    5  A    between atoms: O_10  and  C_11 
REMARK    6  A    between atoms: C_11  and  C_12 
REMARK    7  A    between atoms: C_15  and  C_16 
REMARK    8  A    between atoms: C_16  and  N_17 
REMARK       I    between atoms: N_17  and  C_18 
REMARK       I    between atoms: C_18  and  N_19 
REMARK    9  A    between atoms: N_19  and  C_20 
ROOT
HETATM    1  C   UNL     1      40.034 -14.578   0.512  1.00  0.00     0.293 C 
HETATM    2  O   UNL     1      39.729 -14.713  -0.660  1.00  0.00    -0.259 OA
ENDROOT
BRANCH   1   3
HETATM    3  O   UNL     1      40.449 -15.563   1.347  1.00  0.00    -0.311 OA
BRANCH   3   4
HETATM    4  C   UNL     1      41.870 -15.775   1.382  1.00  0.00     0.239 C 
BRANCH   4   5
HETATM    5  C   UNL     1      42.390 -16.648   2.500  1.00  0.00     0.076 A 
HETATM    6  C   UNL     1      42.520 -16.210   3.815  1.00  0.00     0.073 A 
HETATM    7  C   UNL     1      43.095 -17.069   4.778  1.00  0.00    -0.031 A 
HETATM    8  C   UNL     1      43.325 -16.603   6.195  1.00  0.00     0.050 C 
HETATM    9  C   UNL     1      43.447 -18.392   4.387  1.00  0.00    -0.000 A 
HETATM   10  C   UNL     1      43.269 -18.743   3.032  1.00  0.00     0.068 A 
HETATM   11  C   UNL     1      43.967 -19.374   5.267  1.00  0.00     0.014 A 
HETATM   12  N   UNL     1      42.786 -17.892   2.118  1.00  0.00    -0.249 NA
HETATM   13  C   UNL     1      43.612 -20.018   2.605  1.00  0.00     0.032 A 
HETATM   14  C   UNL     1      44.128 -20.974   3.480  1.00  0.00     0.002 A 
HETATM   15  C   UNL     1      44.305 -20.652   4.816  1.00  0.00     0.001 A 
BRANCH   6  16
HETATM   16  C   UNL     1      42.106 -14.835   4.147  1.00  0.00     0.295 C 
HETATM   17  O   UNL     1      42.796 -13.850   3.955  1.00  0.00    -0.259 OA
BRANCH  16  18
HETATM   18  O   UNL     1      40.858 -14.870   4.674  1.00  0.00    -0.322 OA
HETATM   19  C   UNL     1      40.653 -13.932   5.731  1.00  0.00     0.213 C 
ENDBRANCH  16  18
ENDBRANCH   6  16
ENDBRANCH   4   5
ENDBRANCH   3   4
ENDBRANCH   1   3
BRANCH   1  20
HETATM   20  C   UNL     1      40.130 -13.248   1.177  1.00  0.00     0.039 A 
HETATM   21  C   UNL     1      41.142 -12.375   0.757  1.00  0.00     0.018 A 
HETATM   22  C   UNL     1      41.399 -11.196   1.463  1.00  0.00     0.010 A 
HETATM   23  C   UNL     1      40.657 -10.880   2.609  1.00  0.00    -0.040 A 
HETATM   24  C   UNL     1      39.599 -11.720   2.986  1.00  0.00     0.010 A 
HETATM   25  C   UNL     1      39.338 -12.898   2.278  1.00  0.00     0.018 A 
BRANCH  23  26
HETATM   26  C   UNL     1      41.024  -9.685   3.448  1.00  0.00     0.162 C 
BRANCH  26  27
HETATM   27  N   UNL     1      41.325 -10.043   4.812  1.00  0.00    -0.339 N 
HETATM   28  C   UNL     1      42.575 -10.546   5.081  1.00  0.00     0.316 C 
HETATM   29  N   UNL     1      42.671 -10.963   6.383  1.00  0.00    -0.339 N 
HETATM   30  O   UNL     1      43.472 -10.614   4.254  1.00  0.00    -0.247 OA
HETATM   31  H   UNL     1      42.054 -10.481   7.019  1.00  0.00     0.164 HD
HETATM   32  H   UNL     1      40.578 -10.462   5.344  1.00  0.00     0.164 HD
BRANCH  29  33
HETATM   33  C   UNL     1      43.896 -11.511   6.961  1.00  0.00     0.078 C 
HETATM   34  C   UNL     1      44.255 -10.864   8.298  1.00  0.00     0.032 C 
HETATM   35  C   UNL     1      43.852 -13.034   7.071  1.00  0.00     0.032 C 
ENDBRANCH  29  33
ENDBRANCH  26  27
ENDBRANCH  23  26
ENDBRANCH   1  20
TORSDOF 9
ENDMDL
MODEL 4
REMARK VINA RESULT:      -8.3      1.737      2.756
REMARK  9 active torsions:
REMARK  status: ('A' for Active; 'I' for Inactive)
REMARK    1  A    between atoms: C_3  and  C_4 
REMARK    2  A    between atoms: C_4  and  O_5 
REMARK    3  A    between atoms: C_8  and  C_9 
REMARK    4  A    between atoms: C_9  and  O_10 
REMARK    5  A    between atoms: O_10  and  C_11 
REMARK    6  A    between atoms: C_11  and  C_12 
REMARK    7  A    between atoms: C_15  and  C_16 
REMARK    8  A    between atoms: C_16  and  N_17 
REMARK       I    between atoms: N_17  and  C_18 
REMARK       I    between atoms: C_18  and  N_19 
REMARK    9  A    between atoms: N_19  and  C_20 
ROOT
HETATM    1  C   UNL     1      43.378 -11.263   5.157  1.00  0.00     0.293 C 
HETATM    2  O   UNL     1      42.845 -10.576   4.302  1.00  0.00    -0.259 OA
ENDROOT
BRANCH   1   3
HETATM    3  O   UNL     1      43.766 -12.554   5.014  1.00  0.00    -0.311 OA
BRANCH   3   4
HETATM    4  C   UNL     1      42.773 -13.532   5.369  1.00  0.00     0.239 C 
BRANCH   4   5
HETATM    5  C   UNL     1      42.647 -14.723   4.447  1.00  0.00     0.076 A 
HETATM    6  C   UNL     1      41.760 -14.769   3.375  1.00  0.00     0.073 A 
HETATM    7  C   UNL     1      41.650 -15.957   2.619  1.00  0.00    -0.031 A 
HETATM    8  C   UNL     1      40.646 -16.074   1.499  1.00  0.00     0.050 C 
HETATM    9  C   UNL     1      42.516 -17.044   2.928  1.00  0.00    -0.000 A 
HETATM   10  C   UNL     1      43.386 -16.896   4.029  1.00  0.00     0.068 A 
HETATM   11  C   UNL     1      42.557 -18.264   2.207  1.00  0.00     0.014 A 
HETATM   12  N   UNL     1      43.428 -15.787   4.778  1.00  0.00    -0.249 NA
HETATM   13  C   UNL     1      44.236 -17.937   4.374  1.00  0.00     0.032 A 
HETATM   14  C   UNL     1      44.264 -19.134   3.659  1.00  0.00     0.002 A 
HETATM   15  C   UNL     1      43.422 -19.298   2.570  1.00  0.00     0.001 A 
BRANCH   6  16
HETATM   16  C   UNL     1      40.919 -13.592   3.101  1.00  0.00     0.295 C 
HETATM   17  O   UNL     1      39.831 -13.397   3.613  1.00  0.00    -0.259 OA
BRANCH  16  18
HETATM   18  O   UNL     1      41.562 -12.791   2.216  1.00  0.00    -0.322 OA
HETATM   19  C   UNL     1      40.718 -12.283   1.183  1.00  0.00     0.213 C 
ENDBRANCH  16  18
ENDBRANCH   6  16
ENDBRANCH   4   5
ENDBRANCH   3   4
ENDBRANCH   1   3
BRANCH   1  20
HETATM   20  C   UNL     1      43.818 -10.723   6.474  1.00  0.00     0.039 A 
HETATM   21  C   UNL     1      45.118 -11.018   6.904  1.00  0.00     0.018 A 
HETATM   22  C   UNL     1      45.525 -10.699   8.204  1.00  0.00     0.010 A 
HETATM   23  C   UNL     1      44.631 -10.092   9.097  1.00  0.00    -0.040 A 
HETATM   24  C   UNL     1      43.353  -9.735   8.641  1.00  0.00     0.010 A 
HETATM   25  C   UNL     1      42.948 -10.049   7.340  1.00  0.00     0.018 A 
BRANCH  23  26
HETATM   26  C   UNL     1      45.021  -9.876  10.535  1.00  0.00     0.162 C 
BRANCH  26  27
HETATM   27  N   UNL     1      44.073  -9.053  11.243  1.00  0.00    -0.339 N 
HETATM   28  C   UNL     1      43.194  -9.676  12.095  1.00  0.00     0.316 C 
HETATM   29  N   UNL     1      42.274  -8.791  12.592  1.00  0.00    -0.339 N 
HETATM   30  O   UNL     1      43.235 -10.869  12.358  1.00  0.00    -0.247 OA
HETATM   31  H   UNL     1      42.599  -7.837  12.637  1.00  0.00     0.164 HD
HETATM   32  H   UNL     1      43.687  -8.271  10.736  1.00  0.00     0.164 HD
BRANCH  29  33
HETATM   33  C   UNL     1      41.236  -9.168  13.549  1.00  0.00     0.078 C 
HETATM   34  C   UNL     1      41.452  -8.540  14.926  1.00  0.00     0.032 C 
HETATM   35  C   UNL     1      39.832  -8.885  13.020  1.00  0.00     0.032 C 
ENDBRANCH  29  33
ENDBRANCH  26  27
ENDBRANCH  23  26
ENDBRANCH   1  20
TORSDOF 9
ENDMDL
MODEL 5
REMARK VINA RESULT:      -8.0      4.930      8.484
REMARK  9 active torsions:
REMARK  status: ('A' for Active; 'I' for Inactive)
REMARK    1  A    between atoms: C_3  and  C_4 
REMARK    2  A    between atoms: C_4  and  O_5 
REMARK    3  A    between atoms: C_8  and  C_9 
REMARK    4  A    between atoms: C_9  and  O_10 
REMARK    5  A    between atoms: O_10  and  C_11 
REMARK    6  A    between atoms: C_11  and  C_12 
REMARK    7  A    between atoms: C_15  and  C_16 
REMARK    8  A    between atoms: C_16  and  N_17 
REMARK       I    between atoms: N_17  and  C_18 
REMARK       I    between atoms: C_18  and  N_19 
REMARK    9  A    between atoms: N_19  and  C_20 
ROOT
HETATM    1  C   UNL     1      40.624 -15.109   1.193  1.00  0.00     0.293 C 
HETATM    2  O   UNL     1      39.861 -15.686   1.949  1.00  0.00    -0.259 OA
ENDROOT
BRANCH   1   3
HETATM    3  O   UNL     1      41.935 -15.400   1.007  1.00  0.00    -0.311 OA
BRANCH   3   4
HETATM    4  C   UNL     1      42.797 -15.061   2.107  1.00  0.00     0.239 C 
BRANCH   4   5
HETATM    5  C   UNL     1      42.997 -16.130   3.156  1.00  0.00     0.076 A 
HETATM    6  C   UNL     1      42.891 -15.890   4.523  1.00  0.00     0.073 A 
HETATM    7  C   UNL     1      43.178 -16.931   5.433  1.00  0.00    -0.031 A 
HETATM    8  C   UNL     1      43.152 -16.690   6.922  1.00  0.00     0.050 C 
HETATM    9  C   UNL     1      43.485 -18.222   4.917  1.00  0.00    -0.000 A 
HETATM   10  C   UNL     1      43.559 -18.366   3.515  1.00  0.00     0.068 A 
HETATM   11  C   UNL     1      43.725 -19.367   5.717  1.00  0.00     0.014 A 
HETATM   12  N   UNL     1      43.352 -17.350   2.668  1.00  0.00    -0.249 NA
HETATM   13  C   UNL     1      43.870 -19.604   2.970  1.00  0.00     0.032 A 
HETATM   14  C   UNL     1      44.109 -20.722   3.769  1.00  0.00     0.002 A 
HETATM   15  C   UNL     1      44.035 -20.604   5.148  1.00  0.00     0.001 A 
BRANCH   6  16
HETATM   16  C   UNL     1      42.540 -14.534   4.978  1.00  0.00     0.295 C 
HETATM   17  O   UNL     1      43.356 -13.657   5.201  1.00  0.00    -0.259 OA
BRANCH  16  18
HETATM   18  O   UNL     1      41.192 -14.444   5.085  1.00  0.00    -0.322 OA
HETATM   19  C   UNL     1      40.650 -13.246   4.527  1.00  0.00     0.213 C 
ENDBRANCH  16  18
ENDBRANCH   6  16
ENDBRANCH   4   5
ENDBRANCH   3   4
ENDBRANCH   1   3
BRANCH   1  20
HETATM   20  C   UNL     1      40.176 -14.059   0.235  1.00  0.00     0.039 A 
HETATM   21  C   UNL     1      39.540 -14.472  -0.943  1.00  0.00     0.018 A 
HETATM   22  C   UNL     1      39.265 -13.552  -1.960  1.00  0.00     0.010 A 
HETATM   23  C   UNL     1      39.636 -12.208  -1.819  1.00  0.00    -0.040 A 
HETATM   24  C   UNL     1      40.209 -11.784  -0.610  1.00  0.00     0.010 A 
HETATM   25  C   UNL     1      40.480 -12.703   0.410  1.00  0.00     0.018 A 
BRANCH  23  26
HETATM   26  C   UNL     1      39.468 -11.247  -2.966  1.00  0.00     0.162 C 
BRANCH  26  27
HETATM   27  N   UNL     1      40.695 -10.569  -3.299  1.00  0.00    -0.339 N 
HETATM   28  C   UNL     1      40.728  -9.202  -3.165  1.00  0.00     0.316 C 
HETATM   29  N   UNL     1      41.906  -8.686  -3.639  1.00  0.00    -0.339 N 
HETATM   30  O   UNL     1      39.813  -8.545  -2.690  1.00  0.00    -0.247 OA
HETATM   31  H   UNL     1      42.685  -9.325  -3.597  1.00  0.00     0.164 HD
HETATM   32  H   UNL     1      41.210 -10.928  -4.088  1.00  0.00     0.164 HD
BRANCH  29  33
HETATM   33  C   UNL     1      42.232  -7.263  -3.595  1.00  0.00     0.078 C 
HETATM   34  C   UNL     1      43.014  -6.879  -2.338  1.00  0.00     0.032 C 
HETATM   35  C   UNL     1      42.944  -6.793  -4.861  1.00  0.00     0.032 C 
ENDBRANCH  29  33
ENDBRANCH  26  27
ENDBRANCH  23  26
ENDBRANCH   1  20
TORSDOF 9
ENDMDL
MODEL 6
REMARK VINA RESULT:      -8.0      1.723      2.660
REMARK  9 active torsions:
REMARK  status: ('A' for Active; 'I' for Inactive)
REMARK    1  A    between atoms: C_3  and  C_4 
REMARK    2  A    between atoms: C_4  and  O_5 
REMARK    3  A    between atoms: C_8  and  C_9 
REMARK    4  A    between atoms: C_9  and  O_10 
REMARK    5  A    between atoms: O_10  and  C_11 
REMARK    6  A    between atoms: C_11  and  C_12 
REMARK    7  A    between atoms: C_15  and  C_16 
REMARK    8  A    between atoms: C_16  and  N_17 
REMARK       I    between atoms: N_17  and  C_18 
REMARK       I    between atoms: C_18  and  N_19 
REMARK    9  A    between atoms: N_19  and  C_20 
ROOT
HETATM    1  C   UNL     1      41.200 -13.367   1.884  1.00  0.00     0.293 C 
HETATM    2  O   UNL     1      41.320 -13.024   0.720  1.00  0.00    -0.259 OA
ENDROOT
BRANCH   1   3
HETATM    3  O   UNL     1      41.433 -14.608   2.377  1.00  0.00    -0.311 OA
BRANCH   3   4
HETATM    4  C   UNL     1      42.792 -14.864   2.767  1.00  0.00     0.239 C 
BRANCH   4   5
HETATM    5  C   UNL     1      43.034 -16.121   3.571  1.00  0.00     0.076 A 
HETATM    6  C   UNL     1      43.070 -16.145   4.962  1.00  0.00     0.073 A 
HETATM    7  C   UNL     1      43.386 -17.351   5.626  1.00  0.00    -0.031 A 
HETATM    8  C   UNL     1      43.513 -17.399   7.129  1.00  0.00     0.050 C 
HETATM    9  C   UNL     1      43.574 -18.528   4.848  1.00  0.00    -0.000 A 
HETATM   10  C   UNL     1      43.508 -18.402   3.443  1.00  0.00     0.068 A 
HETATM   11  C   UNL     1      43.827 -19.813   5.390  1.00  0.00     0.014 A 
HETATM   12  N   UNL     1      43.276 -17.236   2.828  1.00  0.00    -0.249 NA
HETATM   13  C   UNL     1      43.700 -19.522   2.647  1.00  0.00     0.032 A 
HETATM   14  C   UNL     1      43.954 -20.780   3.193  1.00  0.00     0.002 A 
HETATM   15  C   UNL     1      44.016 -20.927   4.569  1.00  0.00     0.001 A 
BRANCH   6  16
HETATM   16  C   UNL     1      42.835 -14.890   5.697  1.00  0.00     0.295 C 
HETATM   17  O   UNL     1      41.730 -14.451   5.963  1.00  0.00    -0.259 OA
BRANCH  16  18
HETATM   18  O   UNL     1      44.032 -14.343   6.021  1.00  0.00    -0.322 OA
HETATM   19  C   UNL     1      43.949 -12.977   6.429  1.00  0.00     0.213 C 
ENDBRANCH  16  18
ENDBRANCH   6  16
ENDBRANCH   4   5
ENDBRANCH   3   4
ENDBRANCH   1   3
BRANCH   1  20
HETATM   20  C   UNL     1      40.903 -12.408   2.985  1.00  0.00     0.039 A 
HETATM   21  C   UNL     1      41.874 -11.448   3.299  1.00  0.00     0.018 A 
HETATM   22  C   UNL     1      41.735 -10.645   4.436  1.00  0.00     0.010 A 
HETATM   23  C   UNL     1      40.629 -10.802   5.283  1.00  0.00    -0.040 A 
HETATM   24  C   UNL     1      39.625 -11.714   4.928  1.00  0.00     0.010 A 
HETATM   25  C   UNL     1      39.761 -12.514   3.788  1.00  0.00     0.018 A 
BRANCH  23  26
HETATM   26  C   UNL     1      40.549 -10.038   6.578  1.00  0.00     0.162 C 
BRANCH  26  27
HETATM   27  N   UNL     1      41.570 -10.437   7.515  1.00  0.00    -0.339 N 
HETATM   28  C   UNL     1      41.753  -9.659   8.633  1.00  0.00     0.316 C 
HETATM   29  N   UNL     1      42.836 -10.082   9.358  1.00  0.00    -0.339 N 
HETATM   30  O   UNL     1      41.039  -8.711   8.924  1.00  0.00    -0.247 OA
HETATM   31  H   UNL     1      43.049 -11.062   9.252  1.00  0.00     0.164 HD
HETATM   32  H   UNL     1      42.416 -10.820   7.124  1.00  0.00     0.164 HD
BRANCH  29  33
HETATM   33  C   UNL     1      43.250  -9.462  10.615  1.00  0.00     0.078 C 
HETATM   34  C   UNL     1      42.535 -10.059  11.827  1.00  0.00     0.032 C 
HETATM   35  C   UNL     1      44.766  -9.479  10.796  1.00  0.00     0.032 C 
ENDBRANCH  29  33
ENDBRANCH  26  27
ENDBRANCH  23  26
ENDBRANCH   1  20
TORSDOF 9
ENDMDL
MODEL 7
REMARK VINA RESULT:      -7.9      2.062      3.180
REMARK  9 active torsions:
REMARK  status: ('A' for Active; 'I' for Inactive)
REMARK    1  A    between atoms: C_3  and  C_4 
REMARK    2  A    between atoms: C_4  and  O_5 
REMARK    3  A    between atoms: C_8  and  C_9 
REMARK    4  A    between atoms: C_9  and  O_10 
REMARK    5  A    between atoms: O_10  and  C_11 
REMARK    6  A    between atoms: C_11  and  C_12 
REMARK    7  A    between atoms: C_15  and  C_16 
REMARK    8  A    between atoms: C_16  and  N_17 
REMARK       I    between atoms: N_17  and  C_18 
REMARK       I    between atoms: C_18  and  N_19 
REMARK    9  A    between atoms: N_19  and  C_20 
ROOT
HETATM    1  C   UNL     1      44.553 -11.706   6.332  1.00  0.00     0.293 C 
HETATM    2  O   UNL     1      44.934 -11.190   5.296  1.00  0.00    -0.259 OA
ENDROOT
BRANCH   1   3
HETATM    3  O   UNL     1      44.520 -13.035   6.597  1.00  0.00    -0.311 OA
BRANCH   3   4
HETATM    4  C   UNL     1      43.237 -13.660   6.428  1.00  0.00     0.239 C 
BRANCH   4   5
HETATM    5  C   UNL     1      43.112 -14.634   5.279  1.00  0.00     0.076 A 
HETATM    6  C   UNL     1      42.412 -14.351   4.109  1.00  0.00     0.073 A 
HETATM    7  C   UNL     1      42.277 -15.354   3.124  1.00  0.00    -0.031 A 
HETATM    8  C   UNL     1      41.461 -15.112   1.878  1.00  0.00     0.050 C 
HETATM    9  C   UNL     1      42.937 -16.599   3.324  1.00  0.00    -0.000 A 
HETATM   10  C   UNL     1      43.629 -16.785   4.540  1.00  0.00     0.068 A 
HETATM   11  C   UNL     1      42.940 -17.662   2.387  1.00  0.00     0.014 A 
HETATM   12  N   UNL     1      43.688 -15.847   5.493  1.00  0.00    -0.249 NA
HETATM   13  C   UNL     1      44.274 -17.989   4.782  1.00  0.00     0.032 A 
HETATM   14  C   UNL     1      44.266 -19.030   3.853  1.00  0.00     0.002 A 
HETATM   15  C   UNL     1      43.598 -18.866   2.650  1.00  0.00     0.001 A 
BRANCH   6  16
HETATM   16  C   UNL     1      41.782 -13.027   3.964  1.00  0.00     0.295 C 
HETATM   17  O   UNL     1      42.310 -12.076   3.415  1.00  0.00    -0.259 OA
BRANCH  16  18
HETATM   18  O   UNL     1      40.547 -13.068   4.522  1.00  0.00    -0.322 OA
HETATM   19  C   UNL     1      39.534 -12.456   3.723  1.00  0.00     0.213 C 
ENDBRANCH  16  18
ENDBRANCH   6  16
ENDBRANCH   4   5
ENDBRANCH   3   4
ENDBRANCH   1   3
BRANCH   1  20
HETATM   20  C   UNL     1      44.186 -10.918   7.543  1.00  0.00     0.039 A 
HETATM   21  C   UNL     1      42.961 -10.238   7.538  1.00  0.00     0.018 A 
HETATM   22  C   UNL     1      42.646  -9.338   8.561  1.00  0.00     0.010 A 
HETATM   23  C   UNL     1      43.558  -9.094   9.597  1.00  0.00    -0.040 A 
HETATM   24  C   UNL     1      44.753  -9.829   9.636  1.00  0.00     0.010 A 
HETATM   25  C   UNL     1      45.067 -10.733   8.616  1.00  0.00     0.018 A 
BRANCH  23  26
HETATM   26  C   UNL     1      43.280  -8.025  10.620  1.00  0.00     0.162 C 
BRANCH  26  27
HETATM   27  N   UNL     1      42.090  -8.296  11.387  1.00  0.00    -0.339 N 
HETATM   28  C   UNL     1      41.372  -7.223  11.855  1.00  0.00     0.316 C 
HETATM   29  N   UNL     1      40.350  -7.629  12.673  1.00  0.00    -0.339 N 
HETATM   30  O   UNL     1      41.629  -6.061  11.577  1.00  0.00    -0.247 OA
HETATM   31  H   UNL     1      40.008  -8.558  12.478  1.00  0.00     0.164 HD
HETATM   32  H   UNL     1      42.128  -9.084  12.014  1.00  0.00     0.164 HD
BRANCH  29  33
HETATM   33  C   UNL     1      39.400  -6.706  13.288  1.00  0.00     0.078 C 
HETATM   34  C   UNL     1      37.947  -7.122  13.064  1.00  0.00     0.032 C 
HETATM   35  C   UNL     1      39.694  -6.476  14.770  1.00  0.00     0.032 C 
ENDBRANCH  29  33
ENDBRANCH  26  27
ENDBRANCH  23  26
ENDBRANCH   1  20
TORSDOF 9
ENDMDL
MODEL 8
REMARK VINA RESULT:      -7.8      2.124      2.773
REMARK  9 active torsions:
REMARK  status: ('A' for Active; 'I' for Inactive)
REMARK    1  A    between atoms: C_3  and  C_4 
REMARK    2  A    between atoms: C_4  and  O_5 
REMARK    3  A    between atoms: C_8  and  C_9 
REMARK    4  A    between atoms: C_9  and  O_10 
REMARK    5  A    between atoms: O_10  and  C_11 
REMARK    6  A    between atoms: C_11  and  C_12 
REMARK    7  A    between atoms: C_15  and  C_16 
REMARK    8  A    between atoms: C_16  and  N_17 
REMARK       I    between atoms: N_17  and  C_18 
REMARK       I    between atoms: C_18  and  N_19 
REMARK    9  A    between atoms: N_19  and  C_20 
ROOT
HETATM    1  C   UNL     1      40.164 -12.494   2.691  1.00  0.00     0.293 C 
HETATM    2  O   UNL     1      39.406 -12.142   1.803  1.00  0.00    -0.259 OA
ENDROOT
BRANCH   1   3
HETATM    3  O   UNL     1      41.013 -13.549   2.643  1.00  0.00    -0.311 OA
BRANCH   3   4
HETATM    4  C   UNL     1      40.540 -14.743   3.287  1.00  0.00     0.239 C 
BRANCH   4   5
HETATM    5  C   UNL     1      41.593 -15.753   3.684  1.00  0.00     0.076 A 
HETATM    6  C   UNL     1      42.383 -15.627   4.823  1.00  0.00     0.073 A 
HETATM    7  C   UNL     1      43.400 -16.576   5.068  1.00  0.00    -0.031 A 
HETATM    8  C   UNL     1      44.329 -16.430   6.248  1.00  0.00     0.050 C 
HETATM    9  C   UNL     1      43.527 -17.683   4.183  1.00  0.00    -0.000 A 
HETATM   10  C   UNL     1      42.671 -17.725   3.061  1.00  0.00     0.068 A 
HETATM   11  C   UNL     1      44.456 -18.740   4.351  1.00  0.00     0.014 A 
HETATM   12  N   UNL     1      41.759 -16.779   2.806  1.00  0.00    -0.249 NA
HETATM   13  C   UNL     1      42.771 -18.780   2.164  1.00  0.00     0.032 A 
HETATM   14  C   UNL     1      43.694 -19.811   2.339  1.00  0.00     0.002 A 
HETATM   15  C   UNL     1      44.539 -19.792   3.437  1.00  0.00     0.001 A 
BRANCH   6  16
HETATM   16  C   UNL     1      42.171 -14.467   5.706  1.00  0.00     0.295 C 
HETATM   17  O   UNL     1      41.343 -14.432   6.599  1.00  0.00    -0.259 OA
BRANCH  16  18
HETATM   18  O   UNL     1      43.045 -13.490   5.362  1.00  0.00    -0.322 OA
HETATM   19  C   UNL     1      43.509 -12.717   6.470  1.00  0.00     0.213 C 
ENDBRANCH  16  18
ENDBRANCH   6  16
ENDBRANCH   4   5
ENDBRANCH   3   4
ENDBRANCH   1   3
BRANCH   1  20
HETATM   20  C   UNL     1      40.369 -11.708   3.940  1.00  0.00     0.039 A 
HETATM   21  C   UNL     1      39.456 -11.889   4.988  1.00  0.00     0.018 A 
HETATM   22  C   UNL     1      39.486 -11.051   6.107  1.00  0.00     0.010 A 
HETATM   23  C   UNL     1      40.421 -10.010   6.188  1.00  0.00    -0.040 A 
HETATM   24  C   UNL     1      41.378  -9.877   5.172  1.00  0.00     0.010 A 
HETATM   25  C   UNL     1      41.352 -10.717   4.054  1.00  0.00     0.018 A 
BRANCH  23  26
HETATM   26  C   UNL     1      40.365  -9.023   7.324  1.00  0.00     0.162 C 
BRANCH  26  27
HETATM   27  N   UNL     1      40.589  -9.647   8.605  1.00  0.00    -0.339 N 
HETATM   28  C   UNL     1      39.732  -9.330   9.630  1.00  0.00     0.316 C 
HETATM   29  N   UNL     1      40.145  -9.890  10.811  1.00  0.00    -0.339 N 
HETATM   30  O   UNL     1      38.739  -8.631   9.493  1.00  0.00    -0.247 OA
HETATM   31  H   UNL     1      40.685 -10.735  10.702  1.00  0.00     0.164 HD
HETATM   32  H   UNL     1      41.551  -9.774   8.882  1.00  0.00     0.164 HD
BRANCH  29  33
HETATM   33  C   UNL     1      39.408  -9.749  12.065  1.00  0.00     0.078 C 
HETATM   34  C   UNL     1      39.454 -11.017  12.918  1.00  0.00     0.032 C 
HETATM   35  C   UNL     1      39.850  -8.523  12.861  1.00  0.00     0.032 C 
ENDBRANCH  29  33
ENDBRANCH  26  27
ENDBRANCH  23  26
ENDBRANCH   1  20
TORSDOF 9
ENDMDL
MODEL 9
REMARK VINA RESULT:      -7.8      6.165      9.366
REMARK  9 active torsions:
REMARK  status: ('A' for Active; 'I' for Inactive)
REMARK    1  A    between atoms: C_3  and  C_4 
REMARK    2  A    between atoms: C_4  and  O_5 
REMARK    3  A    between atoms: C_8  and  C_9 
REMARK    4  A    between atoms: C_9  and  O_10 
REMARK    5  A    between atoms: O_10  and  C_11 
REMARK    6  A    between atoms: C_11  and  C_12 
REMARK    7  A    between atoms: C_15  and  C_16 
REMARK    8  A    between atoms: C_16  and  N_17 
REMARK       I    between atoms: N_17  and  C_18 
REMARK       I    between atoms: C_18  and  N_19 
REMARK    9  A    between atoms: N_19  and  C_20 
ROOT
HETATM    1  C   UNL     1      40.394 -15.131   0.799  1.00  0.00     0.293 C 
HETATM    2  O   UNL     1      39.702 -16.036   1.231  1.00  0.00    -0.259 OA
ENDROOT
BRANCH   1   3
HETATM    3  O   UNL     1      41.715 -14.950   1.043  1.00  0.00    -0.311 OA
BRANCH   3   4
HETATM    4  C   UNL     1      42.050 -14.665   2.412  1.00  0.00     0.239 C 
BRANCH   4   5
HETATM    5  C   UNL     1      42.532 -15.834   3.240  1.00  0.00     0.076 A 
HETATM    6  C   UNL     1      42.748 -15.760   4.614  1.00  0.00     0.073 A 
HETATM    7  C   UNL     1      43.280 -16.879   5.291  1.00  0.00    -0.031 A 
HETATM    8  C   UNL     1      43.602 -16.813   6.764  1.00  0.00     0.050 C 
HETATM    9  C   UNL     1      43.500 -18.079   4.558  1.00  0.00    -0.000 A 
HETATM   10  C   UNL     1      43.242 -18.055   3.171  1.00  0.00     0.068 A 
HETATM   11  C   UNL     1      43.963 -19.291   5.128  1.00  0.00     0.014 A 
HETATM   12  N   UNL     1      42.802 -16.963   2.532  1.00  0.00    -0.249 NA
HETATM   13  C   UNL     1      43.456 -19.199   2.416  1.00  0.00     0.032 A 
HETATM   14  C   UNL     1      43.918 -20.385   2.988  1.00  0.00     0.002 A 
HETATM   15  C   UNL     1      44.171 -20.432   4.349  1.00  0.00     0.001 A 
BRANCH   6  16
HETATM   16  C   UNL     1      42.469 -14.490   5.307  1.00  0.00     0.295 C 
HETATM   17  O   UNL     1      41.397 -14.212   5.815  1.00  0.00    -0.259 OA
BRANCH  16  18
HETATM   18  O   UNL     1      43.587 -13.726   5.285  1.00  0.00    -0.322 OA
HETATM   19  C   UNL     1      43.886 -13.108   6.537  1.00  0.00     0.213 C 
ENDBRANCH  16  18
ENDBRANCH   6  16
ENDBRANCH   4   5
ENDBRANCH   3   4
ENDBRANCH   1   3
BRANCH   1  20
HETATM   20  C   UNL     1      39.903 -14.141  -0.201  1.00  0.00     0.039 A 
HETATM   21  C   UNL     1      39.940 -12.784   0.144  1.00  0.00     0.018 A 
HETATM   22  C   UNL     1      39.326 -11.828  -0.671  1.00  0.00     0.010 A 
HETATM   23  C   UNL     1      38.652 -12.217  -1.836  1.00  0.00    -0.040 A 
HETATM   24  C   UNL     1      38.676 -13.568  -2.215  1.00  0.00     0.010 A 
HETATM   25  C   UNL     1      39.295 -14.524  -1.403  1.00  0.00     0.018 A 
BRANCH  23  26
HETATM   26  C   UNL     1      37.873 -11.209  -2.638  1.00  0.00     0.162 C 
BRANCH  26  27
HETATM   27  N   UNL     1      36.718 -11.789  -3.277  1.00  0.00    -0.339 N 
HETATM   28  C   UNL     1      35.597 -11.007  -3.407  1.00  0.00     0.316 C 
HETATM   29  N   UNL     1      34.545 -11.728  -3.908  1.00  0.00    -0.339 N 
HETATM   30  O   UNL     1      35.555  -9.824  -3.100  1.00  0.00    -0.247 OA
HETATM   31  H   UNL     1      34.817 -12.511  -4.484  1.00  0.00     0.164 HD
HETATM   32  H   UNL     1      36.535 -12.761  -3.080  1.00  0.00     0.164 HD
BRANCH  29  33
HETATM   33  C   UNL     1      33.233 -11.147  -4.183  1.00  0.00     0.078 C 
HETATM   34  C   UNL     1      32.564 -10.589  -2.927  1.00  0.00     0.032 C 
HETATM   35  C   UNL     1      33.285 -10.105  -5.298  1.00  0.00     0.032 C 
ENDBRANCH  29  33
ENDBRANCH  26  27
ENDBRANCH  23  26
ENDBRANCH   1  20
TORSDOF 9
ENDMDL
MODEL 10
REMARK VINA RESULT:      -7.6     17.103     20.832
REMARK  9 active torsions:
REMARK  status: ('A' for Active; 'I' for Inactive)
REMARK    1  A    between atoms: C_3  and  C_4 
REMARK    2  A    between atoms: C_4  and  O_5 
REMARK    3  A    between atoms: C_8  and  C_9 
REMARK    4  A    between atoms: C_9  and  O_10 
REMARK    5  A    between atoms: O_10  and  C_11 
REMARK    6  A    between atoms: C_11  and  C_12 
REMARK    7  A    between atoms: C_15  and  C_16 
REMARK    8  A    between atoms: C_16  and  N_17 
REMARK       I    between atoms: N_17  and  C_18 
REMARK       I    between atoms: C_18  and  N_19 
REMARK    9  A    between atoms: N_19  and  C_20 
ROOT
HETATM    1  C   UNL     1      47.127 -28.230   0.226  1.00  0.00     0.293 C 
HETATM    2  O   UNL     1      47.005 -27.873   1.385  1.00  0.00    -0.259 OA
ENDROOT
BRANCH   1   3
HETATM    3  O   UNL     1      46.415 -27.766  -0.831  1.00  0.00    -0.311 OA
BRANCH   3   4
HETATM    4  C   UNL     1      45.034 -28.166  -0.860  1.00  0.00     0.239 C 
BRANCH   4   5
HETATM    5  C   UNL     1      44.716 -29.419  -1.643  1.00  0.00     0.076 A 
HETATM    6  C   UNL     1      44.343 -30.620  -1.046  1.00  0.00     0.073 A 
HETATM    7  C   UNL     1      44.148 -31.763  -1.853  1.00  0.00    -0.031 A 
HETATM    8  C   UNL     1      43.820 -33.101  -1.237  1.00  0.00     0.050 C 
HETATM    9  C   UNL     1      44.256 -31.626  -3.266  1.00  0.00    -0.000 A 
HETATM   10  C   UNL     1      44.631 -30.364  -3.774  1.00  0.00     0.068 A 
HETATM   11  C   UNL     1      44.018 -32.672  -4.191  1.00  0.00     0.014 A 
HETATM   12  N   UNL     1      44.880 -29.308  -2.989  1.00  0.00    -0.249 NA
HETATM   13  C   UNL     1      44.761 -30.190  -5.145  1.00  0.00     0.032 A 
HETATM   14  C   UNL     1      44.529 -31.230  -6.045  1.00  0.00     0.002 A 
HETATM   15  C   UNL     1      44.154 -32.475  -5.567  1.00  0.00     0.001 A 
BRANCH   6  16
HETATM   16  C   UNL     1      44.224 -30.674   0.422  1.00  0.00     0.295 C 
HETATM   17  O   UNL     1      45.147 -30.937   1.172  1.00  0.00    -0.259 OA
BRANCH  16  18
HETATM   18  O   UNL     1      42.948 -30.376   0.767  1.00  0.00    -0.322 OA
HETATM   19  C   UNL     1      42.847 -29.458   1.856  1.00  0.00     0.213 C 
ENDBRANCH  16  18
ENDBRANCH   6  16
ENDBRANCH   4   5
ENDBRANCH   3   4
ENDBRANCH   1   3
BRANCH   1  20
HETATM   20  C   UNL     1      48.202 -29.155  -0.229  1.00  0.00     0.039 A 
HETATM   21  C   UNL     1      48.939 -29.837   0.748  1.00  0.00     0.018 A 
HETATM   22  C   UNL     1      50.076 -30.572   0.395  1.00  0.00     0.010 A 
HETATM   23  C   UNL     1      50.500 -30.623  -0.940  1.00  0.00    -0.040 A 
HETATM   24  C   UNL     1      49.721 -29.998  -1.925  1.00  0.00     0.010 A 
HETATM   25  C   UNL     1      48.581 -29.267  -1.573  1.00  0.00     0.018 A 
BRANCH  23  26
HETATM   26  C   UNL     1      51.798 -31.296  -1.301  1.00  0.00     0.162 C 
BRANCH  26  27
HETATM   27  N   UNL     1      52.253 -30.937  -2.621  1.00  0.00    -0.339 N 
HETATM   28  C   UNL     1      52.912 -31.895  -3.353  1.00  0.00     0.316 C 
HETATM   29  N   UNL     1      53.399 -31.375  -4.524  1.00  0.00    -0.339 N 
HETATM   30  O   UNL     1      53.046 -33.054  -2.989  1.00  0.00    -0.247 OA
HETATM   31  H   UNL     1      52.878 -30.586  -4.875  1.00  0.00     0.164 HD
HETATM   32  H   UNL     1      52.606 -30.000  -2.737  1.00  0.00     0.164 HD
BRANCH  29  33
HETATM   33  C   UNL     1      54.114 -32.172  -5.518  1.00  0.00     0.078 C 
HETATM   34  C   UNL     1      53.503 -32.055  -6.914  1.00  0.00     0.032 C 
HETATM   35  C   UNL     1      55.611 -31.867  -5.535  1.00  0.00     0.032 C 
ENDBRANCH  29  33
ENDBRANCH  26  27
ENDBRANCH  23  26
ENDBRANCH   1  20
TORSDOF 9
ENDMDL
