MODEL 1
REMARK VINA RESULT:      -8.3      0.000      0.000
REMARK  3 active torsions:
REMARK  status: ('A' for Active; 'I' for Inactive)
REMARK    1  A    between atoms: C_2  and  N_3 
REMARK       I    between atoms: N_3  and  C_4 
REMARK    2  A    between atoms: C_4  and  C_5 
REMARK    3  A    between atoms: C_5  and  C_6 
ROOT
HETATM    1  C   UNL     1      41.452 -15.948   5.487  1.00  0.00     0.286 C 
HETATM    2  N   UNL     1      42.327 -14.949   4.735  1.00  0.00    -0.056 N 
HETATM    3  H   UNL     1      42.863 -14.447   5.476  1.00  0.00     0.278 HD
HETATM    4  H   UNL     1      43.027 -15.427   4.154  1.00  0.00     0.278 HD
HETATM    5  C   UNL     1      41.570 -13.919   3.946  1.00  0.00     0.209 C 
HETATM    6  C   UNL     1      40.549 -13.212   4.871  1.00  0.00     0.115 C 
HETATM    7  N   UNL     1      39.743 -14.149   5.654  1.00  0.00    -0.353 N 
HETATM    8  C   UNL     1      40.265 -15.290   6.218  1.00  0.00     0.249 C 
HETATM    9  O   UNL     1      39.725 -15.797   7.196  1.00  0.00    -0.271 OA
HETATM   10  C   UNL     1      40.928 -14.567   2.716  1.00  0.00     0.035 C 
HETATM   11  C   UNL     1      40.076 -13.561   1.948  1.00  0.00     0.002 C 
HETATM   12  C   UNL     1      39.024 -12.920   2.851  1.00  0.00     0.002 C 
HETATM   13  C   UNL     1      39.659 -12.253   4.072  1.00  0.00     0.027 C 
HETATM   14  H   UNL     1      38.986 -13.761   6.214  1.00  0.00     0.163 HD
ENDROOT
BRANCH   1  15
HETATM   15  C   UNL     1      42.294 -16.815   6.433  1.00  0.00     0.146 C 
BRANCH  15  16
HETATM   16  C   UNL     1      43.765 -16.590   6.205  1.00  0.00     0.224 C 
HETATM   17  N   UNL     1      44.491 -17.324   5.323  1.00  0.00    -0.327 N 
HETATM   18  H   UNL     1      45.482 -17.099   5.381  1.00  0.00     0.169 HD
HETATM   19  O   UNL     1      44.319 -15.664   6.816  1.00  0.00    -0.273 OA
BRANCH  17  20
HETATM   20  C   UNL     1      44.165 -18.301   4.360  1.00  0.00     0.034 A 
HETATM   21  C   UNL     1      44.245 -19.684   4.541  1.00  0.00     0.032 A 
HETATM   22  C   UNL     1      43.863 -20.559   3.516  1.00  0.00     0.044 A 
HETATM   23  C   UNL     1      43.396 -20.055   2.310  1.00  0.00     0.116 A 
HETATM   24  C   UNL     1      43.299 -18.688   2.109  1.00  0.00     0.044 A 
HETATM   25  F   UNL     1      43.028 -20.899   1.339  1.00  0.00    -0.206 F 
HETATM   26  C   UNL     1      43.678 -17.815   3.133  1.00  0.00     0.032 A 
ENDBRANCH  17  20
ENDBRANCH  15  16
ENDBRANCH   1  15
TORSDOF 3
ENDMDL
MODEL 2
REMARK VINA RESULT:      -8.1      1.769      2.202
REMARK  3 active torsions:
REMARK  status: ('A' for Active; 'I' for Inactive)
REMARK    1  A    between atoms: C_2  and  N_3 
REMARK       I    between atoms: N_3  and  C_4 
REMARK    2  A    between atoms: C_4  and  C_5 
REMARK    3  A    between atoms: C_5  and  C_6 
ROOT
HETATM    1  C   UNL     1      41.781 -15.020   5.525  1.00  0.00     0.286 C 
HETATM    2  N   UNL     1      43.218 -14.508   5.543  1.00  0.00    -0.056 N 
HETATM    3  H   UNL     1      43.535 -14.626   6.529  1.00  0.00     0.278 HD
HETATM    4  H   UNL     1      43.834 -15.102   4.975  1.00  0.00     0.278 HD
HETATM    5  C   UNL     1      43.372 -13.057   5.185  1.00  0.00     0.209 C 
HETATM    6  C   UNL     1      42.444 -12.205   6.086  1.00  0.00     0.115 C 
HETATM    7  N   UNL     1      41.074 -12.716   6.139  1.00  0.00    -0.353 N 
HETATM    8  C   UNL     1      40.782 -14.059   6.200  1.00  0.00     0.249 C 
HETATM    9  O   UNL     1      39.718 -14.438   6.680  1.00  0.00    -0.271 OA
HETATM   10  C   UNL     1      43.120 -12.854   3.689  1.00  0.00     0.035 C 
HETATM   11  C   UNL     1      43.180 -11.376   3.318  1.00  0.00     0.002 C 
HETATM   12  C   UNL     1      42.209 -10.552   4.161  1.00  0.00     0.002 C 
HETATM   13  C   UNL     1      42.466 -10.733   5.657  1.00  0.00     0.027 C 
HETATM   14  H   UNL     1      40.383 -12.155   6.635  1.00  0.00     0.163 HD
ENDROOT
BRANCH   1  15
HETATM   15  C   UNL     1      41.693 -16.437   6.112  1.00  0.00     0.146 C 
BRANCH  15  16
HETATM   16  C   UNL     1      43.024 -16.876   6.663  1.00  0.00     0.224 C 
HETATM   17  N   UNL     1      43.799 -17.807   6.051  1.00  0.00    -0.327 N 
HETATM   18  H   UNL     1      44.608 -18.047   6.620  1.00  0.00     0.169 HD
HETATM   19  O   UNL     1      43.444 -16.324   7.691  1.00  0.00    -0.273 OA
BRANCH  17  20
HETATM   20  C   UNL     1      43.726 -18.485   4.817  1.00  0.00     0.034 A 
HETATM   21  C   UNL     1      43.469 -17.896   3.577  1.00  0.00     0.032 A 
HETATM   22  C   UNL     1      43.451 -18.672   2.410  1.00  0.00     0.044 A 
HETATM   23  C   UNL     1      43.693 -20.036   2.480  1.00  0.00     0.116 A 
HETATM   24  C   UNL     1      43.958 -20.643   3.696  1.00  0.00     0.044 A 
HETATM   25  F   UNL     1      43.679 -20.769   1.360  1.00  0.00    -0.206 F 
HETATM   26  C   UNL     1      43.979 -19.868   4.859  1.00  0.00     0.032 A 
ENDBRANCH  17  20
ENDBRANCH  15  16
ENDBRANCH   1  15
TORSDOF 3
ENDMDL
MODEL 3
REMARK VINA RESULT:      -7.9      2.756      3.743
REMARK  3 active torsions:
REMARK  status: ('A' for Active; 'I' for Inactive)
REMARK    1  A    between atoms: C_2  and  N_3 
REMARK       I    between atoms: N_3  and  C_4 
REMARK    2  A    between atoms: C_4  and  C_5 
REMARK    3  A    between atoms: C_5  and  C_6 
ROOT
HETATM    1  C   UNL     1      40.140 -14.858   2.047  1.00  0.00     0.286 C 
HETATM    2  N   UNL     1      41.063 -14.842   0.832  1.00  0.00    -0.056 N 
HETATM    3  H   UNL     1      41.905 -14.308   1.139  1.00  0.00     0.278 HD
HETATM    4  H   UNL     1      41.395 -15.786   0.602  1.00  0.00     0.278 HD
HETATM    5  C   UNL     1      40.501 -14.149  -0.376  1.00  0.00     0.209 C 
HETATM    6  C   UNL     1      40.039 -12.724   0.018  1.00  0.00     0.115 C 
HETATM    7  N   UNL     1      39.206 -12.706   1.221  1.00  0.00    -0.353 N 
HETATM    8  C   UNL     1      39.460 -13.500   2.315  1.00  0.00     0.249 C 
HETATM    9  O   UNL     1      39.059 -13.167   3.425  1.00  0.00    -0.271 OA
HETATM   10  C   UNL     1      39.389 -14.997  -0.998  1.00  0.00     0.035 C 
HETATM   11  C   UNL     1      38.738 -14.272  -2.172  1.00  0.00     0.002 C 
HETATM   12  C   UNL     1      38.221 -12.896  -1.759  1.00  0.00     0.002 C 
HETATM   13  C   UNL     1      39.330 -12.035  -1.153  1.00  0.00     0.027 C 
HETATM   14  H   UNL     1      38.787 -11.817   1.488  1.00  0.00     0.163 HD
ENDROOT
BRANCH   1  15
HETATM   15  C   UNL     1      40.873 -15.384   3.289  1.00  0.00     0.146 C 
BRANCH  15  16
HETATM   16  C   UNL     1      42.314 -14.947   3.291  1.00  0.00     0.224 C 
HETATM   17  N   UNL     1      43.346 -15.828   3.339  1.00  0.00    -0.327 N 
HETATM   18  H   UNL     1      44.238 -15.347   3.434  1.00  0.00     0.169 HD
HETATM   19  O   UNL     1      42.560 -13.736   3.195  1.00  0.00    -0.273 OA
BRANCH  17  20
HETATM   20  C   UNL     1      43.439 -17.233   3.273  1.00  0.00     0.034 A 
HETATM   21  C   UNL     1      43.022 -18.028   2.202  1.00  0.00     0.032 A 
HETATM   22  C   UNL     1      43.195 -19.418   2.240  1.00  0.00     0.044 A 
HETATM   23  C   UNL     1      43.787 -20.016   3.343  1.00  0.00     0.116 A 
HETATM   24  C   UNL     1      44.216 -19.248   4.413  1.00  0.00     0.044 A 
HETATM   25  F   UNL     1      43.953 -21.343   3.367  1.00  0.00    -0.206 F 
HETATM   26  C   UNL     1      44.046 -17.861   4.374  1.00  0.00     0.032 A 
ENDBRANCH  17  20
ENDBRANCH  15  16
ENDBRANCH   1  15
TORSDOF 3
ENDMDL
MODEL 4
REMARK VINA RESULT:      -7.7      2.544      3.387
REMARK  3 active torsions:
REMARK  status: ('A' for Active; 'I' for Inactive)
REMARK    1  A    between atoms: C_2  and  N_3 
REMARK       I    between atoms: N_3  and  C_4 
REMARK    2  A    between atoms: C_4  and  C_5 
REMARK    3  A    between atoms: C_5  and  C_6 
ROOT
HETATM    1  C   UNL     1      41.288 -14.699   4.308  1.00  0.00     0.286 C 
HETATM    2  N   UNL     1      42.625 -14.148   3.824  1.00  0.00    -0.056 N 
HETATM    3  H   UNL     1      43.288 -14.950   3.889  1.00  0.00     0.278 HD
HETATM    4  H   UNL     1      42.587 -13.892   2.830  1.00  0.00     0.278 HD
HETATM    5  C   UNL     1      43.183 -13.028   4.657  1.00  0.00     0.209 C 
HETATM    6  C   UNL     1      43.244 -13.473   6.139  1.00  0.00     0.115 C 
HETATM    7  N   UNL     1      41.992 -14.068   6.609  1.00  0.00    -0.353 N 
HETATM    8  C   UNL     1      41.233 -14.915   5.834  1.00  0.00     0.249 C 
HETATM    9  O   UNL     1      40.476 -15.723   6.363  1.00  0.00    -0.271 OA
HETATM   10  C   UNL     1      42.365 -11.753   4.439  1.00  0.00     0.035 C 
HETATM   11  C   UNL     1      42.854 -10.627   5.345  1.00  0.00     0.002 C 
HETATM   12  C   UNL     1      42.843 -11.048   6.812  1.00  0.00     0.002 C 
HETATM   13  C   UNL     1      43.674 -12.311   7.042  1.00  0.00     0.027 C 
HETATM   14  H   UNL     1      41.925 -14.298   7.599  1.00  0.00     0.163 HD
ENDROOT
BRANCH   1  15
HETATM   15  C   UNL     1      40.905 -15.972   3.539  1.00  0.00     0.146 C 
BRANCH  15  16
HETATM   16  C   UNL     1      41.661 -16.065   2.240  1.00  0.00     0.224 C 
HETATM   17  N   UNL     1      42.647 -16.974   2.029  1.00  0.00    -0.327 N 
HETATM   18  H   UNL     1      43.108 -16.819   1.135  1.00  0.00     0.169 HD
HETATM   19  O   UNL     1      41.330 -15.309   1.314  1.00  0.00    -0.273 OA
BRANCH  17  20
HETATM   20  C   UNL     1      43.144 -18.068   2.766  1.00  0.00     0.034 A 
HETATM   21  C   UNL     1      43.198 -19.392   2.323  1.00  0.00     0.032 A 
HETATM   22  C   UNL     1      43.745 -20.392   3.138  1.00  0.00     0.044 A 
HETATM   23  C   UNL     1      44.243 -20.072   4.392  1.00  0.00     0.116 A 
HETATM   24  C   UNL     1      44.209 -18.766   4.850  1.00  0.00     0.044 A 
HETATM   25  F   UNL     1      44.768 -21.034   5.161  1.00  0.00    -0.206 F 
HETATM   26  C   UNL     1      43.665 -17.767   4.037  1.00  0.00     0.032 A 
ENDBRANCH  17  20
ENDBRANCH  15  16
ENDBRANCH   1  15
TORSDOF 3
ENDMDL
MODEL 5
REMARK VINA RESULT:      -7.6      2.245      3.689
REMARK  3 active torsions:
REMARK  status: ('A' for Active; 'I' for Inactive)
REMARK    1  A    between atoms: C_2  and  N_3 
REMARK       I    between atoms: N_3  and  C_4 
REMARK    2  A    between atoms: C_4  and  C_5 
REMARK    3  A    between atoms: C_5  and  C_6 
ROOT
HETATM    1  C   UNL     1      41.952 -13.337   3.021  1.00  0.00     0.286 C 
HETATM    2  N   UNL     1      40.459 -13.623   3.154  1.00  0.00    -0.056 N 
HETATM    3  H   UNL     1      40.402 -14.596   3.525  1.00  0.00     0.278 HD
HETATM    4  H   UNL     1      40.025 -13.023   3.865  1.00  0.00     0.278 HD
HETATM    5  C   UNL     1      39.694 -13.584   1.861  1.00  0.00     0.209 C 
HETATM    6  C   UNL     1      40.374 -14.523   0.834  1.00  0.00     0.115 C 
HETATM    7  N   UNL     1      41.819 -14.314   0.738  1.00  0.00    -0.353 N 
HETATM    8  C   UNL     1      42.612 -14.070   1.836  1.00  0.00     0.249 C 
HETATM    9  O   UNL     1      43.808 -14.338   1.805  1.00  0.00    -0.271 OA
HETATM   10  C   UNL     1      39.565 -12.140   1.370  1.00  0.00     0.035 C 
HETATM   11  C   UNL     1      38.873 -12.082   0.012  1.00  0.00     0.002 C 
HETATM   12  C   UNL     1      39.591 -12.955  -1.015  1.00  0.00     0.002 C 
HETATM   13  C   UNL     1      39.708 -14.404  -0.541  1.00  0.00     0.027 C 
HETATM   14  H   UNL     1      42.321 -14.829   0.016  1.00  0.00     0.163 HD
ENDROOT
BRANCH   1  15
HETATM   15  C   UNL     1      42.686 -13.614   4.342  1.00  0.00     0.146 C 
BRANCH  15  16
HETATM   16  C   UNL     1      41.833 -14.437   5.270  1.00  0.00     0.224 C 
HETATM   17  N   UNL     1      41.726 -15.786   5.165  1.00  0.00    -0.327 N 
HETATM   18  H   UNL     1      41.030 -16.154   5.809  1.00  0.00     0.169 HD
HETATM   19  O   UNL     1      41.246 -13.857   6.196  1.00  0.00    -0.273 OA
BRANCH  17  20
HETATM   20  C   UNL     1      42.371 -16.761   4.376  1.00  0.00     0.034 A 
HETATM   21  C   UNL     1      42.025 -17.111   3.069  1.00  0.00     0.032 A 
HETATM   22  C   UNL     1      42.763 -18.077   2.372  1.00  0.00     0.044 A 
HETATM   23  C   UNL     1      43.849 -18.692   2.978  1.00  0.00     0.116 A 
HETATM   24  C   UNL     1      44.217 -18.357   4.271  1.00  0.00     0.044 A 
HETATM   25  F   UNL     1      44.550 -19.610   2.304  1.00  0.00    -0.206 F 
HETATM   26  C   UNL     1      43.482 -17.391   4.964  1.00  0.00     0.032 A 
ENDBRANCH  17  20
ENDBRANCH  15  16
ENDBRANCH   1  15
TORSDOF 3
ENDMDL
MODEL 6
REMARK VINA RESULT:      -7.5      3.784      5.195
REMARK  3 active torsions:
REMARK  status: ('A' for Active; 'I' for Inactive)
REMARK    1  A    between atoms: C_2  and  N_3 
REMARK       I    between atoms: N_3  and  C_4 
REMARK    2  A    between atoms: C_4  and  C_5 
REMARK    3  A    between atoms: C_5  and  C_6 
ROOT
HETATM    1  C   UNL     1      39.970 -12.863   1.497  1.00  0.00     0.286 C 
HETATM    2  N   UNL     1      40.907 -12.841   0.294  1.00  0.00    -0.056 N 
HETATM    3  H   UNL     1      41.331 -11.888   0.298  1.00  0.00     0.278 HD
HETATM    4  H   UNL     1      41.687 -13.498   0.414  1.00  0.00     0.278 HD
HETATM    5  C   UNL     1      40.230 -13.031  -1.034  1.00  0.00     0.209 C 
HETATM    6  C   UNL     1      39.082 -12.002  -1.177  1.00  0.00     0.115 C 
HETATM    7  N   UNL     1      38.207 -11.956  -0.005  1.00  0.00    -0.353 N 
HETATM    8  C   UNL     1      38.682 -12.042   1.283  1.00  0.00     0.249 C 
HETATM    9  O   UNL     1      38.035 -11.569   2.212  1.00  0.00    -0.271 OA
HETATM   10  C   UNL     1      39.767 -14.482  -1.185  1.00  0.00     0.035 C 
HETATM   11  C   UNL     1      38.994 -14.679  -2.486  1.00  0.00     0.002 C 
HETATM   12  C   UNL     1      37.820 -13.709  -2.587  1.00  0.00     0.002 C 
HETATM   13  C   UNL     1      38.276 -12.255  -2.456  1.00  0.00     0.027 C 
HETATM   14  H   UNL     1      37.375 -11.372  -0.064  1.00  0.00     0.163 HD
ENDROOT
BRANCH   1  15
HETATM   15  C   UNL     1      40.706 -12.444   2.777  1.00  0.00     0.146 C 
BRANCH  15  16
HETATM   16  C   UNL     1      42.152 -12.135   2.491  1.00  0.00     0.224 C 
HETATM   17  N   UNL     1      43.135 -13.066   2.599  1.00  0.00    -0.327 N 
HETATM   18  H   UNL     1      44.054 -12.650   2.467  1.00  0.00     0.169 HD
HETATM   19  O   UNL     1      42.442 -10.996   2.096  1.00  0.00    -0.273 OA
BRANCH  17  20
HETATM   20  C   UNL     1      43.147 -14.455   2.837  1.00  0.00     0.034 A 
HETATM   21  C   UNL     1      43.011 -15.070   4.084  1.00  0.00     0.032 A 
HETATM   22  C   UNL     1      43.008 -16.467   4.192  1.00  0.00     0.044 A 
HETATM   23  C   UNL     1      43.135 -17.252   3.056  1.00  0.00     0.116 A 
HETATM   24  C   UNL     1      43.262 -16.667   1.807  1.00  0.00     0.044 A 
HETATM   25  F   UNL     1      43.125 -18.585   3.168  1.00  0.00    -0.206 F 
HETATM   26  C   UNL     1      43.263 -15.273   1.699  1.00  0.00     0.032 A 
ENDBRANCH  17  20
ENDBRANCH  15  16
ENDBRANCH   1  15
TORSDOF 3
ENDMDL
MODEL 7
REMARK VINA RESULT:      -7.3     13.765     16.454
REMARK  3 active torsions:
REMARK  status: ('A' for Active; 'I' for Inactive)
REMARK    1  A    between atoms: C_2  and  N_3 
REMARK       I    between atoms: N_3  and  C_4 
REMARK    2  A    between atoms: C_4  and  C_5 
REMARK    3  A    between atoms: C_5  and  C_6 
ROOT
HETATM    1  C   UNL     1      48.512 -29.905   1.385  1.00  0.00     0.286 C 
HETATM    2  N   UNL     1      50.031 -29.764   1.378  1.00  0.00    -0.056 N 
HETATM    3  H   UNL     1      50.330 -30.094   0.435  1.00  0.00     0.278 HD
HETATM    4  H   UNL     1      50.316 -28.779   1.437  1.00  0.00     0.278 HD
HETATM    5  C   UNL     1      50.744 -30.603   2.400  1.00  0.00     0.209 C 
HETATM    6  C   UNL     1      50.300 -32.080   2.253  1.00  0.00     0.115 C 
HETATM    7  N   UNL     1      48.847 -32.234   2.189  1.00  0.00    -0.353 N 
HETATM    8  C   UNL     1      48.034 -31.367   1.495  1.00  0.00     0.249 C 
HETATM    9  O   UNL     1      46.939 -31.740   1.088  1.00  0.00    -0.271 OA
HETATM   10  C   UNL     1      50.510 -30.036   3.802  1.00  0.00     0.035 C 
HETATM   11  C   UNL     1      51.147 -30.923   4.867  1.00  0.00     0.002 C 
HETATM   12  C   UNL     1      50.649 -32.363   4.761  1.00  0.00     0.002 C 
HETATM   13  C   UNL     1      50.897 -32.945   3.369  1.00  0.00     0.027 C 
HETATM   14  H   UNL     1      48.476 -33.183   2.187  1.00  0.00     0.163 HD
ENDROOT
BRANCH   1  15
HETATM   15  C   UNL     1      47.887 -29.192   0.177  1.00  0.00     0.146 C 
BRANCH  15  16
HETATM   16  C   UNL     1      46.790 -28.257   0.610  1.00  0.00     0.224 C 
HETATM   17  N   UNL     1      45.703 -27.995  -0.161  1.00  0.00    -0.327 N 
HETATM   18  H   UNL     1      45.125 -27.265   0.251  1.00  0.00     0.169 HD
HETATM   19  O   UNL     1      46.865 -27.747   1.738  1.00  0.00    -0.273 OA
BRANCH  17  20
HETATM   20  C   UNL     1      45.215 -28.517  -1.376  1.00  0.00     0.034 A 
HETATM   21  C   UNL     1      44.347 -29.604  -1.505  1.00  0.00     0.032 A 
HETATM   22  C   UNL     1      43.905 -30.014  -2.770  1.00  0.00     0.044 A 
HETATM   23  C   UNL     1      44.325 -29.338  -3.906  1.00  0.00     0.116 A 
HETATM   24  C   UNL     1      45.179 -28.252  -3.803  1.00  0.00     0.044 A 
HETATM   25  F   UNL     1      43.893 -29.734  -5.109  1.00  0.00    -0.206 F 
HETATM   26  C   UNL     1      45.618 -27.842  -2.541  1.00  0.00     0.032 A 
ENDBRANCH  17  20
ENDBRANCH  15  16
ENDBRANCH   1  15
TORSDOF 3
ENDMDL
MODEL 8
REMARK VINA RESULT:      -7.3      3.867      5.290
REMARK  3 active torsions:
REMARK  status: ('A' for Active; 'I' for Inactive)
REMARK    1  A    between atoms: C_2  and  N_3 
REMARK       I    between atoms: N_3  and  C_4 
REMARK    2  A    between atoms: C_4  and  C_5 
REMARK    3  A    between atoms: C_5  and  C_6 
ROOT
HETATM    1  C   UNL     1      42.266 -11.718   5.390  1.00  0.00     0.286 C 
HETATM    2  N   UNL     1      42.778 -12.552   6.560  1.00  0.00    -0.056 N 
HETATM    3  H   UNL     1      41.934 -12.756   7.137  1.00  0.00     0.278 HD
HETATM    4  H   UNL     1      43.132 -13.463   6.244  1.00  0.00     0.278 HD
HETATM    5  C   UNL     1      43.774 -11.854   7.442  1.00  0.00     0.209 C 
HETATM    6  C   UNL     1      43.184 -10.501   7.912  1.00  0.00     0.115 C 
HETATM    7  N   UNL     1      42.624  -9.711   6.815  1.00  0.00    -0.353 N 
HETATM    8  C   UNL     1      41.906 -10.271   5.783  1.00  0.00     0.249 C 
HETATM    9  O   UNL     1      41.099  -9.594   5.155  1.00  0.00    -0.271 OA
HETATM   10  C   UNL     1      45.113 -11.712   6.713  1.00  0.00     0.035 C 
HETATM   11  C   UNL     1      46.113 -10.923   7.553  1.00  0.00     0.002 C 
HETATM   12  C   UNL     1      45.552  -9.561   7.952  1.00  0.00     0.002 C 
HETATM   13  C   UNL     1      44.224  -9.694   8.698  1.00  0.00     0.027 C 
HETATM   14  H   UNL     1      42.304  -8.769   7.032  1.00  0.00     0.163 HD
ENDROOT
BRANCH   1  15
HETATM   15  C   UNL     1      41.100 -12.421   4.680  1.00  0.00     0.146 C 
BRANCH  15  16
HETATM   16  C   UNL     1      40.402 -13.378   5.609  1.00  0.00     0.224 C 
HETATM   17  N   UNL     1      40.457 -14.726   5.450  1.00  0.00    -0.327 N 
HETATM   18  H   UNL     1      39.843 -15.201   6.108  1.00  0.00     0.169 HD
HETATM   19  O   UNL     1      39.794 -12.912   6.583  1.00  0.00    -0.273 OA
BRANCH  17  20
HETATM   20  C   UNL     1      41.177 -15.582   4.593  1.00  0.00     0.034 A 
HETATM   21  C   UNL     1      40.803 -15.940   3.295  1.00  0.00     0.032 A 
HETATM   22  C   UNL     1      41.620 -16.778   2.525  1.00  0.00     0.044 A 
HETATM   23  C   UNL     1      42.813 -17.257   3.047  1.00  0.00     0.116 A 
HETATM   24  C   UNL     1      43.210 -16.910   4.328  1.00  0.00     0.044 A 
HETATM   25  F   UNL     1      43.589 -18.053   2.302  1.00  0.00    -0.206 F 
HETATM   26  C   UNL     1      42.396 -16.072   5.095  1.00  0.00     0.032 A 
ENDBRANCH  17  20
ENDBRANCH  15  16
ENDBRANCH   1  15
TORSDOF 3
ENDMDL
MODEL 9
REMARK VINA RESULT:      -7.2      3.941      6.948
REMARK  3 active torsions:
REMARK  status: ('A' for Active; 'I' for Inactive)
REMARK    1  A    between atoms: C_2  and  N_3 
REMARK       I    between atoms: N_3  and  C_4 
REMARK    2  A    between atoms: C_4  and  C_5 
REMARK    3  A    between atoms: C_5  and  C_6 
ROOT
HETATM    1  C   UNL     1      39.857 -13.352   2.574  1.00  0.00     0.286 C 
HETATM    2  N   UNL     1      39.383 -14.783   2.339  1.00  0.00    -0.056 N 
HETATM    3  H   UNL     1      38.518 -14.879   2.914  1.00  0.00     0.278 HD
HETATM    4  H   UNL     1      39.092 -14.926   1.365  1.00  0.00     0.278 HD
HETATM    5  C   UNL     1      40.346 -15.846   2.786  1.00  0.00     0.209 C 
HETATM    6  C   UNL     1      40.732 -15.600   4.266  1.00  0.00     0.115 C 
HETATM    7  N   UNL     1      41.126 -14.216   4.530  1.00  0.00    -0.353 N 
HETATM    8  C   UNL     1      40.486 -13.137   3.965  1.00  0.00     0.249 C 
HETATM    9  O   UNL     1      40.521 -12.041   4.515  1.00  0.00    -0.271 OA
HETATM   10  C   UNL     1      41.551 -15.892   1.844  1.00  0.00     0.035 C 
HETATM   11  C   UNL     1      42.589 -16.900   2.330  1.00  0.00     0.002 C 
HETATM   12  C   UNL     1      43.018 -16.608   3.766  1.00  0.00     0.002 C 
HETATM   13  C   UNL     1      41.821 -16.579   4.718  1.00  0.00     0.027 C 
HETATM   14  H   UNL     1      41.484 -13.999   5.459  1.00  0.00     0.163 HD
ENDROOT
BRANCH   1  15
HETATM   15  C   UNL     1      38.731 -12.345   2.296  1.00  0.00     0.146 C 
BRANCH  15  16
HETATM   16  C   UNL     1      39.226 -11.202   1.451  1.00  0.00     0.224 C 
HETATM   17  N   UNL     1      39.352 -11.289   0.102  1.00  0.00    -0.327 N 
HETATM   18  H   UNL     1      39.795 -10.457  -0.283  1.00  0.00     0.169 HD
HETATM   19  O   UNL     1      39.479 -10.125   2.011  1.00  0.00    -0.273 OA
BRANCH  17  20
HETATM   20  C   UNL     1      38.995 -12.261  -0.855  1.00  0.00     0.034 A 
HETATM   21  C   UNL     1      37.767 -12.343  -1.516  1.00  0.00     0.032 A 
HETATM   22  C   UNL     1      37.540 -13.340  -2.473  1.00  0.00     0.044 A 
HETATM   23  C   UNL     1      38.538 -14.255  -2.775  1.00  0.00     0.116 A 
HETATM   24  C   UNL     1      39.767 -14.189  -2.140  1.00  0.00     0.044 A 
HETATM   25  F   UNL     1      38.313 -15.200  -3.694  1.00  0.00    -0.206 F 
HETATM   26  C   UNL     1      39.995 -13.193  -1.186  1.00  0.00     0.032 A 
ENDBRANCH  17  20
ENDBRANCH  15  16
ENDBRANCH   1  15
TORSDOF 3
ENDMDL
MODEL 10
REMARK VINA RESULT:      -7.2      2.378      6.119
REMARK  3 active torsions:
REMARK  status: ('A' for Active; 'I' for Inactive)
REMARK    1  A    between atoms: C_2  and  N_3 
REMARK       I    between atoms: N_3  and  C_4 
REMARK    2  A    between atoms: C_4  and  C_5 
REMARK    3  A    between atoms: C_5  and  C_6 
ROOT
HETATM    1  C   UNL     1      42.485 -14.438   4.866  1.00  0.00     0.286 C 
HETATM    2  N   UNL     1      41.523 -15.578   4.545  1.00  0.00    -0.056 N 
HETATM    3  H   UNL     1      40.854 -15.601   5.345  1.00  0.00     0.278 HD
HETATM    4  H   UNL     1      40.960 -15.369   3.711  1.00  0.00     0.278 HD
HETATM    5  C   UNL     1      42.164 -16.933   4.449  1.00  0.00     0.209 C 
HETATM    6  C   UNL     1      42.977 -17.209   5.738  1.00  0.00     0.115 C 
HETATM    7  N   UNL     1      43.859 -16.100   6.105  1.00  0.00    -0.353 N 
HETATM    8  C   UNL     1      43.486 -14.781   5.987  1.00  0.00     0.249 C 
HETATM    9  O   UNL     1      44.020 -13.925   6.685  1.00  0.00    -0.271 OA
HETATM   10  C   UNL     1      43.001 -17.030   3.171  1.00  0.00     0.035 C 
HETATM   11  C   UNL     1      43.737 -18.364   3.097  1.00  0.00     0.002 C 
HETATM   12  C   UNL     1      44.593 -18.596   4.339  1.00  0.00     0.002 C 
HETATM   13  C   UNL     1      43.762 -18.521   5.620  1.00  0.00     0.027 C 
HETATM   14  H   UNL     1      44.495 -16.246   6.887  1.00  0.00     0.163 HD
ENDROOT
BRANCH   1  15
HETATM   15  C   UNL     1      41.722 -13.139   5.162  1.00  0.00     0.146 C 
BRANCH  15  16
HETATM   16  C   UNL     1      40.238 -13.388   5.224  1.00  0.00     0.224 C 
HETATM   17  N   UNL     1      39.428 -13.258   4.142  1.00  0.00    -0.327 N 
HETATM   18  H   UNL     1      38.449 -13.366   4.398  1.00  0.00     0.169 HD
HETATM   19  O   UNL     1      39.752 -13.773   6.297  1.00  0.00    -0.273 OA
BRANCH  17  20
HETATM   20  C   UNL     1      39.655 -13.024   2.771  1.00  0.00     0.034 A 
HETATM   21  C   UNL     1      39.767 -11.769   2.166  1.00  0.00     0.032 A 
HETATM   22  C   UNL     1      40.025 -11.663   0.793  1.00  0.00     0.044 A 
HETATM   23  C   UNL     1      40.175 -12.807   0.022  1.00  0.00     0.116 A 
HETATM   24  C   UNL     1      40.076 -14.061   0.600  1.00  0.00     0.044 A 
HETATM   25  F   UNL     1      40.426 -12.695  -1.287  1.00  0.00    -0.206 F 
HETATM   26  C   UNL     1      39.822 -14.168   1.971  1.00  0.00     0.032 A 
ENDBRANCH  17  20
ENDBRANCH  15  16
ENDBRANCH   1  15
TORSDOF 3
ENDMDL
