MODEL 1
REMARK VINA RESULT:      -8.7      0.000      0.000
REMARK  6 active torsions:
REMARK  status: ('A' for Active; 'I' for Inactive)
REMARK    1  A    between atoms: C_7  and  S_8 
REMARK    2  A    between atoms: S_8  and  C_9 
REMARK    3  A    between atoms: C_9  and  C_10 
REMARK    4  A    between atoms: C_18  and  C_19 
REMARK    5  A    between atoms: C_26  and  C_27 
REMARK    6  A    between atoms: C_27  and  O_28 
ROOT
HETATM    1  C   UNL     1      38.581 -14.923  -3.107  1.00  0.00     0.070 C 
HETATM    2  C   UNL     1      39.201 -14.433  -1.822  1.00  0.00     0.037 A 
HETATM    3  N   UNL     1      39.203 -15.331  -0.759  1.00  0.00    -0.192 N 
HETATM    4  C   UNL     1      39.857 -15.100   0.395  1.00  0.00     0.726 A 
HETATM    5  N   UNL     1      40.434 -13.877   0.607  1.00  0.00    -0.082 N 
HETATM    6  N   UNL     1      41.092 -13.842   1.781  1.00  0.00    -0.128 NA
HETATM    7  C   UNL     1      40.844 -15.072   2.245  1.00  0.00     0.226 A 
HETATM    8  N   UNL     1      40.088 -15.873   1.424  1.00  0.00    -0.035 NA
HETATM    9  C   UNL     1      40.387 -12.763  -0.353  1.00  0.00     0.204 A 
HETATM   10  C   UNL     1      39.774 -13.215  -1.671  1.00  0.00     0.070 A 
HETATM   11  H   UNL     1      38.824 -16.259  -0.928  1.00  0.00     0.184 HD
ENDROOT
BRANCH   7  12
HETATM   12  S   UNL     1      41.450 -15.587   3.793  1.00  0.00    -0.083 SA
BRANCH  12  13
HETATM   13  C   UNL     1      43.160 -15.983   3.337  1.00  0.00     0.123 C 
BRANCH  13  14
HETATM   14  C   UNL     1      43.430 -17.468   3.408  1.00  0.00    -0.027 A 
HETATM   15  C   UNL     1      43.934 -18.098   4.557  1.00  0.00     0.041 A 
HETATM   16 CL   UNL     1      44.311 -17.217   5.995  1.00  0.00    -0.084 Cl
HETATM   17  C   UNL     1      44.153 -19.480   4.571  1.00  0.00     0.024 A 
HETATM   18  C   UNL     1      43.869 -20.250   3.444  1.00  0.00     0.002 A 
HETATM   19  C   UNL     1      43.362 -19.641   2.300  1.00  0.00     0.001 A 
HETATM   20  C   UNL     1      43.141 -18.263   2.282  1.00  0.00     0.009 A 
ENDBRANCH  13  14
ENDBRANCH  12  13
ENDBRANCH   7  12
BRANCH   9  21
HETATM   21  C   UNL     1      39.629 -11.585   0.259  1.00  0.00    -0.006 A 
HETATM   22  C   UNL     1      40.184 -10.296   0.350  1.00  0.00     0.042 A 
HETATM   23 CL   UNL     1      41.768  -9.924  -0.231  1.00  0.00    -0.084 Cl
HETATM   24  C   UNL     1      39.454  -9.243   0.914  1.00  0.00     0.024 A 
HETATM   25  C   UNL     1      38.162  -9.452   1.392  1.00  0.00     0.002 A 
HETATM   26  C   UNL     1      37.591 -10.717   1.304  1.00  0.00     0.001 A 
HETATM   27  C   UNL     1      38.314 -11.771   0.742  1.00  0.00     0.011 A 
ENDBRANCH   9  21
BRANCH  10  28
HETATM   28  C   UNL     1      39.829 -12.251  -2.784  1.00  0.00     0.293 C 
HETATM   29  O   UNL     1      40.833 -11.990  -3.425  1.00  0.00    -0.259 OA
BRANCH  28  30
HETATM   30  O   UNL     1      38.606 -11.690  -2.934  1.00  0.00    -0.323 OA
HETATM   31  C   UNL     1      38.631 -10.273  -3.112  1.00  0.00     0.213 C 
ENDBRANCH  28  30
ENDBRANCH  10  28
TORSDOF 6
ENDMDL
MODEL 2
REMARK VINA RESULT:      -8.5      4.769      6.481
REMARK  6 active torsions:
REMARK  status: ('A' for Active; 'I' for Inactive)
REMARK    1  A    between atoms: C_7  and  S_8 
REMARK    2  A    between atoms: S_8  and  C_9 
REMARK    3  A    between atoms: C_9  and  C_10 
REMARK    4  A    between atoms: C_18  and  C_19 
REMARK    5  A    between atoms: C_26  and  C_27 
REMARK    6  A    between atoms: C_27  and  O_28 
ROOT
HETATM    1  C   UNL     1      39.010 -11.435   5.840  1.00  0.00     0.070 C 
HETATM    2  C   UNL     1      40.310 -12.200   5.889  1.00  0.00     0.037 A 
HETATM    3  N   UNL     1      40.256 -13.464   6.468  1.00  0.00    -0.192 N 
HETATM    4  C   UNL     1      41.290 -14.327   6.443  1.00  0.00     0.726 A 
HETATM    5  N   UNL     1      42.500 -13.911   5.955  1.00  0.00    -0.082 N 
HETATM    6  N   UNL     1      43.398 -14.914   5.951  1.00  0.00    -0.128 NA
HETATM    7  C   UNL     1      42.671 -15.905   6.480  1.00  0.00     0.226 A 
HETATM    8  N   UNL     1      41.373 -15.582   6.798  1.00  0.00    -0.035 NA
HETATM    9  C   UNL     1      42.766 -12.556   5.450  1.00  0.00     0.204 A 
HETATM   10  C   UNL     1      41.478 -11.747   5.375  1.00  0.00     0.070 A 
HETATM   11  H   UNL     1      39.349 -13.798   6.783  1.00  0.00     0.184 HD
ENDROOT
BRANCH   7  12
HETATM   12  S   UNL     1      43.358 -17.482   6.742  1.00  0.00    -0.083 SA
BRANCH  12  13
HETATM   13  C   UNL     1      44.527 -17.541   5.357  1.00  0.00     0.123 C 
BRANCH  13  14
HETATM   14  C   UNL     1      44.075 -18.501   4.282  1.00  0.00    -0.027 A 
HETATM   15  C   UNL     1      43.526 -18.076   3.061  1.00  0.00     0.041 A 
HETATM   16 CL   UNL     1      43.301 -16.403   2.690  1.00  0.00    -0.084 Cl
HETATM   17  C   UNL     1      43.135 -19.010   2.094  1.00  0.00     0.024 A 
HETATM   18  C   UNL     1      43.290 -20.374   2.331  1.00  0.00     0.002 A 
HETATM   19  C   UNL     1      43.839 -20.811   3.533  1.00  0.00     0.001 A 
HETATM   20  C   UNL     1      44.232 -19.883   4.499  1.00  0.00     0.009 A 
ENDBRANCH  13  14
ENDBRANCH  12  13
ENDBRANCH   7  12
BRANCH   9  21
HETATM   21  C   UNL     1      43.821 -11.876   6.322  1.00  0.00    -0.006 A 
HETATM   22  C   UNL     1      45.051 -11.428   5.809  1.00  0.00     0.042 A 
HETATM   23 CL   UNL     1      45.477 -11.594   4.143  1.00  0.00    -0.084 Cl
HETATM   24  C   UNL     1      45.989 -10.806   6.641  1.00  0.00     0.024 A 
HETATM   25  C   UNL     1      45.718 -10.616   7.995  1.00  0.00     0.002 A 
HETATM   26  C   UNL     1      44.505 -11.044   8.522  1.00  0.00     0.001 A 
HETATM   27  C   UNL     1      43.565 -11.664   7.696  1.00  0.00     0.011 A 
ENDBRANCH   9  21
BRANCH  10  28
HETATM   28  C   UNL     1      41.567 -10.432   4.717  1.00  0.00     0.293 C 
HETATM   29  O   UNL     1      41.910  -9.402   5.272  1.00  0.00    -0.259 OA
BRANCH  28  30
HETATM   30  O   UNL     1      41.165 -10.561   3.430  1.00  0.00    -0.323 OA
HETATM   31  C   UNL     1      42.219 -10.872   2.518  1.00  0.00     0.213 C 
ENDBRANCH  28  30
ENDBRANCH  10  28
TORSDOF 6
ENDMDL
MODEL 3
REMARK VINA RESULT:      -8.4      3.934      4.874
REMARK  6 active torsions:
REMARK  status: ('A' for Active; 'I' for Inactive)
REMARK    1  A    between atoms: C_7  and  S_8 
REMARK    2  A    between atoms: S_8  and  C_9 
REMARK    3  A    between atoms: C_9  and  C_10 
REMARK    4  A    between atoms: C_18  and  C_19 
REMARK    5  A    between atoms: C_26  and  C_27 
REMARK    6  A    between atoms: C_27  and  O_28 
ROOT
HETATM    1  C   UNL     1      38.890 -12.256   1.948  1.00  0.00     0.070 C 
HETATM    2  C   UNL     1      39.960 -12.628   2.944  1.00  0.00     0.037 A 
HETATM    3  N   UNL     1      39.838 -13.881   3.536  1.00  0.00    -0.192 N 
HETATM    4  C   UNL     1      40.793 -14.417   4.320  1.00  0.00     0.726 A 
HETATM    5  N   UNL     1      41.876 -13.658   4.675  1.00  0.00    -0.082 N 
HETATM    6  N   UNL     1      42.753 -14.369   5.408  1.00  0.00    -0.128 NA
HETATM    7  C   UNL     1      42.122 -15.546   5.485  1.00  0.00     0.226 A 
HETATM    8  N   UNL     1      40.914 -15.614   4.832  1.00  0.00    -0.035 NA
HETATM    9  C   UNL     1      42.077 -12.262   4.261  1.00  0.00     0.204 A 
HETATM   10  C   UNL     1      41.022 -11.844   3.247  1.00  0.00     0.070 A 
HETATM   11  H   UNL     1      39.065 -14.469   3.235  1.00  0.00     0.184 HD
ENDROOT
BRANCH   7  12
HETATM   12  S   UNL     1      42.810 -16.879   6.368  1.00  0.00    -0.083 SA
BRANCH  12  13
HETATM   13  C   UNL     1      44.249 -17.230   5.322  1.00  0.00     0.123 C 
BRANCH  13  14
HETATM   14  C   UNL     1      43.993 -18.387   4.385  1.00  0.00    -0.027 A 
HETATM   15  C   UNL     1      43.589 -18.215   3.051  1.00  0.00     0.041 A 
HETATM   16 CL   UNL     1      43.329 -16.649   2.368  1.00  0.00    -0.084 Cl
HETATM   17  C   UNL     1      43.378 -19.323   2.224  1.00  0.00     0.024 A 
HETATM   18  C   UNL     1      43.570 -20.614   2.714  1.00  0.00     0.002 A 
HETATM   19  C   UNL     1      43.977 -20.801   4.032  1.00  0.00     0.001 A 
HETATM   20  C   UNL     1      44.190 -19.698   4.860  1.00  0.00     0.009 A 
ENDBRANCH  13  14
ENDBRANCH  12  13
ENDBRANCH   7  12
BRANCH   9  21
HETATM   21  C   UNL     1      42.084 -11.353   5.490  1.00  0.00    -0.006 A 
HETATM   22  C   UNL     1      43.274 -10.921   6.103  1.00  0.00     0.042 A 
HETATM   23 CL   UNL     1      44.836 -11.366   5.514  1.00  0.00    -0.084 Cl
HETATM   24  C   UNL     1      43.236 -10.084   7.225  1.00  0.00     0.024 A 
HETATM   25  C   UNL     1      42.018  -9.664   7.754  1.00  0.00     0.002 A 
HETATM   26  C   UNL     1      40.830 -10.074   7.160  1.00  0.00     0.001 A 
HETATM   27  C   UNL     1      40.861 -10.907   6.040  1.00  0.00     0.011 A 
ENDBRANCH   9  21
BRANCH  10  28
HETATM   28  C   UNL     1      41.209 -10.528   2.610  1.00  0.00     0.293 C 
HETATM   29  O   UNL     1      40.638  -9.506   2.952  1.00  0.00    -0.259 OA
BRANCH  28  30
HETATM   30  O   UNL     1      42.073 -10.664   1.576  1.00  0.00    -0.323 OA
HETATM   31  C   UNL     1      41.611 -10.093   0.351  1.00  0.00     0.213 C 
ENDBRANCH  28  30
ENDBRANCH  10  28
TORSDOF 6
ENDMDL
MODEL 4
REMARK VINA RESULT:      -8.1      5.423      7.618
REMARK  6 active torsions:
REMARK  status: ('A' for Active; 'I' for Inactive)
REMARK    1  A    between atoms: C_7  and  S_8 
REMARK    2  A    between atoms: S_8  and  C_9 
REMARK    3  A    between atoms: C_9  and  C_10 
REMARK    4  A    between atoms: C_18  and  C_19 
REMARK    5  A    between atoms: C_26  and  C_27 
REMARK    6  A    between atoms: C_27  and  O_28 
ROOT
HETATM    1  C   UNL     1      41.069 -10.404   0.809  1.00  0.00     0.070 C 
HETATM    2  C   UNL     1      41.552 -11.266   1.949  1.00  0.00     0.037 A 
HETATM    3  N   UNL     1      42.639 -10.780   2.668  1.00  0.00    -0.192 N 
HETATM    4  C   UNL     1      43.083 -11.353   3.803  1.00  0.00     0.726 A 
HETATM    5  N   UNL     1      42.544 -12.544   4.209  1.00  0.00    -0.082 N 
HETATM    6  N   UNL     1      43.062 -12.939   5.388  1.00  0.00    -0.128 NA
HETATM    7  C   UNL     1      43.933 -11.952   5.624  1.00  0.00     0.226 A 
HETATM    8  N   UNL     1      43.977 -10.961   4.673  1.00  0.00    -0.035 NA
HETATM    9  C   UNL     1      41.496 -13.270   3.477  1.00  0.00     0.204 A 
HETATM   10  C   UNL     1      40.971 -12.432   2.319  1.00  0.00     0.070 A 
HETATM   11  H   UNL     1      43.008  -9.870   2.404  1.00  0.00     0.184 HD
ENDROOT
BRANCH   7  12
HETATM   12  S   UNL     1      44.934 -11.958   7.048  1.00  0.00    -0.083 SA
BRANCH  12  13
HETATM   13  C   UNL     1      44.994 -10.178   7.388  1.00  0.00     0.123 C 
BRANCH  13  14
HETATM   14  C   UNL     1      44.309  -9.832   8.689  1.00  0.00    -0.027 A 
HETATM   15  C   UNL     1      42.928  -9.597   8.787  1.00  0.00     0.041 A 
HETATM   16 CL   UNL     1      41.888  -9.666   7.409  1.00  0.00    -0.084 Cl
HETATM   17  C   UNL     1      42.344  -9.293  10.022  1.00  0.00     0.024 A 
HETATM   18  C   UNL     1      43.128  -9.223  11.172  1.00  0.00     0.002 A 
HETATM   19  C   UNL     1      44.497  -9.460  11.094  1.00  0.00     0.001 A 
HETATM   20  C   UNL     1      45.083  -9.765   9.864  1.00  0.00     0.009 A 
ENDBRANCH  13  14
ENDBRANCH  12  13
ENDBRANCH   7  12
BRANCH   9  21
HETATM   21  C   UNL     1      42.032 -14.622   3.010  1.00  0.00    -0.006 A 
HETATM   22  C   UNL     1      41.644 -15.835   3.606  1.00  0.00     0.042 A 
HETATM   23 CL   UNL     1      40.516 -15.908   4.912  1.00  0.00    -0.084 Cl
HETATM   24  C   UNL     1      42.156 -17.054   3.145  1.00  0.00     0.024 A 
HETATM   25  C   UNL     1      43.057 -17.087   2.083  1.00  0.00     0.002 A 
HETATM   26  C   UNL     1      43.449 -15.900   1.474  1.00  0.00     0.001 A 
HETATM   27  C   UNL     1      42.941 -14.682   1.929  1.00  0.00     0.011 A 
ENDBRANCH   9  21
BRANCH  10  28
HETATM   28  C   UNL     1      39.792 -12.960   1.609  1.00  0.00     0.293 C 
HETATM   29  O   UNL     1      39.835 -13.567   0.553  1.00  0.00    -0.259 OA
BRANCH  28  30
HETATM   30  O   UNL     1      38.679 -12.619   2.301  1.00  0.00    -0.323 OA
HETATM   31  C   UNL     1      37.847 -11.667   1.636  1.00  0.00     0.213 C 
ENDBRANCH  28  30
ENDBRANCH  10  28
TORSDOF 6
ENDMDL
MODEL 5
REMARK VINA RESULT:      -8.0      5.205      6.858
REMARK  6 active torsions:
REMARK  status: ('A' for Active; 'I' for Inactive)
REMARK    1  A    between atoms: C_7  and  S_8 
REMARK    2  A    between atoms: S_8  and  C_9 
REMARK    3  A    between atoms: C_9  and  C_10 
REMARK    4  A    between atoms: C_18  and  C_19 
REMARK    5  A    between atoms: C_26  and  C_27 
REMARK    6  A    between atoms: C_27  and  O_28 
ROOT
HETATM    1  C   UNL     1      39.079  -8.973   7.363  1.00  0.00     0.070 C 
HETATM    2  C   UNL     1      39.987 -10.029   6.784  1.00  0.00     0.037 A 
HETATM    3  N   UNL     1      39.554 -11.345   6.907  1.00  0.00    -0.192 N 
HETATM    4  C   UNL     1      40.171 -12.380   6.306  1.00  0.00     0.726 A 
HETATM    5  N   UNL     1      41.357 -12.168   5.656  1.00  0.00    -0.082 N 
HETATM    6  N   UNL     1      41.801 -13.295   5.066  1.00  0.00    -0.128 NA
HETATM    7  C   UNL     1      40.847 -14.160   5.427  1.00  0.00     0.226 A 
HETATM    8  N   UNL     1      39.831 -13.637   6.191  1.00  0.00    -0.035 NA
HETATM    9  C   UNL     1      42.031 -10.864   5.568  1.00  0.00     0.204 A 
HETATM   10  C   UNL     1      41.145  -9.763   6.135  1.00  0.00     0.070 A 
HETATM   11  H   UNL     1      38.648 -11.503   7.342  1.00  0.00     0.184 HD
ENDROOT
BRANCH   7  12
HETATM   12  S   UNL     1      40.923 -15.832   4.949  1.00  0.00    -0.083 SA
BRANCH  12  13
HETATM   13  C   UNL     1      42.304 -15.753   3.776  1.00  0.00     0.123 C 
BRANCH  13  14
HETATM   14  C   UNL     1      42.929 -17.110   3.554  1.00  0.00    -0.027 A 
HETATM   15  C   UNL     1      43.882 -17.664   4.425  1.00  0.00     0.041 A 
HETATM   16 CL   UNL     1      44.441 -16.822   5.827  1.00  0.00    -0.084 Cl
HETATM   17  C   UNL     1      44.419 -18.932   4.177  1.00  0.00     0.024 A 
HETATM   18  C   UNL     1      44.012 -19.664   3.063  1.00  0.00     0.002 A 
HETATM   19  C   UNL     1      43.063 -19.132   2.194  1.00  0.00     0.001 A 
HETATM   20  C   UNL     1      42.523 -17.868   2.439  1.00  0.00     0.009 A 
ENDBRANCH  13  14
ENDBRANCH  12  13
ENDBRANCH   7  12
BRANCH   9  21
HETATM   21  C   UNL     1      43.385 -10.932   6.273  1.00  0.00    -0.006 A 
HETATM   22  C   UNL     1      44.573 -11.257   5.596  1.00  0.00     0.042 A 
HETATM   23 CL   UNL     1      44.613 -11.596   3.903  1.00  0.00    -0.084 Cl
HETATM   24  C   UNL     1      45.795 -11.304   6.279  1.00  0.00     0.024 A 
HETATM   25  C   UNL     1      45.855 -11.026   7.642  1.00  0.00     0.002 A 
HETATM   26  C   UNL     1      44.693 -10.695   8.331  1.00  0.00     0.001 A 
HETATM   27  C   UNL     1      43.472 -10.646   7.655  1.00  0.00     0.011 A 
ENDBRANCH   9  21
BRANCH  10  28
HETATM   28  C   UNL     1      41.618  -8.379   5.947  1.00  0.00     0.293 C 
HETATM   29  O   UNL     1      42.115  -7.694   6.824  1.00  0.00    -0.259 OA
BRANCH  28  30
HETATM   30  O   UNL     1      41.365  -8.002   4.671  1.00  0.00    -0.323 OA
HETATM   31  C   UNL     1      41.518  -6.603   4.435  1.00  0.00     0.213 C 
ENDBRANCH  28  30
ENDBRANCH  10  28
TORSDOF 6
ENDMDL
MODEL 6
REMARK VINA RESULT:      -7.8      4.872      6.610
REMARK  6 active torsions:
REMARK  status: ('A' for Active; 'I' for Inactive)
REMARK    1  A    between atoms: C_7  and  S_8 
REMARK    2  A    between atoms: S_8  and  C_9 
REMARK    3  A    between atoms: C_9  and  C_10 
REMARK    4  A    between atoms: C_18  and  C_19 
REMARK    5  A    between atoms: C_26  and  C_27 
REMARK    6  A    between atoms: C_27  and  O_28 
ROOT
HETATM    1  C   UNL     1      44.539 -10.027   7.529  1.00  0.00     0.070 C 
HETATM    2  C   UNL     1      43.718 -11.171   6.989  1.00  0.00     0.037 A 
HETATM    3  N   UNL     1      44.321 -12.425   7.015  1.00  0.00    -0.192 N 
HETATM    4  C   UNL     1      43.662 -13.562   6.718  1.00  0.00     0.726 A 
HETATM    5  N   UNL     1      42.385 -13.490   6.231  1.00  0.00    -0.082 N 
HETATM    6  N   UNL     1      41.862 -14.717   6.045  1.00  0.00    -0.128 NA
HETATM    7  C   UNL     1      42.892 -15.488   6.411  1.00  0.00     0.226 A 
HETATM    8  N   UNL     1      44.016 -14.815   6.828  1.00  0.00    -0.035 NA
HETATM    9  C   UNL     1      41.660 -12.233   5.995  1.00  0.00     0.204 A 
HETATM   10  C   UNL     1      42.449 -11.047   6.533  1.00  0.00     0.070 A 
HETATM   11  H   UNL     1      45.249 -12.491   7.426  1.00  0.00     0.184 HD
ENDROOT
BRANCH   7  12
HETATM   12  S   UNL     1      42.784 -17.224   6.345  1.00  0.00    -0.083 SA
BRANCH  12  13
HETATM   13  C   UNL     1      44.257 -17.585   5.352  1.00  0.00     0.123 C 
BRANCH  13  14
HETATM   14  C   UNL     1      43.970 -18.601   4.271  1.00  0.00    -0.027 A 
HETATM   15  C   UNL     1      43.540 -18.246   2.983  1.00  0.00     0.041 A 
HETATM   16 CL   UNL     1      43.281 -16.599   2.525  1.00  0.00    -0.084 Cl
HETATM   17  C   UNL     1      43.302 -19.229   2.017  1.00  0.00     0.024 A 
HETATM   18  C   UNL     1      43.492 -20.576   2.321  1.00  0.00     0.002 A 
HETATM   19  C   UNL     1      43.925 -20.944   3.592  1.00  0.00     0.001 A 
HETATM   20  C   UNL     1      44.166 -19.966   4.558  1.00  0.00     0.009 A 
ENDBRANCH  13  14
ENDBRANCH  12  13
ENDBRANCH   7  12
BRANCH   9  21
HETATM   21  C   UNL     1      41.348 -12.087   4.506  1.00  0.00    -0.006 A 
HETATM   22  C   UNL     1      40.094 -11.660   4.035  1.00  0.00     0.042 A 
HETATM   23 CL   UNL     1      38.795 -11.250   5.097  1.00  0.00    -0.084 Cl
HETATM   24  C   UNL     1      39.851 -11.535   2.662  1.00  0.00     0.024 A 
HETATM   25  C   UNL     1      40.850 -11.830   1.736  1.00  0.00     0.002 A 
HETATM   26  C   UNL     1      42.100 -12.246   2.180  1.00  0.00     0.001 A 
HETATM   27  C   UNL     1      42.348 -12.371   3.548  1.00  0.00     0.011 A 
ENDBRANCH   9  21
BRANCH  10  28
HETATM   28  C   UNL     1      41.761  -9.744   6.527  1.00  0.00     0.293 C 
HETATM   29  O   UNL     1      41.913  -8.886   5.675  1.00  0.00    -0.259 OA
BRANCH  28  30
HETATM   30  O   UNL     1      40.984  -9.657   7.633  1.00  0.00    -0.323 OA
HETATM   31  C   UNL     1      39.960  -8.666   7.549  1.00  0.00     0.213 C 
ENDBRANCH  28  30
ENDBRANCH  10  28
TORSDOF 6
ENDMDL
MODEL 7
REMARK VINA RESULT:      -7.5      2.071      2.695
REMARK  6 active torsions:
REMARK  status: ('A' for Active; 'I' for Inactive)
REMARK    1  A    between atoms: C_7  and  S_8 
REMARK    2  A    between atoms: S_8  and  C_9 
REMARK    3  A    between atoms: C_9  and  C_10 
REMARK    4  A    between atoms: C_18  and  C_19 
REMARK    5  A    between atoms: C_26  and  C_27 
REMARK    6  A    between atoms: C_27  and  O_28 
ROOT
HETATM    1  C   UNL     1      40.406 -10.645  -3.284  1.00  0.00     0.070 C 
HETATM    2  C   UNL     1      40.511 -11.207  -1.888  1.00  0.00     0.037 A 
HETATM    3  N   UNL     1      40.132 -12.536  -1.731  1.00  0.00    -0.192 N 
HETATM    4  C   UNL     1      40.317 -13.222  -0.587  1.00  0.00     0.726 A 
HETATM    5  N   UNL     1      40.768 -12.563   0.525  1.00  0.00    -0.082 N 
HETATM    6  N   UNL     1      40.951 -13.410   1.556  1.00  0.00    -0.128 NA
HETATM    7  C   UNL     1      40.561 -14.565   1.006  1.00  0.00     0.226 A 
HETATM    8  N   UNL     1      40.162 -14.489  -0.308  1.00  0.00    -0.035 NA
HETATM    9  C   UNL     1      41.066 -11.123   0.569  1.00  0.00     0.204 A 
HETATM   10  C   UNL     1      40.980 -10.514  -0.823  1.00  0.00     0.070 A 
HETATM   11  H   UNL     1      39.847 -13.045  -2.564  1.00  0.00     0.184 HD
ENDROOT
BRANCH   7  12
HETATM   12  S   UNL     1      40.563 -16.044   1.923  1.00  0.00    -0.083 SA
BRANCH  12  13
HETATM   13  C   UNL     1      41.979 -15.727   3.011  1.00  0.00     0.123 C 
BRANCH  13  14
HETATM   14  C   UNL     1      42.784 -16.980   3.264  1.00  0.00    -0.027 A 
HETATM   15  C   UNL     1      43.553 -17.173   4.422  1.00  0.00     0.041 A 
HETATM   16 CL   UNL     1      43.661 -15.973   5.661  1.00  0.00    -0.084 Cl
HETATM   17  C   UNL     1      44.270 -18.360   4.610  1.00  0.00     0.024 A 
HETATM   18  C   UNL     1      44.226 -19.369   3.649  1.00  0.00     0.002 A 
HETATM   19  C   UNL     1      43.462 -19.195   2.498  1.00  0.00     0.001 A 
HETATM   20  C   UNL     1      42.744 -18.013   2.308  1.00  0.00     0.009 A 
ENDBRANCH  13  14
ENDBRANCH  12  13
ENDBRANCH   7  12
BRANCH   9  21
HETATM   21  C   UNL     1      40.128 -10.431   1.558  1.00  0.00    -0.006 A 
HETATM   22  C   UNL     1      40.533 -10.067   2.854  1.00  0.00     0.042 A 
HETATM   23 CL   UNL     1      42.131 -10.358   3.444  1.00  0.00    -0.084 Cl
HETATM   24  C   UNL     1      39.644  -9.429   3.728  1.00  0.00     0.024 A 
HETATM   25  C   UNL     1      38.341  -9.142   3.327  1.00  0.00     0.002 A 
HETATM   26  C   UNL     1      37.922  -9.486   2.047  1.00  0.00     0.001 A 
HETATM   27  C   UNL     1      38.805 -10.121   1.171  1.00  0.00     0.011 A 
ENDBRANCH   9  21
BRANCH  10  28
HETATM   28  C   UNL     1      41.430  -9.117  -0.956  1.00  0.00     0.293 C 
HETATM   29  O   UNL     1      40.688  -8.151  -0.989  1.00  0.00    -0.259 OA
BRANCH  28  30
HETATM   30  O   UNL     1      42.779  -9.104  -1.077  1.00  0.00    -0.323 OA
HETATM   31  C   UNL     1      43.311  -7.867  -1.552  1.00  0.00     0.213 C 
ENDBRANCH  28  30
ENDBRANCH  10  28
TORSDOF 6
ENDMDL
MODEL 8
REMARK VINA RESULT:      -7.4      1.380      1.845
REMARK  6 active torsions:
REMARK  status: ('A' for Active; 'I' for Inactive)
REMARK    1  A    between atoms: C_7  and  S_8 
REMARK    2  A    between atoms: S_8  and  C_9 
REMARK    3  A    between atoms: C_9  and  C_10 
REMARK    4  A    between atoms: C_18  and  C_19 
REMARK    5  A    between atoms: C_26  and  C_27 
REMARK    6  A    between atoms: C_27  and  O_28 
ROOT
HETATM    1  C   UNL     1      39.062 -15.007  -2.680  1.00  0.00     0.070 C 
HETATM    2  C   UNL     1      39.478 -14.247  -1.445  1.00  0.00     0.037 A 
HETATM    3  N   UNL     1      39.353 -14.924  -0.236  1.00  0.00    -0.192 N 
HETATM    4  C   UNL     1      39.829 -14.441   0.928  1.00  0.00     0.726 A 
HETATM    5  N   UNL     1      40.335 -13.170   0.970  1.00  0.00    -0.082 N 
HETATM    6  N   UNL     1      40.817 -12.875   2.193  1.00  0.00    -0.128 NA
HETATM    7  C   UNL     1      40.540 -14.006   2.852  1.00  0.00     0.226 A 
HETATM    8  N   UNL     1      39.932 -14.990   2.109  1.00  0.00    -0.035 NA
HETATM    9  C   UNL     1      40.394 -12.264  -0.187  1.00  0.00     0.204 A 
HETATM   10  C   UNL     1      39.989 -12.993  -1.461  1.00  0.00     0.070 A 
HETATM   11  H   UNL     1      39.028 -15.887  -0.269  1.00  0.00     0.184 HD
ENDROOT
BRANCH   7  12
HETATM   12  S   UNL     1      40.933 -14.183   4.538  1.00  0.00    -0.083 SA
BRANCH  12  13
HETATM   13  C   UNL     1      40.802 -15.985   4.696  1.00  0.00     0.123 C 
BRANCH  13  14
HETATM   14  C   UNL     1      42.156 -16.633   4.865  1.00  0.00    -0.027 A 
HETATM   15  C   UNL     1      42.802 -17.331   3.832  1.00  0.00     0.041 A 
HETATM   16 CL   UNL     1      42.087 -17.528   2.271  1.00  0.00    -0.084 Cl
HETATM   17  C   UNL     1      44.063 -17.901   4.040  1.00  0.00     0.024 A 
HETATM   18  C   UNL     1      44.696 -17.779   5.276  1.00  0.00     0.002 A 
HETATM   19  C   UNL     1      44.071 -17.084   6.308  1.00  0.00     0.001 A 
HETATM   20  C   UNL     1      42.814 -16.512   6.104  1.00  0.00     0.009 A 
ENDBRANCH  13  14
ENDBRANCH  12  13
ENDBRANCH   7  12
BRANCH   9  21
HETATM   21  C   UNL     1      39.524 -11.035   0.073  1.00  0.00    -0.006 A 
HETATM   22  C   UNL     1      40.038  -9.727   0.047  1.00  0.00     0.042 A 
HETATM   23 CL   UNL     1      41.697  -9.389  -0.295  1.00  0.00    -0.084 Cl
HETATM   24  C   UNL     1      39.206  -8.627   0.286  1.00  0.00     0.024 A 
HETATM   25  C   UNL     1      37.851  -8.809   0.552  1.00  0.00     0.002 A 
HETATM   26  C   UNL     1      37.319 -10.094   0.577  1.00  0.00     0.001 A 
HETATM   27  C   UNL     1      38.145 -11.195   0.337  1.00  0.00     0.011 A 
ENDBRANCH   9  21
BRANCH  10  28
HETATM   28  C   UNL     1      40.175 -12.257  -2.724  1.00  0.00     0.293 C 
HETATM   29  O   UNL     1      41.239 -12.145  -3.309  1.00  0.00    -0.259 OA
BRANCH  28  30
HETATM   30  O   UNL     1      38.992 -11.705  -3.085  1.00  0.00    -0.323 OA
HETATM   31  C   UNL     1      39.074 -10.322  -3.426  1.00  0.00     0.213 C 
ENDBRANCH  28  30
ENDBRANCH  10  28
TORSDOF 6
ENDMDL
MODEL 9
REMARK VINA RESULT:      -7.3      5.293      7.049
REMARK  6 active torsions:
REMARK  status: ('A' for Active; 'I' for Inactive)
REMARK    1  A    between atoms: C_7  and  S_8 
REMARK    2  A    between atoms: S_8  and  C_9 
REMARK    3  A    between atoms: C_9  and  C_10 
REMARK    4  A    between atoms: C_18  and  C_19 
REMARK    5  A    between atoms: C_26  and  C_27 
REMARK    6  A    between atoms: C_27  and  O_28 
ROOT
HETATM    1  C   UNL     1      44.593  -9.397   7.923  1.00  0.00     0.070 C 
HETATM    2  C   UNL     1      43.662 -10.417   7.314  1.00  0.00     0.037 A 
HETATM    3  N   UNL     1      44.107 -11.735   7.321  1.00  0.00    -0.192 N 
HETATM    4  C   UNL     1      43.329 -12.774   6.962  1.00  0.00     0.726 A 
HETATM    5  N   UNL     1      42.091 -12.532   6.430  1.00  0.00    -0.082 N 
HETATM    6  N   UNL     1      41.431 -13.680   6.183  1.00  0.00    -0.128 NA
HETATM    7  C   UNL     1      42.344 -14.581   6.562  1.00  0.00     0.226 A 
HETATM    8  N   UNL     1      43.523 -14.064   7.043  1.00  0.00    -0.035 NA
HETATM    9  C   UNL     1      41.533 -11.189   6.209  1.00  0.00     0.204 A 
HETATM   10  C   UNL     1      42.437 -10.126   6.815  1.00  0.00     0.070 A 
HETATM   11  H   UNL     1      45.002 -11.926   7.764  1.00  0.00     0.184 HD
ENDROOT
BRANCH   7  12
HETATM   12  S   UNL     1      42.029 -16.288   6.433  1.00  0.00    -0.083 SA
BRANCH  12  13
HETATM   13  C   UNL     1      40.892 -16.284   5.020  1.00  0.00     0.123 C 
BRANCH  13  14
HETATM   14  C   UNL     1      41.630 -16.180   3.707  1.00  0.00    -0.027 A 
HETATM   15  C   UNL     1      41.343 -15.197   2.745  1.00  0.00     0.041 A 
HETATM   16 CL   UNL     1      40.094 -14.026   2.977  1.00  0.00    -0.084 Cl
HETATM   17  C   UNL     1      42.068 -15.139   1.550  1.00  0.00     0.024 A 
HETATM   18  C   UNL     1      43.089 -16.055   1.300  1.00  0.00     0.002 A 
HETATM   19  C   UNL     1      43.391 -17.030   2.246  1.00  0.00     0.001 A 
HETATM   20  C   UNL     1      42.671 -17.090   3.441  1.00  0.00     0.009 A 
ENDBRANCH  13  14
ENDBRANCH  12  13
ENDBRANCH   7  12
BRANCH   9  21
HETATM   21  C   UNL     1      41.304 -10.964   4.714  1.00  0.00    -0.006 A 
HETATM   22  C   UNL     1      40.058 -10.573   4.192  1.00  0.00     0.042 A 
HETATM   23 CL   UNL     1      38.677 -10.300   5.193  1.00  0.00    -0.084 Cl
HETATM   24  C   UNL     1      39.891 -10.373   2.817  1.00  0.00     0.024 A 
HETATM   25  C   UNL     1      40.958 -10.555   1.940  1.00  0.00     0.002 A 
HETATM   26  C   UNL     1      42.201 -10.934   2.435  1.00  0.00     0.001 A 
HETATM   27  C   UNL     1      42.374 -11.134   3.806  1.00  0.00     0.011 A 
ENDBRANCH   9  21
BRANCH  10  28
HETATM   28  C   UNL     1      41.913  -8.748   6.827  1.00  0.00     0.293 C 
HETATM   29  O   UNL     1      42.083  -7.936   5.934  1.00  0.00    -0.259 OA
BRANCH  28  30
HETATM   30  O   UNL     1      41.265  -8.539   7.997  1.00  0.00    -0.323 OA
HETATM   31  C   UNL     1      39.887  -8.197   7.847  1.00  0.00     0.213 C 
ENDBRANCH  28  30
ENDBRANCH  10  28
TORSDOF 6
ENDMDL
MODEL 10
REMARK VINA RESULT:      -7.2      2.384      3.291
REMARK  6 active torsions:
REMARK  status: ('A' for Active; 'I' for Inactive)
REMARK    1  A    between atoms: C_7  and  S_8 
REMARK    2  A    between atoms: S_8  and  C_9 
REMARK    3  A    between atoms: C_9  and  C_10 
REMARK    4  A    between atoms: C_18  and  C_19 
REMARK    5  A    between atoms: C_26  and  C_27 
REMARK    6  A    between atoms: C_27  and  O_28 
ROOT
HETATM    1  C   UNL     1      38.172 -14.522  -2.979  1.00  0.00     0.070 C 
HETATM    2  C   UNL     1      38.991 -14.070  -1.796  1.00  0.00     0.037 A 
HETATM    3  N   UNL     1      39.244 -15.029  -0.821  1.00  0.00    -0.192 N 
HETATM    4  C   UNL     1      40.087 -14.824   0.209  1.00  0.00     0.726 A 
HETATM    5  N   UNL     1      40.622 -13.579   0.401  1.00  0.00    -0.082 N 
HETATM    6  N   UNL     1      41.484 -13.570   1.436  1.00  0.00    -0.128 NA
HETATM    7  C   UNL     1      41.399 -14.841   1.845  1.00  0.00     0.226 A 
HETATM    8  N   UNL     1      40.550 -15.641   1.118  1.00  0.00    -0.035 NA
HETATM    9  C   UNL     1      40.332 -12.414  -0.449  1.00  0.00     0.204 A 
HETATM   10  C   UNL     1      39.511 -12.826  -1.663  1.00  0.00     0.070 A 
HETATM   11  H   UNL     1      38.894 -15.970  -0.987  1.00  0.00     0.184 HD
ENDROOT
BRANCH   7  12
HETATM   12  S   UNL     1      42.312 -15.407   3.214  1.00  0.00    -0.083 SA
BRANCH  12  13
HETATM   13  C   UNL     1      41.618 -14.340   4.506  1.00  0.00     0.123 C 
BRANCH  13  14
HETATM   14  C   UNL     1      42.666 -13.431   5.105  1.00  0.00    -0.027 A 
HETATM   15  C   UNL     1      43.224 -13.642   6.376  1.00  0.00     0.041 A 
HETATM   16 CL   UNL     1      42.739 -14.961   7.382  1.00  0.00    -0.084 Cl
HETATM   17  C   UNL     1      44.201 -12.774   6.876  1.00  0.00     0.024 A 
HETATM   18  C   UNL     1      44.637 -11.691   6.115  1.00  0.00     0.002 A 
HETATM   19  C   UNL     1      44.099 -11.473   4.850  1.00  0.00     0.001 A 
HETATM   20  C   UNL     1      43.125 -12.337   4.347  1.00  0.00     0.009 A 
ENDBRANCH  13  14
ENDBRANCH  12  13
ENDBRANCH   7  12
BRANCH   9  21
HETATM   21  C   UNL     1      39.634 -11.333   0.376  1.00  0.00    -0.006 A 
HETATM   22  C   UNL     1      40.204 -10.066   0.596  1.00  0.00     0.042 A 
HETATM   23 CL   UNL     1      41.738  -9.613  -0.056  1.00  0.00    -0.084 Cl
HETATM   24  C   UNL     1      39.530  -9.101   1.354  1.00  0.00     0.024 A 
HETATM   25  C   UNL     1      38.279  -9.378   1.902  1.00  0.00     0.002 A 
HETATM   26  C   UNL     1      37.694 -10.622   1.691  1.00  0.00     0.001 A 
HETATM   27  C   UNL     1      38.361 -11.588   0.934  1.00  0.00     0.011 A 
ENDBRANCH   9  21
BRANCH  10  28
HETATM   28  C   UNL     1      39.301 -11.793  -2.694  1.00  0.00     0.293 C 
HETATM   29  O   UNL     1      38.230 -11.264  -2.934  1.00  0.00    -0.259 OA
BRANCH  28  30
HETATM   30  O   UNL     1      40.473 -11.577  -3.338  1.00  0.00    -0.323 OA
HETATM   31  C   UNL     1      40.777 -10.198  -3.548  1.00  0.00     0.213 C 
ENDBRANCH  28  30
ENDBRANCH  10  28
TORSDOF 6
ENDMDL
