MODEL 1
REMARK VINA RESULT:     -10.0      0.000      0.000
REMARK  6 active torsions:
REMARK  status: ('A' for Active; 'I' for Inactive)
REMARK    1  A    between atoms: C_6  and  C_8 
REMARK    2  A    between atoms: C_6  and  O_7 
REMARK    3  A    between atoms: C_8  and  N_9 
REMARK       I    between atoms: N_9  and  C_10 
REMARK    4  A    between atoms: C_10  and  C_11 
REMARK       I    between atoms: C_11  and  N_12 
REMARK    5  A    between atoms: N_12  and  C_13 
REMARK       I    between atoms: N_17  and  C_18 
REMARK    6  A    between atoms: C_18  and  C_19 
ROOT
HETATM    1  C   UNL     1      45.961 -11.191   6.496  1.00  0.00     0.313 C 
HETATM    2  N   UNL     1      46.207 -10.148   7.363  1.00  0.00    -0.319 N 
HETATM    3  O   UNL     1      46.840 -11.716   5.821  1.00  0.00    -0.262 OA
HETATM    4  H   UNL     1      47.038  -9.618   7.135  1.00  0.00     0.169 HD
ENDROOT
BRANCH   1   5
HETATM    5  C   UNL     1      44.497 -11.606   6.278  1.00  0.00     0.309 C 
HETATM    6  N   UNL     1      44.224 -12.934   6.523  1.00  0.00    -0.350 N 
HETATM    7  H   UNL     1      44.945 -13.529   6.920  1.00  0.00     0.163 HD
HETATM    8  O   UNL     1      43.671 -10.772   5.928  1.00  0.00    -0.262 OA
BRANCH   6   9
HETATM    9  C   UNL     1      42.858 -13.420   6.485  1.00  0.00     0.161 C 
BRANCH   9  10
HETATM   10  C   UNL     1      42.709 -14.862   7.017  1.00  0.00     0.078 C 
HETATM   11  C   UNL     1      43.527 -15.881   6.201  1.00  0.00     0.078 C 
HETATM   12  C   UNL     1      42.926 -16.195   4.855  1.00  0.00    -0.049 A 
HETATM   13  C   UNL     1      41.558 -15.991   4.597  1.00  0.00    -0.052 A 
HETATM   14  C   UNL     1      43.745 -16.742   3.856  1.00  0.00     0.007 A 
HETATM   15  C   UNL     1      41.048 -16.300   3.327  1.00  0.00     0.007 A 
HETATM   16  C   UNL     1      40.637 -15.374   5.621  1.00  0.00     0.042 C 
HETATM   17  C   UNL     1      41.876 -16.829   2.337  1.00  0.00     0.001 A 
HETATM   18  C   UNL     1      43.223 -17.053   2.602  1.00  0.00     0.001 A 
HETATM   19  C   UNL     1      41.237 -15.302   7.026  1.00  0.00     0.044 C 
BRANCH  10  20
HETATM   20  O   UNL     1      43.189 -14.864   8.377  1.00  0.00    -0.388 OA
HETATM   21  H   UNL     1      44.157 -14.767   8.350  1.00  0.00     0.210 HD
ENDBRANCH  10  20
ENDBRANCH   9  10
ENDBRANCH   6   9
ENDBRANCH   1   5
BRANCH   2  22
HETATM   22  C   UNL     1      45.374  -9.671   8.386  1.00  0.00     0.035 A 
HETATM   23  C   UNL     1      44.689  -8.462   8.284  1.00  0.00     0.039 A 
HETATM   24  C   UNL     1      43.830  -8.023   9.311  1.00  0.00    -0.029 A 
HETATM   25  C   UNL     1      43.682  -8.780  10.492  1.00  0.00     0.043 A 
HETATM   26  C   UNL     1      43.112  -6.718   9.098  1.00  0.00     0.042 C 
HETATM   27  N   UNL     1      42.891  -8.263  11.583  1.00  0.00    -0.313 N 
HETATM   28  C   UNL     1      44.363 -10.005  10.561  1.00  0.00     0.032 A 
HETATM   29  C   UNL     1      42.632  -8.997  12.767  1.00  0.00     0.265 C 
HETATM   30  C   UNL     1      42.323  -6.916  11.420  1.00  0.00     0.133 C 
HETATM   31  O   UNL     1      42.640 -10.226  12.810  1.00  0.00    -0.267 OA
HETATM   32  C   UNL     1      41.896  -6.627   9.995  1.00  0.00     0.025 C 
HETATM   33  C   UNL     1      45.170 -10.462   9.509  1.00  0.00     0.032 A 
BRANCH  29  34
HETATM   34  C   UNL     1      42.345  -8.213  13.970  1.00  0.00     0.073 A 
HETATM   35  S   UNL     1      40.915  -8.533  14.859  1.00  0.00    -0.097 SA
HETATM   36  C   UNL     1      41.272  -7.312  16.001  1.00  0.00     0.050 A 
HETATM   37  C   UNL     1      42.471  -6.690  15.736  1.00  0.00     0.009 A 
HETATM   38  C   UNL     1      43.101  -7.223  14.573  1.00  0.00     0.025 A 
ENDBRANCH  29  34
ENDBRANCH   2  22
TORSDOF 6
ENDMDL
MODEL 2
REMARK VINA RESULT:     -10.0      3.515      9.275
REMARK  6 active torsions:
REMARK  status: ('A' for Active; 'I' for Inactive)
REMARK    1  A    between atoms: C_6  and  C_8 
REMARK    2  A    between atoms: C_6  and  O_7 
REMARK    3  A    between atoms: C_8  and  N_9 
REMARK       I    between atoms: N_9  and  C_10 
REMARK    4  A    between atoms: C_10  and  C_11 
REMARK       I    between atoms: C_11  and  N_12 
REMARK    5  A    between atoms: N_12  and  C_13 
REMARK       I    between atoms: N_17  and  C_18 
REMARK    6  A    between atoms: C_18  and  C_19 
ROOT
HETATM    1  C   UNL     1      38.937  -8.245   7.278  1.00  0.00     0.313 C 
HETATM    2  N   UNL     1      39.608  -8.797   6.207  1.00  0.00    -0.319 N 
HETATM    3  O   UNL     1      38.150  -7.313   7.161  1.00  0.00    -0.262 OA
HETATM    4  H   UNL     1      39.699  -8.168   5.418  1.00  0.00     0.169 HD
ENDROOT
BRANCH   1   5
HETATM    5  C   UNL     1      39.309  -8.744   8.683  1.00  0.00     0.309 C 
HETATM    6  N   UNL     1      40.351  -8.072   9.285  1.00  0.00    -0.350 N 
HETATM    7  H   UNL     1      40.739  -7.247   8.839  1.00  0.00     0.163 HD
HETATM    8  O   UNL     1      38.682  -9.666   9.190  1.00  0.00    -0.262 OA
BRANCH   6   9
HETATM    9  C   UNL     1      40.708  -8.358  10.661  1.00  0.00     0.161 C 
BRANCH   9  10
HETATM   10  C   UNL     1      41.746  -7.370  11.239  1.00  0.00     0.078 C 
HETATM   11  C   UNL     1      42.791  -6.934  10.194  1.00  0.00     0.078 C 
HETATM   12  C   UNL     1      43.811  -7.999   9.882  1.00  0.00    -0.049 A 
HETATM   13  C   UNL     1      44.081  -9.043  10.786  1.00  0.00    -0.052 A 
HETATM   14  C   UNL     1      44.531  -7.918   8.682  1.00  0.00     0.007 A 
HETATM   15  C   UNL     1      45.041 -10.009  10.448  1.00  0.00     0.007 A 
HETATM   16  C   UNL     1      43.313  -9.200  12.076  1.00  0.00     0.042 C 
HETATM   17  C   UNL     1      45.740  -9.927   9.244  1.00  0.00     0.001 A 
HETATM   18  C   UNL     1      45.488  -8.880   8.363  1.00  0.00     0.001 A 
HETATM   19  C   UNL     1      42.476  -7.975  12.448  1.00  0.00     0.044 C 
BRANCH  10  20
HETATM   20  O   UNL     1      41.021  -6.206  11.685  1.00  0.00    -0.388 OA
HETATM   21  H   UNL     1      40.126  -6.492  11.937  1.00  0.00     0.210 HD
ENDBRANCH  10  20
ENDBRANCH   9  10
ENDBRANCH   6   9
ENDBRANCH   1   5
BRANCH   2  22
HETATM   22  C   UNL     1      40.285 -10.024   6.160  1.00  0.00     0.035 A 
HETATM   23  C   UNL     1      41.670 -10.114   6.284  1.00  0.00     0.039 A 
HETATM   24  C   UNL     1      42.321 -11.363   6.271  1.00  0.00    -0.029 A 
HETATM   25  C   UNL     1      41.587 -12.552   6.081  1.00  0.00     0.043 A 
HETATM   26  C   UNL     1      43.817 -11.361   6.440  1.00  0.00     0.042 C 
HETATM   27  N   UNL     1      42.278 -13.812   5.954  1.00  0.00    -0.313 N 
HETATM   28  C   UNL     1      40.192 -12.437   5.982  1.00  0.00     0.032 A 
HETATM   29  C   UNL     1      41.608 -15.055   5.839  1.00  0.00     0.265 C 
HETATM   30  C   UNL     1      43.748 -13.774   5.965  1.00  0.00     0.133 C 
HETATM   31  O   UNL     1      40.475 -15.249   6.279  1.00  0.00    -0.267 OA
HETATM   32  C   UNL     1      44.302 -12.719   6.902  1.00  0.00     0.025 C 
HETATM   33  C   UNL     1      39.545 -11.195   6.056  1.00  0.00     0.032 A 
BRANCH  29  34
HETATM   34  C   UNL     1      42.336 -16.129   5.162  1.00  0.00     0.073 A 
HETATM   35  S   UNL     1      43.089 -17.352   6.097  1.00  0.00    -0.097 SA
HETATM   36  C   UNL     1      43.679 -18.148   4.704  1.00  0.00     0.050 A 
HETATM   37  C   UNL     1      43.287 -17.519   3.544  1.00  0.00     0.009 A 
HETATM   38  C   UNL     1      42.495 -16.363   3.807  1.00  0.00     0.025 A 
ENDBRANCH  29  34
ENDBRANCH   2  22
TORSDOF 6
ENDMDL
MODEL 3
REMARK VINA RESULT:      -9.9      4.846      8.794
REMARK  6 active torsions:
REMARK  status: ('A' for Active; 'I' for Inactive)
REMARK    1  A    between atoms: C_6  and  C_8 
REMARK    2  A    between atoms: C_6  and  O_7 
REMARK    3  A    between atoms: C_8  and  N_9 
REMARK       I    between atoms: N_9  and  C_10 
REMARK    4  A    between atoms: C_10  and  C_11 
REMARK       I    between atoms: C_11  and  N_12 
REMARK    5  A    between atoms: N_12  and  C_13 
REMARK       I    between atoms: N_17  and  C_18 
REMARK    6  A    between atoms: C_18  and  C_19 
ROOT
HETATM    1  C   UNL     1      43.333 -10.808   7.420  1.00  0.00     0.313 C 
HETATM    2  N   UNL     1      42.602 -10.190   6.428  1.00  0.00    -0.319 N 
HETATM    3  O   UNL     1      43.482 -10.324   8.536  1.00  0.00    -0.262 OA
HETATM    4  H   UNL     1      42.523  -9.188   6.546  1.00  0.00     0.169 HD
ENDROOT
BRANCH   1   5
HETATM    5  C   UNL     1      44.097 -12.089   7.048  1.00  0.00     0.309 C 
HETATM    6  N   UNL     1      43.390 -13.260   7.217  1.00  0.00    -0.350 N 
HETATM    7  H   UNL     1      42.408 -13.221   7.466  1.00  0.00     0.163 HD
HETATM    8  O   UNL     1      45.242 -12.015   6.623  1.00  0.00    -0.262 OA
BRANCH   6   9
HETATM    9  C   UNL     1      43.951 -14.523   6.776  1.00  0.00     0.161 C 
BRANCH   9  10
HETATM   10  C   UNL     1      43.166 -15.751   7.289  1.00  0.00     0.078 C 
HETATM   11  C   UNL     1      43.761 -17.082   6.793  1.00  0.00     0.078 C 
HETATM   12  C   UNL     1      43.475 -17.365   5.341  1.00  0.00    -0.049 A 
HETATM   13  C   UNL     1      42.392 -16.763   4.675  1.00  0.00    -0.052 A 
HETATM   14  C   UNL     1      44.287 -18.280   4.655  1.00  0.00     0.007 A 
HETATM   15  C   UNL     1      42.169 -17.060   3.322  1.00  0.00     0.007 A 
HETATM   16  C   UNL     1      41.506 -15.745   5.352  1.00  0.00     0.042 C 
HETATM   17  C   UNL     1      42.993 -17.961   2.646  1.00  0.00     0.001 A 
HETATM   18  C   UNL     1      44.049 -18.573   3.313  1.00  0.00     0.001 A 
HETATM   19  C   UNL     1      41.689 -15.680   6.869  1.00  0.00     0.044 C 
BRANCH  10  20
HETATM   20  O   UNL     1      43.228 -15.722   8.729  1.00  0.00    -0.388 OA
HETATM   21  H   UNL     1      42.320 -15.818   9.068  1.00  0.00     0.210 HD
ENDBRANCH  10  20
ENDBRANCH   9  10
ENDBRANCH   6   9
ENDBRANCH   1   5
BRANCH   2  22
HETATM   22  C   UNL     1      42.115 -10.760   5.242  1.00  0.00     0.035 A 
HETATM   23  C   UNL     1      42.864 -11.660   4.488  1.00  0.00     0.039 A 
HETATM   24  C   UNL     1      42.338 -12.246   3.320  1.00  0.00    -0.029 A 
HETATM   25  C   UNL     1      41.052 -11.893   2.859  1.00  0.00     0.043 A 
HETATM   26  C   UNL     1      43.212 -13.229   2.589  1.00  0.00     0.042 C 
HETATM   27  N   UNL     1      40.572 -12.411   1.601  1.00  0.00    -0.313 N 
HETATM   28  C   UNL     1      40.308 -11.002   3.648  1.00  0.00     0.032 A 
HETATM   29  C   UNL     1      39.266 -12.165   1.111  1.00  0.00     0.265 C 
HETATM   30  C   UNL     1      41.498 -13.247   0.822  1.00  0.00     0.133 C 
HETATM   31  O   UNL     1      38.310 -11.912   1.844  1.00  0.00    -0.267 OA
HETATM   32  C   UNL     1      42.376 -14.122   1.696  1.00  0.00     0.025 C 
HETATM   33  C   UNL     1      40.818 -10.469   4.841  1.00  0.00     0.032 A 
BRANCH  29  34
HETATM   34  C   UNL     1      39.091 -12.229  -0.341  1.00  0.00     0.073 A 
HETATM   35  S   UNL     1      39.476 -10.857  -1.294  1.00  0.00    -0.097 SA
HETATM   36  C   UNL     1      39.034 -11.654  -2.740  1.00  0.00     0.050 A 
HETATM   37  C   UNL     1      38.631 -12.951  -2.514  1.00  0.00     0.009 A 
HETATM   38  C   UNL     1      38.682 -13.289  -1.130  1.00  0.00     0.025 A 
ENDBRANCH  29  34
ENDBRANCH   2  22
TORSDOF 6
ENDMDL
MODEL 4
REMARK VINA RESULT:      -9.6      1.785      2.433
REMARK  6 active torsions:
REMARK  status: ('A' for Active; 'I' for Inactive)
REMARK    1  A    between atoms: C_6  and  C_8 
REMARK    2  A    between atoms: C_6  and  O_7 
REMARK    3  A    between atoms: C_8  and  N_9 
REMARK       I    between atoms: N_9  and  C_10 
REMARK    4  A    between atoms: C_10  and  C_11 
REMARK       I    between atoms: C_11  and  N_12 
REMARK    5  A    between atoms: N_12  and  C_13 
REMARK       I    between atoms: N_17  and  C_18 
REMARK    6  A    between atoms: C_18  and  C_19 
ROOT
HETATM    1  C   UNL     1      45.812 -10.931   6.946  1.00  0.00     0.313 C 
HETATM    2  N   UNL     1      45.932  -9.897   7.849  1.00  0.00    -0.319 N 
HETATM    3  O   UNL     1      46.774 -11.418   6.361  1.00  0.00    -0.262 OA
HETATM    4  H   UNL     1      46.766  -9.338   7.719  1.00  0.00     0.169 HD
ENDROOT
BRANCH   1   5
HETATM    5  C   UNL     1      44.393 -11.386   6.568  1.00  0.00     0.309 C 
HETATM    6  N   UNL     1      44.236 -12.747   6.423  1.00  0.00    -0.350 N 
HETATM    7  H   UNL     1      45.000 -13.369   6.665  1.00  0.00     0.163 HD
HETATM    8  O   UNL     1      43.502 -10.557   6.433  1.00  0.00    -0.262 OA
BRANCH   6   9
HETATM    9  C   UNL     1      42.918 -13.311   6.201  1.00  0.00     0.161 C 
BRANCH   9  10
HETATM   10  C   UNL     1      42.728 -14.695   6.862  1.00  0.00     0.078 C 
HETATM   11  C   UNL     1      43.554 -15.797   6.172  1.00  0.00     0.078 C 
HETATM   12  C   UNL     1      42.989 -16.229   4.844  1.00  0.00    -0.049 A 
HETATM   13  C   UNL     1      41.633 -16.031   4.523  1.00  0.00    -0.052 A 
HETATM   14  C   UNL     1      43.829 -16.879   3.927  1.00  0.00     0.007 A 
HETATM   15  C   UNL     1      41.157 -16.452   3.273  1.00  0.00     0.007 A 
HETATM   16  C   UNL     1      40.691 -15.307   5.455  1.00  0.00     0.042 C 
HETATM   17  C   UNL     1      42.006 -17.084   2.363  1.00  0.00     0.001 A 
HETATM   18  C   UNL     1      43.340 -17.300   2.692  1.00  0.00     0.001 A 
HETATM   19  C   UNL     1      41.249 -15.111   6.865  1.00  0.00     0.044 C 
BRANCH  10  20
HETATM   20  O   UNL     1      43.166 -14.575   8.231  1.00  0.00    -0.388 OA
HETATM   21  H   UNL     1      43.559 -15.425   8.493  1.00  0.00     0.210 HD
ENDBRANCH  10  20
ENDBRANCH   9  10
ENDBRANCH   6   9
ENDBRANCH   1   5
BRANCH   2  22
HETATM   22  C   UNL     1      44.981  -9.463   8.785  1.00  0.00     0.035 A 
HETATM   23  C   UNL     1      44.583 -10.252   9.861  1.00  0.00     0.039 A 
HETATM   24  C   UNL     1      43.653  -9.777  10.807  1.00  0.00    -0.029 A 
HETATM   25  C   UNL     1      43.065  -8.504  10.656  1.00  0.00     0.043 A 
HETATM   26  C   UNL     1      43.306 -10.692  11.951  1.00  0.00     0.042 C 
HETATM   27  N   UNL     1      42.029  -8.078  11.566  1.00  0.00    -0.313 N 
HETATM   28  C   UNL     1      43.500  -7.719   9.577  1.00  0.00     0.032 A 
HETATM   29  C   UNL     1      41.447  -6.787  11.526  1.00  0.00     0.265 C 
HETATM   30  C   UNL     1      41.591  -9.045  12.584  1.00  0.00     0.133 C 
HETATM   31  O   UNL     1      42.030  -5.802  11.074  1.00  0.00    -0.267 OA
HETATM   32  C   UNL     1      42.727  -9.903  13.106  1.00  0.00     0.025 C 
HETATM   33  C   UNL     1      44.470  -8.176   8.674  1.00  0.00     0.032 A 
BRANCH  29  34
HETATM   34  C   UNL     1      40.090  -6.666  12.061  1.00  0.00     0.073 A 
HETATM   35  S   UNL     1      38.758  -7.107  11.077  1.00  0.00    -0.097 SA
HETATM   36  C   UNL     1      37.635  -6.708  12.303  1.00  0.00     0.050 A 
HETATM   37  C   UNL     1      38.256  -6.277  13.453  1.00  0.00     0.009 A 
HETATM   38  C   UNL     1      39.675  -6.271  13.321  1.00  0.00     0.025 A 
ENDBRANCH  29  34
ENDBRANCH   2  22
TORSDOF 6
ENDMDL
MODEL 5
REMARK VINA RESULT:      -9.5      5.387      9.434
REMARK  6 active torsions:
REMARK  status: ('A' for Active; 'I' for Inactive)
REMARK    1  A    between atoms: C_6  and  C_8 
REMARK    2  A    between atoms: C_6  and  O_7 
REMARK    3  A    between atoms: C_8  and  N_9 
REMARK       I    between atoms: N_9  and  C_10 
REMARK    4  A    between atoms: C_10  and  C_11 
REMARK       I    between atoms: C_11  and  N_12 
REMARK    5  A    between atoms: N_12  and  C_13 
REMARK       I    between atoms: N_17  and  C_18 
REMARK    6  A    between atoms: C_18  and  C_19 
ROOT
HETATM    1  C   UNL     1      41.651 -10.293   6.584  1.00  0.00     0.313 C 
HETATM    2  N   UNL     1      40.963  -9.722   5.534  1.00  0.00    -0.319 N 
HETATM    3  O   UNL     1      41.532  -9.911   7.743  1.00  0.00    -0.262 OA
HETATM    4  H   UNL     1      40.666  -8.771   5.713  1.00  0.00     0.169 HD
ENDROOT
BRANCH   1   5
HETATM    5  C   UNL     1      42.705 -11.360   6.248  1.00  0.00     0.309 C 
HETATM    6  N   UNL     1      42.422 -12.626   6.712  1.00  0.00    -0.350 N 
HETATM    7  H   UNL     1      41.523 -12.813   7.142  1.00  0.00     0.163 HD
HETATM    8  O   UNL     1      43.698 -11.055   5.599  1.00  0.00    -0.262 OA
BRANCH   6   9
HETATM    9  C   UNL     1      43.270 -13.745   6.346  1.00  0.00     0.161 C 
BRANCH   9  10
HETATM   10  C   UNL     1      42.797 -15.088   6.945  1.00  0.00     0.078 C 
HETATM   11  C   UNL     1      43.530 -16.298   6.335  1.00  0.00     0.078 C 
HETATM   12  C   UNL     1      43.077 -16.633   4.937  1.00  0.00    -0.049 A 
HETATM   13  C   UNL     1      41.816 -16.233   4.459  1.00  0.00    -0.052 A 
HETATM   14  C   UNL     1      43.920 -17.396   4.115  1.00  0.00     0.007 A 
HETATM   15  C   UNL     1      41.443 -16.571   3.149  1.00  0.00     0.007 A 
HETATM   16  C   UNL     1      40.883 -15.382   5.285  1.00  0.00     0.042 C 
HETATM   17  C   UNL     1      42.295 -17.317   2.335  1.00  0.00     0.001 A 
HETATM   18  C   UNL     1      43.532 -17.732   2.819  1.00  0.00     0.001 A 
HETATM   19  C   UNL     1      41.284 -15.279   6.757  1.00  0.00     0.044 C 
BRANCH  10  20
HETATM   20  O   UNL     1      43.075 -15.043   8.360  1.00  0.00    -0.388 OA
HETATM   21  H   UNL     1      42.739 -15.867   8.755  1.00  0.00     0.210 HD
ENDBRANCH  10  20
ENDBRANCH   9  10
ENDBRANCH   6   9
ENDBRANCH   1   5
BRANCH   2  22
HETATM   22  C   UNL     1      40.783 -10.243   4.244  1.00  0.00     0.035 A 
HETATM   23  C   UNL     1      41.107  -9.521   3.098  1.00  0.00     0.039 A 
HETATM   24  C   UNL     1      40.950 -10.082   1.816  1.00  0.00    -0.029 A 
HETATM   25  C   UNL     1      40.412 -11.376   1.661  1.00  0.00     0.043 A 
HETATM   26  C   UNL     1      41.355  -9.234   0.640  1.00  0.00     0.042 C 
HETATM   27  N   UNL     1      40.148 -11.893   0.340  1.00  0.00    -0.313 N 
HETATM   28  C   UNL     1      40.115 -12.093   2.831  1.00  0.00     0.032 A 
HETATM   29  C   UNL     1      39.683 -13.210   0.103  1.00  0.00     0.265 C 
HETATM   30  C   UNL     1      40.403 -10.993  -0.794  1.00  0.00     0.133 C 
HETATM   31  O   UNL     1      39.887 -14.144   0.878  1.00  0.00    -0.267 OA
HETATM   32  C   UNL     1      41.608 -10.099  -0.577  1.00  0.00     0.025 C 
HETATM   33  C   UNL     1      40.330 -11.549   4.106  1.00  0.00     0.032 A 
BRANCH  29  34
HETATM   34  C   UNL     1      38.931 -13.422  -1.135  1.00  0.00     0.073 A 
HETATM   35  S   UNL     1      39.520 -14.540  -2.293  1.00  0.00    -0.097 SA
HETATM   36  C   UNL     1      38.211 -14.236  -3.351  1.00  0.00     0.050 A 
HETATM   37  C   UNL     1      37.322 -13.326  -2.825  1.00  0.00     0.009 A 
HETATM   38  C   UNL     1      37.727 -12.870  -1.536  1.00  0.00     0.025 A 
ENDBRANCH  29  34
ENDBRANCH   2  22
TORSDOF 6
ENDMDL
MODEL 6
REMARK VINA RESULT:      -9.4      3.038      3.775
REMARK  6 active torsions:
REMARK  status: ('A' for Active; 'I' for Inactive)
REMARK    1  A    between atoms: C_6  and  C_8 
REMARK    2  A    between atoms: C_6  and  O_7 
REMARK    3  A    between atoms: C_8  and  N_9 
REMARK       I    between atoms: N_9  and  C_10 
REMARK    4  A    between atoms: C_10  and  C_11 
REMARK       I    between atoms: C_11  and  N_12 
REMARK    5  A    between atoms: N_12  and  C_13 
REMARK       I    between atoms: N_17  and  C_18 
REMARK    6  A    between atoms: C_18  and  C_19 
ROOT
HETATM    1  C   UNL     1      41.922 -10.555   2.637  1.00  0.00     0.313 C 
HETATM    2  N   UNL     1      40.927  -9.830   3.258  1.00  0.00    -0.319 N 
HETATM    3  O   UNL     1      42.064 -10.581   1.419  1.00  0.00    -0.262 OA
HETATM    4  H   UNL     1      40.130  -9.641   2.663  1.00  0.00     0.169 HD
ENDROOT
BRANCH   1   5
HETATM    5  C   UNL     1      42.791 -11.469   3.515  1.00  0.00     0.309 C 
HETATM    6  N   UNL     1      42.189 -12.644   3.909  1.00  0.00    -0.350 N 
HETATM    7  H   UNL     1      41.280 -12.893   3.532  1.00  0.00     0.163 HD
HETATM    8  O   UNL     1      43.933 -11.135   3.802  1.00  0.00    -0.262 OA
BRANCH   6   9
HETATM    9  C   UNL     1      42.948 -13.650   4.627  1.00  0.00     0.161 C 
BRANCH   9  10
HETATM   10  C   UNL     1      42.059 -14.644   5.407  1.00  0.00     0.078 C 
HETATM   11  C   UNL     1      42.823 -15.911   5.834  1.00  0.00     0.078 C 
HETATM   12  C   UNL     1      43.088 -16.866   4.699  1.00  0.00    -0.049 A 
HETATM   13  C   UNL     1      42.305 -16.851   3.530  1.00  0.00    -0.052 A 
HETATM   14  C   UNL     1      44.114 -17.813   4.834  1.00  0.00     0.007 A 
HETATM   15  C   UNL     1      42.593 -17.761   2.502  1.00  0.00     0.007 A 
HETATM   16  C   UNL     1      41.212 -15.833   3.315  1.00  0.00     0.042 C 
HETATM   17  C   UNL     1      43.626 -18.689   2.641  1.00  0.00     0.001 A 
HETATM   18  C   UNL     1      44.384 -18.717   3.808  1.00  0.00     0.001 A 
HETATM   19  C   UNL     1      40.832 -15.060   4.579  1.00  0.00     0.044 C 
BRANCH  10  20
HETATM   20  O   UNL     1      41.595 -13.960   6.589  1.00  0.00    -0.388 OA
HETATM   21  H   UNL     1      40.660 -14.197   6.721  1.00  0.00     0.210 HD
ENDBRANCH  10  20
ENDBRANCH   9  10
ENDBRANCH   6   9
ENDBRANCH   1   5
BRANCH   2  22
HETATM   22  C   UNL     1      40.840  -9.482   4.614  1.00  0.00     0.035 A 
HETATM   23  C   UNL     1      41.457  -8.345   5.131  1.00  0.00     0.039 A 
HETATM   24  C   UNL     1      41.324  -7.999   6.490  1.00  0.00    -0.029 A 
HETATM   25  C   UNL     1      40.599  -8.828   7.372  1.00  0.00     0.043 A 
HETATM   26  C   UNL     1      42.003  -6.737   6.949  1.00  0.00     0.042 C 
HETATM   27  N   UNL     1      40.568  -8.524   8.782  1.00  0.00    -0.313 N 
HETATM   28  C   UNL     1      39.968  -9.954   6.823  1.00  0.00     0.032 A 
HETATM   29  C   UNL     1      39.801  -9.262   9.716  1.00  0.00     0.265 C 
HETATM   30  C   UNL     1      41.365  -7.376   9.238  1.00  0.00     0.133 C 
HETATM   31  O   UNL     1      38.787  -9.888   9.407  1.00  0.00    -0.267 OA
HETATM   32  C   UNL     1      41.384  -6.237   8.237  1.00  0.00     0.025 C 
HETATM   33  C   UNL     1      40.056 -10.260   5.457  1.00  0.00     0.032 A 
BRANCH  29  34
HETATM   34  C   UNL     1      40.271  -9.250  11.102  1.00  0.00     0.073 A 
HETATM   35  S   UNL     1      39.380  -8.386  12.284  1.00  0.00    -0.097 SA
HETATM   36  C   UNL     1      40.479  -8.812  13.522  1.00  0.00     0.050 A 
HETATM   37  C   UNL     1      41.492  -9.622  13.059  1.00  0.00     0.009 A 
HETATM   38  C   UNL     1      41.361  -9.891  11.665  1.00  0.00     0.025 A 
ENDBRANCH  29  34
ENDBRANCH   2  22
TORSDOF 6
ENDMDL
MODEL 7
REMARK VINA RESULT:      -9.3      3.379      8.990
REMARK  6 active torsions:
REMARK  status: ('A' for Active; 'I' for Inactive)
REMARK    1  A    between atoms: C_6  and  C_8 
REMARK    2  A    between atoms: C_6  and  O_7 
REMARK    3  A    between atoms: C_8  and  N_9 
REMARK       I    between atoms: N_9  and  C_10 
REMARK    4  A    between atoms: C_10  and  C_11 
REMARK       I    between atoms: C_11  and  N_12 
REMARK    5  A    between atoms: N_12  and  C_13 
REMARK       I    between atoms: N_17  and  C_18 
REMARK    6  A    between atoms: C_18  and  C_19 
ROOT
HETATM    1  C   UNL     1      39.087  -8.127   7.966  1.00  0.00     0.313 C 
HETATM    2  N   UNL     1      39.734  -8.442   6.791  1.00  0.00    -0.319 N 
HETATM    3  O   UNL     1      38.417  -7.109   8.104  1.00  0.00    -0.262 OA
HETATM    4  H   UNL     1      39.929  -7.639   6.207  1.00  0.00     0.169 HD
ENDROOT
BRANCH   1   5
HETATM    5  C   UNL     1      39.340  -9.031   9.183  1.00  0.00     0.309 C 
HETATM    6  N   UNL     1      40.388  -8.644   9.991  1.00  0.00    -0.350 N 
HETATM    7  H   UNL     1      40.856  -7.761   9.814  1.00  0.00     0.163 HD
HETATM    8  O   UNL     1      38.623 -10.004   9.381  1.00  0.00    -0.262 OA
BRANCH   6   9
HETATM    9  C   UNL     1      40.642  -9.335  11.240  1.00  0.00     0.161 C 
BRANCH   9  10
HETATM   10  C   UNL     1      41.732  -8.657  12.100  1.00  0.00     0.078 C 
HETATM   11  C   UNL     1      42.646  -7.732  11.273  1.00  0.00     0.078 C 
HETATM   12  C   UNL     1      43.631  -8.476  10.409  1.00  0.00    -0.049 A 
HETATM   13  C   UNL     1      44.012  -9.798  10.702  1.00  0.00    -0.052 A 
HETATM   14  C   UNL     1      44.207  -7.816   9.313  1.00  0.00     0.007 A 
HETATM   15  C   UNL     1      44.934 -10.446   9.865  1.00  0.00     0.007 A 
HETATM   16  C   UNL     1      43.400 -10.570  11.846  1.00  0.00     0.042 C 
HETATM   17  C   UNL     1      45.489  -9.784   8.770  1.00  0.00     0.001 A 
HETATM   18  C   UNL     1      45.128  -8.469   8.496  1.00  0.00     0.001 A 
HETATM   19  C   UNL     1      42.602  -9.701  12.818  1.00  0.00     0.044 C 
BRANCH  10  20
HETATM   20  O   UNL     1      41.055  -7.868  13.099  1.00  0.00    -0.388 OA
HETATM   21  H   UNL     1      40.268  -7.475  12.683  1.00  0.00     0.210 HD
ENDBRANCH  10  20
ENDBRANCH   9  10
ENDBRANCH   6   9
ENDBRANCH   1   5
BRANCH   2  22
HETATM   22  C   UNL     1      40.268  -9.684   6.414  1.00  0.00     0.035 A 
HETATM   23  C   UNL     1      39.621 -10.528   5.515  1.00  0.00     0.039 A 
HETATM   24  C   UNL     1      40.197 -11.753   5.124  1.00  0.00    -0.029 A 
HETATM   25  C   UNL     1      41.424 -12.176   5.676  1.00  0.00     0.043 A 
HETATM   26  C   UNL     1      39.436 -12.585   4.127  1.00  0.00     0.042 C 
HETATM   27  N   UNL     1      41.945 -13.483   5.357  1.00  0.00    -0.313 N 
HETATM   28  C   UNL     1      42.068 -11.297   6.561  1.00  0.00     0.032 A 
HETATM   29  C   UNL     1      43.205 -13.946   5.809  1.00  0.00     0.265 C 
HETATM   30  C   UNL     1      41.114 -14.345   4.504  1.00  0.00     0.133 C 
HETATM   31  O   UNL     1      44.134 -13.191   6.096  1.00  0.00    -0.267 OA
HETATM   32  C   UNL     1      40.359 -13.570   3.442  1.00  0.00     0.025 C 
HETATM   33  C   UNL     1      41.516 -10.052   6.899  1.00  0.00     0.032 A 
BRANCH  29  34
HETATM   34  C   UNL     1      43.365 -15.396   5.922  1.00  0.00     0.073 A 
HETATM   35  S   UNL     1      42.923 -16.179   7.381  1.00  0.00    -0.097 SA
HETATM   36  C   UNL     1      43.375 -17.712   6.774  1.00  0.00     0.050 A 
HETATM   37  C   UNL     1      43.825 -17.643   5.475  1.00  0.00     0.009 A 
HETATM   38  C   UNL     1      43.801 -16.307   4.975  1.00  0.00     0.025 A 
ENDBRANCH  29  34
ENDBRANCH   2  22
TORSDOF 6
ENDMDL
MODEL 8
REMARK VINA RESULT:      -9.2     19.743     23.075
REMARK  6 active torsions:
REMARK  status: ('A' for Active; 'I' for Inactive)
REMARK    1  A    between atoms: C_6  and  C_8 
REMARK    2  A    between atoms: C_6  and  O_7 
REMARK    3  A    between atoms: C_8  and  N_9 
REMARK       I    between atoms: N_9  and  C_10 
REMARK    4  A    between atoms: C_10  and  C_11 
REMARK       I    between atoms: C_11  and  N_12 
REMARK    5  A    between atoms: N_12  and  C_13 
REMARK       I    between atoms: N_17  and  C_18 
REMARK    6  A    between atoms: C_18  and  C_19 
ROOT
HETATM    1  C   UNL     1      47.684 -28.332   1.968  1.00  0.00     0.313 C 
HETATM    2  N   UNL     1      48.229 -28.322   0.702  1.00  0.00    -0.319 N 
HETATM    3  O   UNL     1      48.090 -27.611   2.873  1.00  0.00    -0.262 OA
HETATM    4  H   UNL     1      49.182 -27.981   0.673  1.00  0.00     0.169 HD
ENDROOT
BRANCH   1   5
HETATM    5  C   UNL     1      46.617 -29.394   2.275  1.00  0.00     0.309 C 
HETATM    6  N   UNL     1      45.316 -28.939   2.250  1.00  0.00    -0.350 N 
HETATM    7  H   UNL     1      45.123 -27.992   1.940  1.00  0.00     0.163 HD
HETATM    8  O   UNL     1      46.952 -30.549   2.504  1.00  0.00    -0.262 OA
BRANCH   6   9
HETATM    9  C   UNL     1      44.212 -29.870   2.390  1.00  0.00     0.161 C 
BRANCH   9  10
HETATM   10  C   UNL     1      43.079 -29.628   1.369  1.00  0.00     0.078 C 
HETATM   11  C   UNL     1      41.916 -30.626   1.529  1.00  0.00     0.078 C 
HETATM   12  C   UNL     1      42.234 -32.007   1.018  1.00  0.00    -0.049 A 
HETATM   13  C   UNL     1      43.248 -32.222   0.067  1.00  0.00    -0.052 A 
HETATM   14  C   UNL     1      41.473 -33.093   1.476  1.00  0.00     0.007 A 
HETATM   15  C   UNL     1      43.504 -33.528  -0.376  1.00  0.00     0.007 A 
HETATM   16  C   UNL     1      44.122 -31.098  -0.435  1.00  0.00     0.042 C 
HETATM   17  C   UNL     1      42.750 -34.602   0.097  1.00  0.00     0.001 A 
HETATM   18  C   UNL     1      41.733 -34.384   1.021  1.00  0.00     0.001 A 
HETATM   19  C   UNL     1      43.604 -29.706  -0.074  1.00  0.00     0.044 C 
BRANCH  10  20
HETATM   20  O   UNL     1      42.580 -28.294   1.596  1.00  0.00    -0.388 OA
HETATM   21  H   UNL     1      41.649 -28.273   1.314  1.00  0.00     0.210 HD
ENDBRANCH  10  20
ENDBRANCH   9  10
ENDBRANCH   6   9
ENDBRANCH   1   5
BRANCH   2  22
HETATM   22  C   UNL     1      47.680 -28.860  -0.471  1.00  0.00     0.035 A 
HETATM   23  C   UNL     1      46.682 -28.207  -1.192  1.00  0.00     0.039 A 
HETATM   24  C   UNL     1      46.174 -28.752  -2.387  1.00  0.00    -0.029 A 
HETATM   25  C   UNL     1      46.631 -30.002  -2.856  1.00  0.00     0.043 A 
HETATM   26  C   UNL     1      45.118 -27.960  -3.111  1.00  0.00     0.042 C 
HETATM   27  N   UNL     1      46.020 -30.603  -4.017  1.00  0.00    -0.313 N 
HETATM   28  C   UNL     1      47.652 -30.628  -2.125  1.00  0.00     0.032 A 
HETATM   29  C   UNL     1      46.475 -31.815  -4.591  1.00  0.00     0.265 C 
HETATM   30  C   UNL     1      44.884 -29.889  -4.621  1.00  0.00     0.133 C 
HETATM   31  O   UNL     1      47.633 -32.216  -4.481  1.00  0.00    -0.267 OA
HETATM   32  C   UNL     1      45.039 -28.382  -4.563  1.00  0.00     0.025 C 
HETATM   33  C   UNL     1      48.195 -30.050  -0.968  1.00  0.00     0.032 A 
BRANCH  29  34
HETATM   34  C   UNL     1      45.488 -32.590  -5.345  1.00  0.00     0.073 A 
HETATM   35  S   UNL     1      45.532 -32.568  -7.058  1.00  0.00    -0.097 SA
HETATM   36  C   UNL     1      44.183 -33.611  -7.173  1.00  0.00     0.050 A 
HETATM   37  C   UNL     1      43.721 -33.999  -5.936  1.00  0.00     0.009 A 
HETATM   38  C   UNL     1      44.487 -33.425  -4.879  1.00  0.00     0.025 A 
ENDBRANCH  29  34
ENDBRANCH   2  22
TORSDOF 6
ENDMDL
MODEL 9
REMARK VINA RESULT:      -9.2      3.480     10.206
REMARK  6 active torsions:
REMARK  status: ('A' for Active; 'I' for Inactive)
REMARK    1  A    between atoms: C_6  and  C_8 
REMARK    2  A    between atoms: C_6  and  O_7 
REMARK    3  A    between atoms: C_8  and  N_9 
REMARK       I    between atoms: N_9  and  C_10 
REMARK    4  A    between atoms: C_10  and  C_11 
REMARK       I    between atoms: C_11  and  N_12 
REMARK    5  A    between atoms: N_12  and  C_13 
REMARK       I    between atoms: N_17  and  C_18 
REMARK    6  A    between atoms: C_18  and  C_19 
ROOT
HETATM    1  C   UNL     1      39.140  -8.707   7.628  1.00  0.00     0.313 C 
HETATM    2  N   UNL     1      39.864  -9.124   6.532  1.00  0.00    -0.319 N 
HETATM    3  O   UNL     1      38.403  -7.727   7.605  1.00  0.00    -0.262 OA
HETATM    4  H   UNL     1      40.039  -8.390   5.858  1.00  0.00     0.169 HD
ENDROOT
BRANCH   1   5
HETATM    5  C   UNL     1      39.386  -9.431   8.962  1.00  0.00     0.309 C 
HETATM    6  N   UNL     1      40.501  -9.014   9.656  1.00  0.00    -0.350 N 
HETATM    7  H   UNL     1      41.026  -8.211   9.324  1.00  0.00     0.163 HD
HETATM    8  O   UNL     1      38.608 -10.298   9.338  1.00  0.00    -0.262 OA
BRANCH   6   9
HETATM    9  C   UNL     1      40.767  -9.523  10.987  1.00  0.00     0.161 C 
BRANCH   9  10
HETATM   10  C   UNL     1      42.272  -9.569  11.332  1.00  0.00     0.078 C 
HETATM   11  C   UNL     1      42.527  -9.737  12.842  1.00  0.00     0.078 C 
HETATM   12  C   UNL     1      42.268  -8.485  13.639  1.00  0.00    -0.049 A 
HETATM   13  C   UNL     1      42.292  -7.214  13.037  1.00  0.00    -0.052 A 
HETATM   14  C   UNL     1      42.037  -8.593  15.019  1.00  0.00     0.007 A 
HETATM   15  C   UNL     1      42.044  -6.079  13.824  1.00  0.00     0.007 A 
HETATM   16  C   UNL     1      42.500  -7.039  11.552  1.00  0.00     0.042 C 
HETATM   17  C   UNL     1      41.801  -6.200  15.192  1.00  0.00     0.001 A 
HETATM   18  C   UNL     1      41.801  -7.457  15.790  1.00  0.00     0.001 A 
HETATM   19  C   UNL     1      42.993  -8.302  10.845  1.00  0.00     0.044 C 
BRANCH  10  20
HETATM   20  O   UNL     1      42.832 -10.702  10.638  1.00  0.00    -0.388 OA
HETATM   21  H   UNL     1      43.312 -11.243  11.290  1.00  0.00     0.210 HD
ENDBRANCH  10  20
ENDBRANCH   9  10
ENDBRANCH   6   9
ENDBRANCH   1   5
BRANCH   2  22
HETATM   22  C   UNL     1      40.490 -10.365   6.341  1.00  0.00     0.035 A 
HETATM   23  C   UNL     1      41.868 -10.529   6.467  1.00  0.00     0.039 A 
HETATM   24  C   UNL     1      42.468 -11.793   6.307  1.00  0.00    -0.029 A 
HETATM   25  C   UNL     1      41.688 -12.917   5.965  1.00  0.00     0.043 A 
HETATM   26  C   UNL     1      43.960 -11.875   6.489  1.00  0.00     0.042 C 
HETATM   27  N   UNL     1      42.329 -14.181   5.690  1.00  0.00    -0.313 N 
HETATM   28  C   UNL     1      40.300 -12.732   5.868  1.00  0.00     0.032 A 
HETATM   29  C   UNL     1      41.609 -15.370   5.418  1.00  0.00     0.265 C 
HETATM   30  C   UNL     1      43.799 -14.207   5.720  1.00  0.00     0.133 C 
HETATM   31  O   UNL     1      40.463 -15.568   5.819  1.00  0.00    -0.267 OA
HETATM   32  C   UNL     1      44.381 -13.299   6.785  1.00  0.00     0.025 C 
HETATM   33  C   UNL     1      39.705 -11.481   6.087  1.00  0.00     0.032 A 
BRANCH  29  34
HETATM   34  C   UNL     1      42.303 -16.384   4.621  1.00  0.00     0.073 A 
HETATM   35  S   UNL     1      43.258 -17.566   5.413  1.00  0.00    -0.097 SA
HETATM   36  C   UNL     1      43.695 -18.301   3.932  1.00  0.00     0.050 A 
HETATM   37  C   UNL     1      43.104 -17.684   2.853  1.00  0.00     0.009 A 
HETATM   38  C   UNL     1      42.284 -16.588   3.252  1.00  0.00     0.025 A 
ENDBRANCH  29  34
ENDBRANCH   2  22
TORSDOF 6
ENDMDL
MODEL 10
REMARK VINA RESULT:      -9.2      3.657     10.368
REMARK  6 active torsions:
REMARK  status: ('A' for Active; 'I' for Inactive)
REMARK    1  A    between atoms: C_6  and  C_8 
REMARK    2  A    between atoms: C_6  and  O_7 
REMARK    3  A    between atoms: C_8  and  N_9 
REMARK       I    between atoms: N_9  and  C_10 
REMARK    4  A    between atoms: C_10  and  C_11 
REMARK       I    between atoms: C_11  and  N_12 
REMARK    5  A    between atoms: N_12  and  C_13 
REMARK       I    between atoms: N_17  and  C_18 
REMARK    6  A    between atoms: C_18  and  C_19 
ROOT
HETATM    1  C   UNL     1      39.599 -11.025   6.625  1.00  0.00     0.313 C 
HETATM    2  N   UNL     1      39.250 -12.210   6.012  1.00  0.00    -0.319 N 
HETATM    3  O   UNL     1      38.819 -10.379   7.316  1.00  0.00    -0.262 OA
HETATM    4  H   UNL     1      38.254 -12.310   5.859  1.00  0.00     0.169 HD
ENDROOT
BRANCH   1   5
HETATM    5  C   UNL     1      40.984 -10.440   6.305  1.00  0.00     0.309 C 
HETATM    6  N   UNL     1      41.924 -10.585   7.303  1.00  0.00    -0.350 N 
HETATM    7  H   UNL     1      41.702 -11.139   8.122  1.00  0.00     0.163 HD
HETATM    8  O   UNL     1      41.186  -9.907   5.221  1.00  0.00    -0.262 OA
BRANCH   6   9
HETATM    9  C   UNL     1      43.301 -10.195   7.071  1.00  0.00     0.161 C 
BRANCH   9  10
HETATM   10  C   UNL     1      44.213 -10.423   8.298  1.00  0.00     0.078 C 
HETATM   11  C   UNL     1      43.420 -10.495   9.617  1.00  0.00     0.078 C 
HETATM   12  C   UNL     1      42.922  -9.155  10.094  1.00  0.00    -0.049 A 
HETATM   13  C   UNL     1      43.530  -7.956   9.678  1.00  0.00    -0.052 A 
HETATM   14  C   UNL     1      41.856  -9.112  11.004  1.00  0.00     0.007 A 
HETATM   15  C   UNL     1      43.028  -6.735  10.153  1.00  0.00     0.007 A 
HETATM   16  C   UNL     1      44.658  -7.940   8.675  1.00  0.00     0.042 C 
HETATM   17  C   UNL     1      41.957  -6.704  11.045  1.00  0.00     0.001 A 
HETATM   18  C   UNL     1      41.373  -7.892  11.473  1.00  0.00     0.001 A 
HETATM   19  C   UNL     1      45.272  -9.316   8.416  1.00  0.00     0.044 C 
BRANCH  10  20
HETATM   20  O   UNL     1      44.892 -11.679   8.095  1.00  0.00    -0.388 OA
HETATM   21  H   UNL     1      44.308 -12.388   8.416  1.00  0.00     0.210 HD
ENDBRANCH  10  20
ENDBRANCH   9  10
ENDBRANCH   6   9
ENDBRANCH   1   5
BRANCH   2  22
HETATM   22  C   UNL     1      40.107 -13.174   5.460  1.00  0.00     0.035 A 
HETATM   23  C   UNL     1      40.600 -13.074   4.161  1.00  0.00     0.039 A 
HETATM   24  C   UNL     1      41.489 -14.036   3.644  1.00  0.00    -0.029 A 
HETATM   25  C   UNL     1      41.863 -15.155   4.418  1.00  0.00     0.043 A 
HETATM   26  C   UNL     1      41.989 -13.827   2.240  1.00  0.00     0.042 C 
HETATM   27  N   UNL     1      42.680 -16.192   3.837  1.00  0.00    -0.313 N 
HETATM   28  C   UNL     1      41.372 -15.221   5.732  1.00  0.00     0.032 A 
HETATM   29  C   UNL     1      43.160 -17.303   4.572  1.00  0.00     0.265 C 
HETATM   30  C   UNL     1      43.032 -16.050   2.416  1.00  0.00     0.133 C 
HETATM   31  O   UNL     1      43.330 -17.279   5.790  1.00  0.00    -0.267 OA
HETATM   32  C   UNL     1      43.266 -14.608   2.009  1.00  0.00     0.025 C 
HETATM   33  C   UNL     1      40.535 -14.227   6.259  1.00  0.00     0.032 A 
BRANCH  29  34
HETATM   34  C   UNL     1      43.455 -18.514   3.804  1.00  0.00     0.073 A 
HETATM   35  S   UNL     1      44.105 -19.881   4.609  1.00  0.00    -0.097 SA
HETATM   36  C   UNL     1      44.169 -20.787   3.161  1.00  0.00     0.050 A 
HETATM   37  C   UNL     1      43.677 -20.081   2.087  1.00  0.00     0.009 A 
HETATM   38  C   UNL     1      43.246 -18.775   2.461  1.00  0.00     0.025 A 
ENDBRANCH  29  34
ENDBRANCH   2  22
TORSDOF 6
ENDMDL
