MODEL 1
REMARK VINA RESULT:      -9.5      0.000      0.000
REMARK  6 active torsions:
REMARK  status: ('A' for Active; 'I' for Inactive)
REMARK    1  A    between atoms: C_7  and  C_8 
REMARK    2  A    between atoms: C_8  and  O_9 
REMARK    3  A    between atoms: N_12  and  C_13 
REMARK    4  A    between atoms: C_13  and  C_14 
REMARK    5  A    between atoms: C_14  and  C_15 
REMARK    6  A    between atoms: C_15  and  C_16 
ROOT
HETATM    1  C   UNL     1      41.613 -13.031   2.022  1.00  0.00     0.199 A 
HETATM    2  C   UNL     1      42.743 -13.885   2.692  1.00  0.00     0.269 A 
HETATM    3  O   UNL     1      43.707 -14.406   2.145  1.00  0.00    -0.269 OA
HETATM    4  N   UNL     1      42.473 -13.913   4.074  1.00  0.00    -0.314 N 
HETATM    5  C   UNL     1      41.281 -13.234   4.373  1.00  0.00     0.047 A 
HETATM    6  C   UNL     1      40.722 -12.712   3.201  1.00  0.00     0.017 A 
HETATM    7  C   UNL     1      40.666 -13.058   5.600  1.00  0.00     0.030 A 
HETATM    8  C   UNL     1      39.465 -12.343   5.639  1.00  0.00     0.002 A 
HETATM    9  C   UNL     1      38.903 -11.813   4.466  1.00  0.00     0.001 A 
HETATM   10  C   UNL     1      39.535 -11.990   3.235  1.00  0.00     0.013 A 
ENDROOT
BRANCH   1  11
HETATM   11  C   UNL     1      40.787 -13.819   1.028  1.00  0.00     0.025 A 
HETATM   12  C   UNL     1      40.187 -15.062   1.238  1.00  0.00     0.016 A 
HETATM   13  C   UNL     1      40.174 -15.953   2.430  1.00  0.00     0.069 C 
HETATM   14  N   UNL     1      39.508 -15.410   0.100  1.00  0.00    -0.359 N 
HETATM   15  H   UNL     1      38.968 -16.256  -0.017  1.00  0.00     0.166 HD
HETATM   16  C   UNL     1      39.648 -14.447  -0.866  1.00  0.00     0.043 A 
HETATM   17  C   UNL     1      40.444 -13.436  -0.327  1.00  0.00     0.003 A 
HETATM   18  C   UNL     1      39.125 -14.404  -2.165  1.00  0.00     0.030 A 
HETATM   19  C   UNL     1      40.732 -12.325  -1.152  1.00  0.00     0.014 A 
HETATM   20  C   UNL     1      40.218 -12.263  -2.454  1.00  0.00     0.001 A 
HETATM   21  C   UNL     1      39.424 -13.290  -2.951  1.00  0.00     0.002 A 
ENDBRANCH   1  11
BRANCH   1  22
HETATM   22  O   UNL     1      42.135 -11.810   1.499  1.00  0.00    -0.371 OA
HETATM   23  H   UNL     1      42.791 -12.055   0.826  1.00  0.00     0.212 HD
ENDBRANCH   1  22
BRANCH   4  24
HETATM   24  C   UNL     1      43.257 -14.686   5.012  1.00  0.00     0.133 C 
BRANCH  24  25
HETATM   25  C   UNL     1      42.853 -16.158   5.094  1.00  0.00     0.025 C 
BRANCH  25  26
HETATM   26  C   UNL     1      44.054 -17.106   5.138  1.00  0.00     0.040 C 
BRANCH  26  27
HETATM   27  C   UNL     1      43.841 -18.297   4.235  1.00  0.00    -0.058 A 
HETATM   28  C   UNL     1      44.153 -19.590   4.680  1.00  0.00     0.007 A 
HETATM   29  C   UNL     1      43.992 -20.688   3.834  1.00  0.00     0.001 A 
HETATM   30  C   UNL     1      43.515 -20.506   2.536  1.00  0.00     0.000 A 
HETATM   31  C   UNL     1      43.199 -19.226   2.085  1.00  0.00     0.001 A 
HETATM   32  C   UNL     1      43.363 -18.126   2.930  1.00  0.00     0.007 A 
ENDBRANCH  26  27
ENDBRANCH  25  26
ENDBRANCH  24  25
ENDBRANCH   4  24
TORSDOF 6
ENDMDL
MODEL 2
REMARK VINA RESULT:      -9.4      2.918      5.616
REMARK  6 active torsions:
REMARK  status: ('A' for Active; 'I' for Inactive)
REMARK    1  A    between atoms: C_7  and  C_8 
REMARK    2  A    between atoms: C_8  and  O_9 
REMARK    3  A    between atoms: N_12  and  C_13 
REMARK    4  A    between atoms: C_13  and  C_14 
REMARK    5  A    between atoms: C_14  and  C_15 
REMARK    6  A    between atoms: C_15  and  C_16 
ROOT
HETATM    1  C   UNL     1      40.487 -13.271   5.041  1.00  0.00     0.199 A 
HETATM    2  C   UNL     1      40.551 -14.646   5.790  1.00  0.00     0.269 A 
HETATM    3  O   UNL     1      39.983 -14.956   6.829  1.00  0.00    -0.269 OA
HETATM    4  N   UNL     1      41.363 -15.499   5.016  1.00  0.00    -0.314 N 
HETATM    5  C   UNL     1      41.877 -14.830   3.894  1.00  0.00     0.047 A 
HETATM    6  C   UNL     1      41.412 -13.511   3.869  1.00  0.00     0.017 A 
HETATM    7  C   UNL     1      42.726 -15.310   2.912  1.00  0.00     0.030 A 
HETATM    8  C   UNL     1      43.109 -14.437   1.888  1.00  0.00     0.002 A 
HETATM    9  C   UNL     1      42.640 -13.114   1.857  1.00  0.00     0.001 A 
HETATM   10  C   UNL     1      41.779 -12.643   2.848  1.00  0.00     0.013 A 
ENDROOT
BRANCH   1  11
HETATM   11  C   UNL     1      41.067 -12.130   5.850  1.00  0.00     0.025 A 
HETATM   12  C   UNL     1      40.377 -11.023   6.348  1.00  0.00     0.016 A 
HETATM   13  C   UNL     1      38.944 -10.634   6.243  1.00  0.00     0.069 C 
HETATM   14  N   UNL     1      41.261 -10.245   7.048  1.00  0.00    -0.359 N 
HETATM   15  H   UNL     1      41.024  -9.389   7.529  1.00  0.00     0.166 HD
HETATM   16  C   UNL     1      42.519 -10.790   7.022  1.00  0.00     0.043 A 
HETATM   17  C   UNL     1      42.441 -11.968   6.279  1.00  0.00     0.003 A 
HETATM   18  C   UNL     1      43.705 -10.324   7.603  1.00  0.00     0.030 A 
HETATM   19  C   UNL     1      43.632 -12.711   6.111  1.00  0.00     0.014 A 
HETATM   20  C   UNL     1      44.829 -12.262   6.684  1.00  0.00     0.001 A 
HETATM   21  C   UNL     1      44.861 -11.084   7.422  1.00  0.00     0.002 A 
ENDBRANCH   1  11
BRANCH   1  22
HETATM   22  O   UNL     1      39.174 -13.018   4.545  1.00  0.00    -0.371 OA
HETATM   23  H   UNL     1      39.081 -12.054   4.485  1.00  0.00     0.212 HD
ENDBRANCH   1  22
BRANCH   4  24
HETATM   24  C   UNL     1      41.727 -16.833   5.440  1.00  0.00     0.133 C 
BRANCH  24  25
HETATM   25  C   UNL     1      43.007 -16.894   6.272  1.00  0.00     0.025 C 
BRANCH  25  26
HETATM   26  C   UNL     1      44.246 -17.228   5.440  1.00  0.00     0.040 C 
BRANCH  26  27
HETATM   27  C   UNL     1      44.073 -18.537   4.706  1.00  0.00    -0.058 A 
HETATM   28  C   UNL     1      44.012 -19.745   5.413  1.00  0.00     0.007 A 
HETATM   29  C   UNL     1      43.889 -20.958   4.735  1.00  0.00     0.001 A 
HETATM   30  C   UNL     1      43.822 -20.976   3.342  1.00  0.00     0.000 A 
HETATM   31  C   UNL     1      43.879 -19.780   2.629  1.00  0.00     0.001 A 
HETATM   32  C   UNL     1      44.005 -18.566   3.307  1.00  0.00     0.007 A 
ENDBRANCH  26  27
ENDBRANCH  25  26
ENDBRANCH  24  25
ENDBRANCH   4  24
TORSDOF 6
ENDMDL
MODEL 3
REMARK VINA RESULT:      -9.1      2.979      5.627
REMARK  6 active torsions:
REMARK  status: ('A' for Active; 'I' for Inactive)
REMARK    1  A    between atoms: C_7  and  C_8 
REMARK    2  A    between atoms: C_8  and  O_9 
REMARK    3  A    between atoms: N_12  and  C_13 
REMARK    4  A    between atoms: C_13  and  C_14 
REMARK    5  A    between atoms: C_14  and  C_15 
REMARK    6  A    between atoms: C_15  and  C_16 
ROOT
HETATM    1  C   UNL     1      40.270 -14.394   2.558  1.00  0.00     0.199 A 
HETATM    2  C   UNL     1      40.217 -13.606   3.911  1.00  0.00     0.269 A 
HETATM    3  O   UNL     1      39.435 -12.717   4.225  1.00  0.00    -0.269 OA
HETATM    4  N   UNL     1      41.223 -14.141   4.739  1.00  0.00    -0.314 N 
HETATM    5  C   UNL     1      41.955 -15.135   4.071  1.00  0.00     0.047 A 
HETATM    6  C   UNL     1      41.452 -15.311   2.777  1.00  0.00     0.017 A 
HETATM    7  C   UNL     1      43.030 -15.877   4.528  1.00  0.00     0.030 A 
HETATM    8  C   UNL     1      43.603 -16.812   3.661  1.00  0.00     0.002 A 
HETATM    9  C   UNL     1      43.098 -16.995   2.364  1.00  0.00     0.001 A 
HETATM   10  C   UNL     1      42.009 -16.247   1.915  1.00  0.00     0.013 A 
ENDROOT
BRANCH   1  11
HETATM   11  C   UNL     1      40.594 -13.511   1.371  1.00  0.00     0.025 A 
HETATM   12  C   UNL     1      41.335 -12.329   1.386  1.00  0.00     0.016 A 
HETATM   13  C   UNL     1      41.996 -11.602   2.505  1.00  0.00     0.069 C 
HETATM   14  N   UNL     1      41.420 -11.858   0.103  1.00  0.00    -0.359 N 
HETATM   15  H   UNL     1      41.916 -11.023  -0.177  1.00  0.00     0.166 HD
HETATM   16  C   UNL     1      40.748 -12.680  -0.765  1.00  0.00     0.043 A 
HETATM   17  C   UNL     1      40.213 -13.725  -0.011  1.00  0.00     0.003 A 
HETATM   18  C   UNL     1      40.585 -12.570  -2.152  1.00  0.00     0.030 A 
HETATM   19  C   UNL     1      39.466 -14.708  -0.698  1.00  0.00     0.014 A 
HETATM   20  C   UNL     1      39.290 -14.616  -2.086  1.00  0.00     0.001 A 
HETATM   21  C   UNL     1      39.845 -13.561  -2.800  1.00  0.00     0.002 A 
ENDBRANCH   1  11
BRANCH   1  22
HETATM   22  O   UNL     1      39.099 -15.190   2.382  1.00  0.00    -0.371 OA
HETATM   23  H   UNL     1      39.391 -16.031   1.992  1.00  0.00     0.212 HD
ENDBRANCH   1  22
BRANCH   4  24
HETATM   24  C   UNL     1      41.535 -13.601   6.044  1.00  0.00     0.133 C 
BRANCH  24  25
HETATM   25  C   UNL     1      42.501 -12.417   6.011  1.00  0.00     0.025 C 
BRANCH  25  26
HETATM   26  C   UNL     1      43.920 -12.791   6.441  1.00  0.00     0.040 C 
BRANCH  26  27
HETATM   27  C   UNL     1      44.555 -11.684   7.248  1.00  0.00    -0.058 A 
HETATM   28  C   UNL     1      43.876 -11.120   8.337  1.00  0.00     0.007 A 
HETATM   29  C   UNL     1      44.445 -10.072   9.062  1.00  0.00     0.001 A 
HETATM   30  C   UNL     1      45.700  -9.579   8.707  1.00  0.00     0.000 A 
HETATM   31  C   UNL     1      46.385 -10.134   7.628  1.00  0.00     0.001 A 
HETATM   32  C   UNL     1      45.816 -11.180   6.901  1.00  0.00     0.007 A 
ENDBRANCH  26  27
ENDBRANCH  25  26
ENDBRANCH  24  25
ENDBRANCH   4  24
TORSDOF 6
ENDMDL
MODEL 4
REMARK VINA RESULT:      -9.0      2.187      6.762
REMARK  6 active torsions:
REMARK  status: ('A' for Active; 'I' for Inactive)
REMARK    1  A    between atoms: C_7  and  C_8 
REMARK    2  A    between atoms: C_8  and  O_9 
REMARK    3  A    between atoms: N_12  and  C_13 
REMARK    4  A    between atoms: C_13  and  C_14 
REMARK    5  A    between atoms: C_14  and  C_15 
REMARK    6  A    between atoms: C_15  and  C_16 
ROOT
HETATM    1  C   UNL     1      41.593 -14.844   5.440  1.00  0.00     0.199 A 
HETATM    2  C   UNL     1      40.433 -15.171   4.439  1.00  0.00     0.269 A 
HETATM    3  O   UNL     1      39.604 -16.067   4.526  1.00  0.00    -0.269 OA
HETATM    4  N   UNL     1      40.486 -14.202   3.417  1.00  0.00    -0.314 N 
HETATM    5  C   UNL     1      41.568 -13.328   3.602  1.00  0.00     0.047 A 
HETATM    6  C   UNL     1      42.266 -13.670   4.764  1.00  0.00     0.017 A 
HETATM    7  C   UNL     1      41.971 -12.267   2.810  1.00  0.00     0.030 A 
HETATM    8  C   UNL     1      43.100 -11.542   3.204  1.00  0.00     0.002 A 
HETATM    9  C   UNL     1      43.800 -11.879   4.373  1.00  0.00     0.001 A 
HETATM   10  C   UNL     1      43.381 -12.946   5.168  1.00  0.00     0.013 A 
ENDROOT
BRANCH   1  11
HETATM   11  C   UNL     1      42.615 -15.956   5.544  1.00  0.00     0.025 A 
HETATM   12  C   UNL     1      43.339 -16.324   6.679  1.00  0.00     0.016 A 
HETATM   13  C   UNL     1      43.339 -15.770   8.062  1.00  0.00     0.069 C 
HETATM   14  N   UNL     1      44.131 -17.393   6.357  1.00  0.00    -0.359 N 
HETATM   15  H   UNL     1      44.748 -17.872   6.998  1.00  0.00     0.166 HD
HETATM   16  C   UNL     1      43.971 -17.741   5.040  1.00  0.00     0.043 A 
HETATM   17  C   UNL     1      43.033 -16.864   4.495  1.00  0.00     0.003 A 
HETATM   18  C   UNL     1      44.584 -18.765   4.307  1.00  0.00     0.030 A 
HETATM   19  C   UNL     1      42.704 -17.029   3.130  1.00  0.00     0.014 A 
HETATM   20  C   UNL     1      43.307 -18.047   2.379  1.00  0.00     0.001 A 
HETATM   21  C   UNL     1      44.232 -18.903   2.963  1.00  0.00     0.002 A 
ENDBRANCH   1  11
BRANCH   1  22
HETATM   22  O   UNL     1      41.078 -14.414   6.699  1.00  0.00    -0.371 OA
HETATM   23  H   UNL     1      40.431 -15.084   6.977  1.00  0.00     0.212 HD
ENDBRANCH   1  22
BRANCH   4  24
HETATM   24  C   UNL     1      39.620 -14.236   2.259  1.00  0.00     0.133 C 
BRANCH  24  25
HETATM   25  C   UNL     1      40.133 -15.120   1.123  1.00  0.00     0.025 C 
BRANCH  25  26
HETATM   26  C   UNL     1      40.629 -14.319  -0.081  1.00  0.00     0.040 C 
BRANCH  26  27
HETATM   27  C   UNL     1      39.516 -14.081  -1.074  1.00  0.00    -0.058 A 
HETATM   28  C   UNL     1      39.248 -15.020  -2.079  1.00  0.00     0.007 A 
HETATM   29  C   UNL     1      38.244 -14.784  -3.019  1.00  0.00     0.001 A 
HETATM   30  C   UNL     1      37.496 -13.609  -2.962  1.00  0.00     0.000 A 
HETATM   31  C   UNL     1      37.752 -12.670  -1.965  1.00  0.00     0.001 A 
HETATM   32  C   UNL     1      38.758 -12.903  -1.026  1.00  0.00     0.007 A 
ENDBRANCH  26  27
ENDBRANCH  25  26
ENDBRANCH  24  25
ENDBRANCH   4  24
TORSDOF 6
ENDMDL
MODEL 5
REMARK VINA RESULT:      -8.8      3.108      6.782
REMARK  6 active torsions:
REMARK  status: ('A' for Active; 'I' for Inactive)
REMARK    1  A    between atoms: C_7  and  C_8 
REMARK    2  A    between atoms: C_8  and  O_9 
REMARK    3  A    between atoms: N_12  and  C_13 
REMARK    4  A    between atoms: C_13  and  C_14 
REMARK    5  A    between atoms: C_14  and  C_15 
REMARK    6  A    between atoms: C_15  and  C_16 
ROOT
HETATM    1  C   UNL     1      42.240 -15.575   3.293  1.00  0.00     0.199 A 
HETATM    2  C   UNL     1      43.110 -14.381   2.773  1.00  0.00     0.269 A 
HETATM    3  O   UNL     1      43.932 -14.398   1.865  1.00  0.00    -0.269 OA
HETATM    4  N   UNL     1      42.743 -13.246   3.523  1.00  0.00    -0.314 N 
HETATM    5  C   UNL     1      41.787 -13.570   4.499  1.00  0.00     0.047 A 
HETATM    6  C   UNL     1      41.470 -14.931   4.423  1.00  0.00     0.017 A 
HETATM    7  C   UNL     1      41.196 -12.748   5.441  1.00  0.00     0.030 A 
HETATM    8  C   UNL     1      40.268 -13.313   6.321  1.00  0.00     0.002 A 
HETATM    9  C   UNL     1      39.942 -14.677   6.245  1.00  0.00     0.001 A 
HETATM   10  C   UNL     1      40.539 -15.496   5.287  1.00  0.00     0.013 A 
ENDROOT
BRANCH   1  11
HETATM   11  C   UNL     1      43.067 -16.695   3.888  1.00  0.00     0.025 A 
HETATM   12  C   UNL     1      43.821 -16.646   5.062  1.00  0.00     0.016 A 
HETATM   13  C   UNL     1      44.042 -15.543   6.037  1.00  0.00     0.069 C 
HETATM   14  N   UNL     1      44.391 -17.876   5.260  1.00  0.00    -0.359 N 
HETATM   15  H   UNL     1      44.975 -18.124   6.045  1.00  0.00     0.166 HD
HETATM   16  C   UNL     1      44.053 -18.739   4.249  1.00  0.00     0.043 A 
HETATM   17  C   UNL     1      43.228 -18.038   3.369  1.00  0.00     0.003 A 
HETATM   18  C   UNL     1      44.415 -20.079   4.063  1.00  0.00     0.030 A 
HETATM   19  C   UNL     1      42.751 -18.732   2.233  1.00  0.00     0.014 A 
HETATM   20  C   UNL     1      43.102 -20.073   2.028  1.00  0.00     0.001 A 
HETATM   21  C   UNL     1      43.922 -20.735   2.933  1.00  0.00     0.002 A 
ENDBRANCH   1  11
BRANCH   1  22
HETATM   22  O   UNL     1      41.315 -16.008   2.297  1.00  0.00    -0.371 OA
HETATM   23  H   UNL     1      40.583 -15.370   2.302  1.00  0.00     0.212 HD
ENDBRANCH   1  22
BRANCH   4  24
HETATM   24  C   UNL     1      43.402 -11.967   3.384  1.00  0.00     0.133 C 
BRANCH  24  25
HETATM   25  C   UNL     1      43.649 -11.248   4.710  1.00  0.00     0.025 C 
BRANCH  25  26
HETATM   26  C   UNL     1      44.793 -11.861   5.519  1.00  0.00     0.040 C 
BRANCH  26  27
HETATM   27  C   UNL     1      44.929 -11.190   6.865  1.00  0.00    -0.058 A 
HETATM   28  C   UNL     1      43.905 -11.293   7.817  1.00  0.00     0.007 A 
HETATM   29  C   UNL     1      44.013 -10.644   9.047  1.00  0.00     0.001 A 
HETATM   30  C   UNL     1      45.147  -9.887   9.340  1.00  0.00     0.000 A 
HETATM   31  C   UNL     1      46.171  -9.779   8.402  1.00  0.00     0.001 A 
HETATM   32  C   UNL     1      46.064 -10.427   7.170  1.00  0.00     0.007 A 
ENDBRANCH  26  27
ENDBRANCH  25  26
ENDBRANCH  24  25
ENDBRANCH   4  24
TORSDOF 6
ENDMDL
MODEL 6
REMARK VINA RESULT:      -8.8      1.518      2.664
REMARK  6 active torsions:
REMARK  status: ('A' for Active; 'I' for Inactive)
REMARK    1  A    between atoms: C_7  and  C_8 
REMARK    2  A    between atoms: C_8  and  O_9 
REMARK    3  A    between atoms: N_12  and  C_13 
REMARK    4  A    between atoms: C_13  and  C_14 
REMARK    5  A    between atoms: C_14  and  C_15 
REMARK    6  A    between atoms: C_15  and  C_16 
ROOT
HETATM    1  C   UNL     1      41.887 -11.389   2.743  1.00  0.00     0.199 A 
HETATM    2  C   UNL     1      42.893 -12.344   3.471  1.00  0.00     0.269 A 
HETATM    3  O   UNL     1      43.956 -12.774   3.042  1.00  0.00    -0.269 OA
HETATM    4  N   UNL     1      42.369 -12.593   4.755  1.00  0.00    -0.314 N 
HETATM    5  C   UNL     1      41.124 -11.967   4.925  1.00  0.00     0.047 A 
HETATM    6  C   UNL     1      40.782 -11.262   3.766  1.00  0.00     0.017 A 
HETATM    7  C   UNL     1      40.285 -11.989   6.025  1.00  0.00     0.030 A 
HETATM    8  C   UNL     1      39.079 -11.285   5.949  1.00  0.00     0.002 A 
HETATM    9  C   UNL     1      38.734 -10.572   4.790  1.00  0.00     0.001 A 
HETATM   10  C   UNL     1      39.590 -10.551   3.689  1.00  0.00     0.013 A 
ENDROOT
BRANCH   1  11
HETATM   11  C   UNL     1      41.284 -12.005   1.497  1.00  0.00     0.025 A 
HETATM   12  C   UNL     1      41.132 -11.394   0.252  1.00  0.00     0.016 A 
HETATM   13  C   UNL     1      41.487 -10.026  -0.218  1.00  0.00     0.069 C 
HETATM   14  N   UNL     1      40.572 -12.302  -0.608  1.00  0.00    -0.359 N 
HETATM   15  H   UNL     1      40.368 -12.128  -1.582  1.00  0.00     0.166 HD
HETATM   16  C   UNL     1      40.333 -13.493   0.028  1.00  0.00     0.043 A 
HETATM   17  C   UNL     1      40.761 -13.348   1.348  1.00  0.00     0.003 A 
HETATM   18  C   UNL     1      39.777 -14.676  -0.475  1.00  0.00     0.030 A 
HETATM   19  C   UNL     1      40.610 -14.460   2.207  1.00  0.00     0.014 A 
HETATM   20  C   UNL     1      40.055 -15.653   1.724  1.00  0.00     0.001 A 
HETATM   21  C   UNL     1      39.647 -15.757   0.399  1.00  0.00     0.002 A 
ENDBRANCH   1  11
BRANCH   1  22
HETATM   22  O   UNL     1      42.464 -10.102   2.529  1.00  0.00    -0.371 OA
HETATM   23  H   UNL     1      42.758  -9.782   3.397  1.00  0.00     0.212 HD
ENDBRANCH   1  22
BRANCH   4  24
HETATM   24  C   UNL     1      42.984 -13.511   5.689  1.00  0.00     0.133 C 
BRANCH  24  25
HETATM   25  C   UNL     1      42.560 -14.967   5.500  1.00  0.00     0.025 C 
BRANCH  25  26
HETATM   26  C   UNL     1      43.717 -15.953   5.669  1.00  0.00     0.040 C 
BRANCH  26  27
HETATM   27  C   UNL     1      43.694 -17.009   4.589  1.00  0.00    -0.058 A 
HETATM   28  C   UNL     1      43.196 -16.710   3.314  1.00  0.00     0.007 A 
HETATM   29  C   UNL     1      43.141 -17.694   2.326  1.00  0.00     0.001 A 
HETATM   30  C   UNL     1      43.585 -18.987   2.602  1.00  0.00     0.000 A 
HETATM   31  C   UNL     1      44.085 -19.294   3.866  1.00  0.00     0.001 A 
HETATM   32  C   UNL     1      44.139 -18.311   4.856  1.00  0.00     0.007 A 
ENDBRANCH  26  27
ENDBRANCH  25  26
ENDBRANCH  24  25
ENDBRANCH   4  24
TORSDOF 6
ENDMDL
MODEL 7
REMARK VINA RESULT:      -8.8      1.250      1.774
REMARK  6 active torsions:
REMARK  status: ('A' for Active; 'I' for Inactive)
REMARK    1  A    between atoms: C_7  and  C_8 
REMARK    2  A    between atoms: C_8  and  O_9 
REMARK    3  A    between atoms: N_12  and  C_13 
REMARK    4  A    between atoms: C_13  and  C_14 
REMARK    5  A    between atoms: C_14  and  C_15 
REMARK    6  A    between atoms: C_15  and  C_16 
ROOT
HETATM    1  C   UNL     1      41.603 -11.689   2.119  1.00  0.00     0.199 A 
HETATM    2  C   UNL     1      42.593 -12.512   3.011  1.00  0.00     0.269 A 
HETATM    3  O   UNL     1      43.603 -13.104   2.652  1.00  0.00    -0.269 OA
HETATM    4  N   UNL     1      42.131 -12.416   4.338  1.00  0.00    -0.314 N 
HETATM    5  C   UNL     1      40.936 -11.682   4.407  1.00  0.00     0.047 A 
HETATM    6  C   UNL     1      40.568 -11.248   3.129  1.00  0.00     0.017 A 
HETATM    7  C   UNL     1      40.162 -11.386   5.515  1.00  0.00     0.030 A 
HETATM    8  C   UNL     1      38.996 -10.639   5.324  1.00  0.00     0.002 A 
HETATM    9  C   UNL     1      38.625 -10.196   4.044  1.00  0.00     0.001 A 
HETATM   10  C   UNL     1      39.416 -10.494   2.935  1.00  0.00     0.013 A 
ENDROOT
BRANCH   1  11
HETATM   11  C   UNL     1      40.895 -12.537   1.083  1.00  0.00     0.025 A 
HETATM   12  C   UNL     1      40.186 -13.717   1.311  1.00  0.00     0.016 A 
HETATM   13  C   UNL     1      39.922 -14.473   2.566  1.00  0.00     0.069 C 
HETATM   14  N   UNL     1      39.676 -14.150   0.116  1.00  0.00    -0.359 N 
HETATM   15  H   UNL     1      39.106 -14.975  -0.006  1.00  0.00     0.166 HD
HETATM   16  C   UNL     1      40.034 -13.306  -0.903  1.00  0.00     0.043 A 
HETATM   17  C   UNL     1      40.800 -12.285  -0.341  1.00  0.00     0.003 A 
HETATM   18  C   UNL     1      39.730 -13.376  -2.268  1.00  0.00     0.030 A 
HETATM   19  C   UNL     1      41.291 -11.284  -1.211  1.00  0.00     0.014 A 
HETATM   20  C   UNL     1      40.998 -11.337  -2.580  1.00  0.00     0.001 A 
HETATM   21  C   UNL     1      40.226 -12.369  -3.099  1.00  0.00     0.002 A 
ENDBRANCH   1  11
BRANCH   1  22
HETATM   22  O   UNL     1      42.240 -10.531   1.580  1.00  0.00    -0.371 OA
HETATM   23  H   UNL     1      43.178 -10.595   1.819  1.00  0.00     0.212 HD
ENDBRANCH   1  22
BRANCH   4  24
HETATM   24  C   UNL     1      42.745 -13.127   5.437  1.00  0.00     0.133 C 
BRANCH  24  25
HETATM   25  C   UNL     1      42.333 -14.596   5.534  1.00  0.00     0.025 C 
BRANCH  25  26
HETATM   26  C   UNL     1      43.518 -15.535   5.766  1.00  0.00     0.040 C 
BRANCH  26  27
HETATM   27  C   UNL     1      43.589 -16.598   4.696  1.00  0.00    -0.058 A 
HETATM   28  C   UNL     1      42.951 -16.408   3.462  1.00  0.00     0.007 A 
HETATM   29  C   UNL     1      42.985 -17.404   2.486  1.00  0.00     0.001 A 
HETATM   30  C   UNL     1      43.659 -18.600   2.732  1.00  0.00     0.000 A 
HETATM   31  C   UNL     1      44.298 -18.799   3.953  1.00  0.00     0.001 A 
HETATM   32  C   UNL     1      44.263 -17.804   4.932  1.00  0.00     0.007 A 
ENDBRANCH  26  27
ENDBRANCH  25  26
ENDBRANCH  24  25
ENDBRANCH   4  24
TORSDOF 6
ENDMDL
MODEL 8
REMARK VINA RESULT:      -8.7      2.557      5.689
REMARK  6 active torsions:
REMARK  status: ('A' for Active; 'I' for Inactive)
REMARK    1  A    between atoms: C_7  and  C_8 
REMARK    2  A    between atoms: C_8  and  O_9 
REMARK    3  A    between atoms: N_12  and  C_13 
REMARK    4  A    between atoms: C_13  and  C_14 
REMARK    5  A    between atoms: C_14  and  C_15 
REMARK    6  A    between atoms: C_15  and  C_16 
ROOT
HETATM    1  C   UNL     1      40.713 -12.767   5.059  1.00  0.00     0.199 A 
HETATM    2  C   UNL     1      41.611 -14.043   4.918  1.00  0.00     0.269 A 
HETATM    3  O   UNL     1      41.895 -14.855   5.790  1.00  0.00    -0.269 OA
HETATM    4  N   UNL     1      42.008 -14.120   3.568  1.00  0.00    -0.314 N 
HETATM    5  C   UNL     1      41.529 -13.024   2.835  1.00  0.00     0.047 A 
HETATM    6  C   UNL     1      40.778 -12.185   3.665  1.00  0.00     0.017 A 
HETATM    7  C   UNL     1      41.720 -12.724   1.497  1.00  0.00     0.030 A 
HETATM    8  C   UNL     1      41.141 -11.555   0.995  1.00  0.00     0.002 A 
HETATM    9  C   UNL     1      40.382 -10.713   1.823  1.00  0.00     0.001 A 
HETATM   10  C   UNL     1      40.190 -11.028   3.168  1.00  0.00     0.013 A 
ENDROOT
BRANCH   1  11
HETATM   11  C   UNL     1      41.293 -11.739   6.008  1.00  0.00     0.025 A 
HETATM   12  C   UNL     1      40.582 -10.820   6.781  1.00  0.00     0.016 A 
HETATM   13  C   UNL     1      39.120 -10.570   6.907  1.00  0.00     0.069 C 
HETATM   14  N   UNL     1      41.479 -10.096   7.522  1.00  0.00    -0.359 N 
HETATM   15  H   UNL     1      41.234  -9.371   8.182  1.00  0.00     0.166 HD
HETATM   16  C   UNL     1      42.764 -10.491   7.256  1.00  0.00     0.043 A 
HETATM   17  C   UNL     1      42.692 -11.516   6.311  1.00  0.00     0.003 A 
HETATM   18  C   UNL     1      43.971 -10.019   7.787  1.00  0.00     0.030 A 
HETATM   19  C   UNL     1      43.910 -12.087   5.876  1.00  0.00     0.014 A 
HETATM   20  C   UNL     1      45.128 -11.628   6.395  1.00  0.00     0.001 A 
HETATM   21  C   UNL     1      45.155 -10.608   7.339  1.00  0.00     0.002 A 
ENDBRANCH   1  11
BRANCH   1  22
HETATM   22  O   UNL     1      39.361 -13.120   5.346  1.00  0.00    -0.371 OA
HETATM   23  H   UNL     1      39.287 -14.076   5.197  1.00  0.00     0.212 HD
ENDBRANCH   1  22
BRANCH   4  24
HETATM   24  C   UNL     1      42.924 -15.125   3.076  1.00  0.00     0.133 C 
BRANCH  24  25
HETATM   25  C   UNL     1      42.261 -16.462   2.745  1.00  0.00     0.025 C 
BRANCH  25  26
HETATM   26  C   UNL     1      43.212 -17.449   2.066  1.00  0.00     0.040 C 
BRANCH  26  27
HETATM   27  C   UNL     1      43.547 -18.602   2.983  1.00  0.00    -0.058 A 
HETATM   28  C   UNL     1      43.576 -19.914   2.491  1.00  0.00     0.007 A 
HETATM   29  C   UNL     1      43.849 -20.984   3.344  1.00  0.00     0.001 A 
HETATM   30  C   UNL     1      44.097 -20.754   4.697  1.00  0.00     0.000 A 
HETATM   31  C   UNL     1      44.072 -19.453   5.195  1.00  0.00     0.001 A 
HETATM   32  C   UNL     1      43.797 -18.382   4.344  1.00  0.00     0.007 A 
ENDBRANCH  26  27
ENDBRANCH  25  26
ENDBRANCH  24  25
ENDBRANCH   4  24
TORSDOF 6
ENDMDL
MODEL 9
REMARK VINA RESULT:      -8.6      4.351      7.452
REMARK  6 active torsions:
REMARK  status: ('A' for Active; 'I' for Inactive)
REMARK    1  A    between atoms: C_7  and  C_8 
REMARK    2  A    between atoms: C_8  and  O_9 
REMARK    3  A    between atoms: N_12  and  C_13 
REMARK    4  A    between atoms: C_13  and  C_14 
REMARK    5  A    between atoms: C_14  and  C_15 
REMARK    6  A    between atoms: C_15  and  C_16 
ROOT
HETATM    1  C   UNL     1      42.939 -12.354   4.518  1.00  0.00     0.199 A 
HETATM    2  C   UNL     1      43.906 -11.550   5.453  1.00  0.00     0.269 A 
HETATM    3  O   UNL     1      45.130 -11.531   5.419  1.00  0.00    -0.269 OA
HETATM    4  N   UNL     1      43.100 -10.801   6.332  1.00  0.00    -0.314 N 
HETATM    5  C   UNL     1      41.738 -11.065   6.122  1.00  0.00     0.047 A 
HETATM    6  C   UNL     1      41.585 -11.986   5.081  1.00  0.00     0.017 A 
HETATM    7  C   UNL     1      40.641 -10.551   6.791  1.00  0.00     0.030 A 
HETATM    8  C   UNL     1      39.369 -10.979   6.399  1.00  0.00     0.002 A 
HETATM    9  C   UNL     1      39.211 -11.901   5.351  1.00  0.00     0.001 A 
HETATM   10  C   UNL     1      40.323 -12.407   4.678  1.00  0.00     0.013 A 
ENDROOT
BRANCH   1  11
HETATM   11  C   UNL     1      43.096 -13.854   4.656  1.00  0.00     0.025 A 
HETATM   12  C   UNL     1      43.224 -14.577   5.843  1.00  0.00     0.016 A 
HETATM   13  C   UNL     1      43.250 -14.130   7.263  1.00  0.00     0.069 C 
HETATM   14  N   UNL     1      43.311 -15.907   5.529  1.00  0.00    -0.359 N 
HETATM   15  H   UNL     1      43.394 -16.657   6.202  1.00  0.00     0.166 HD
HETATM   16  C   UNL     1      43.261 -16.094   4.172  1.00  0.00     0.043 A 
HETATM   17  C   UNL     1      43.130 -14.834   3.588  1.00  0.00     0.003 A 
HETATM   18  C   UNL     1      43.317 -17.282   3.432  1.00  0.00     0.030 A 
HETATM   19  C   UNL     1      43.059 -14.774   2.178  1.00  0.00     0.014 A 
HETATM   20  C   UNL     1      43.114 -15.951   1.419  1.00  0.00     0.001 A 
HETATM   21  C   UNL     1      43.240 -17.187   2.042  1.00  0.00     0.002 A 
ENDBRANCH   1  11
BRANCH   1  22
HETATM   22  O   UNL     1      43.019 -11.887   3.173  1.00  0.00    -0.371 OA
HETATM   23  H   UNL     1      43.953 -11.677   3.007  1.00  0.00     0.212 HD
ENDBRANCH   1  22
BRANCH   4  24
HETATM   24  C   UNL     1      43.646  -9.999   7.406  1.00  0.00     0.133 C 
BRANCH  24  25
HETATM   25  C   UNL     1      44.078 -10.808   8.628  1.00  0.00     0.025 C 
BRANCH  25  26
HETATM   26  C   UNL     1      44.887  -9.987   9.633  1.00  0.00     0.040 C 
BRANCH  26  27
HETATM   27  C   UNL     1      44.078  -9.693  10.874  1.00  0.00    -0.058 A 
HETATM   28  C   UNL     1      43.526 -10.740  11.626  1.00  0.00     0.007 A 
HETATM   29  C   UNL     1      42.748 -10.469  12.752  1.00  0.00     0.001 A 
HETATM   30  C   UNL     1      42.514  -9.150  13.139  1.00  0.00     0.000 A 
HETATM   31  C   UNL     1      43.060  -8.103  12.400  1.00  0.00     0.001 A 
HETATM   32  C   UNL     1      43.837  -8.372  11.272  1.00  0.00     0.007 A 
ENDBRANCH  26  27
ENDBRANCH  25  26
ENDBRANCH  24  25
ENDBRANCH   4  24
TORSDOF 6
ENDMDL
MODEL 10
REMARK VINA RESULT:      -8.6      2.408      5.949
REMARK  6 active torsions:
REMARK  status: ('A' for Active; 'I' for Inactive)
REMARK    1  A    between atoms: C_7  and  C_8 
REMARK    2  A    between atoms: C_8  and  O_9 
REMARK    3  A    between atoms: N_12  and  C_13 
REMARK    4  A    between atoms: C_13  and  C_14 
REMARK    5  A    between atoms: C_14  and  C_15 
REMARK    6  A    between atoms: C_15  and  C_16 
ROOT
HETATM    1  C   UNL     1      41.023 -13.365   5.484  1.00  0.00     0.199 A 
HETATM    2  C   UNL     1      40.504 -12.371   4.390  1.00  0.00     0.269 A 
HETATM    3  O   UNL     1      39.447 -12.425   3.774  1.00  0.00    -0.269 OA
HETATM    4  N   UNL     1      41.472 -11.354   4.265  1.00  0.00    -0.314 N 
HETATM    5  C   UNL     1      42.574 -11.598   5.099  1.00  0.00     0.047 A 
HETATM    6  C   UNL     1      42.374 -12.778   5.823  1.00  0.00     0.017 A 
HETATM    7  C   UNL     1      43.731 -10.853   5.247  1.00  0.00     0.030 A 
HETATM    8  C   UNL     1      44.700 -11.313   6.145  1.00  0.00     0.002 A 
HETATM    9  C   UNL     1      44.501 -12.493   6.878  1.00  0.00     0.001 A 
HETATM   10  C   UNL     1      43.328 -13.233   6.725  1.00  0.00     0.013 A 
ENDROOT
BRANCH   1  11
HETATM   11  C   UNL     1      41.256 -14.763   4.950  1.00  0.00     0.025 A 
HETATM   12  C   UNL     1      40.761 -15.954   5.482  1.00  0.00     0.016 A 
HETATM   13  C   UNL     1      39.905 -16.215   6.672  1.00  0.00     0.069 C 
HETATM   14  N   UNL     1      41.179 -16.987   4.685  1.00  0.00    -0.359 N 
HETATM   15  H   UNL     1      40.949 -17.961   4.830  1.00  0.00     0.166 HD
HETATM   16  C   UNL     1      41.947 -16.525   3.648  1.00  0.00     0.043 A 
HETATM   17  C   UNL     1      42.023 -15.138   3.779  1.00  0.00     0.003 A 
HETATM   18  C   UNL     1      42.568 -17.234   2.612  1.00  0.00     0.030 A 
HETATM   19  C   UNL     1      42.776 -14.433   2.813  1.00  0.00     0.014 A 
HETATM   20  C   UNL     1      43.405 -15.124   1.769  1.00  0.00     0.001 A 
HETATM   21  C   UNL     1      43.300 -16.506   1.672  1.00  0.00     0.002 A 
ENDBRANCH   1  11
BRANCH   1  22
HETATM   22  O   UNL     1      40.199 -13.322   6.648  1.00  0.00    -0.371 OA
HETATM   23  H   UNL     1      39.283 -13.427   6.343  1.00  0.00     0.212 HD
ENDBRANCH   1  22
BRANCH   4  24
HETATM   24  C   UNL     1      41.379 -10.300   3.280  1.00  0.00     0.133 C 
BRANCH  24  25
HETATM   25  C   UNL     1      41.893 -10.696   1.896  1.00  0.00     0.025 C 
BRANCH  25  26
HETATM   26  C   UNL     1      40.880 -10.424   0.782  1.00  0.00     0.040 C 
BRANCH  26  27
HETATM   27  C   UNL     1      40.615 -11.670  -0.029  1.00  0.00    -0.058 A 
HETATM   28  C   UNL     1      40.461 -12.911   0.604  1.00  0.00     0.007 A 
HETATM   29  C   UNL     1      40.252 -14.069  -0.146  1.00  0.00     0.001 A 
HETATM   30  C   UNL     1      40.194 -13.998  -1.537  1.00  0.00     0.000 A 
HETATM   31  C   UNL     1      40.344 -12.770  -2.178  1.00  0.00     0.001 A 
HETATM   32  C   UNL     1      40.555 -11.611  -1.428  1.00  0.00     0.007 A 
ENDBRANCH  26  27
ENDBRANCH  25  26
ENDBRANCH  24  25
ENDBRANCH   4  24
TORSDOF 6
ENDMDL
