MODEL 1
REMARK VINA RESULT:      -7.6      0.000      0.000
REMARK  4 active torsions:
REMARK  status: ('A' for Active; 'I' for Inactive)
REMARK    1  A    between atoms: O_2  and  C_3 
REMARK    2  A    between atoms: C_5  and  O_6 
REMARK    3  A    between atoms: C_8  and  N_9 
REMARK    4  A    between atoms: N_9  and  C_10 
ROOT
HETATM    1  C   UNL     1      40.501 -14.785   1.437  1.00  0.00     0.153 A 
HETATM    2  S   UNL     1      41.134 -13.237   1.757  1.00  0.00    -0.011 SA
HETATM    3  C   UNL     1      40.848 -12.389   0.268  1.00  0.00     0.228 A 
HETATM    4  O   UNL     1      41.226 -11.231   0.147  1.00  0.00    -0.279 OA
HETATM    5  C   UNL     1      40.149 -13.052  -0.842  1.00  0.00     0.048 A 
HETATM    6  C   UNL     1      39.711 -14.374  -0.747  1.00  0.00     0.048 A 
HETATM    7  C   UNL     1      39.917 -12.313  -2.017  1.00  0.00     0.018 A 
HETATM    8  C   UNL     1      39.253 -12.888  -3.098  1.00  0.00     0.001 A 
HETATM    9  C   UNL     1      38.813 -14.203  -3.013  1.00  0.00     0.002 A 
HETATM   10  C   UNL     1      39.041 -14.938  -1.847  1.00  0.00     0.030 A 
HETATM   11  N   UNL     1      39.890 -15.164   0.340  1.00  0.00    -0.336 N 
HETATM   12  H   UNL     1      39.500 -16.096   0.362  1.00  0.00     0.168 HD
ENDROOT
BRANCH   1  13
HETATM   13  N   UNL     1      40.604 -15.712   2.496  1.00  0.00    -0.334 N 
HETATM   14  H   UNL     1      39.709 -15.912   2.941  1.00  0.00     0.168 HD
BRANCH  13  15
HETATM   15  C   UNL     1      41.650 -16.465   3.061  1.00  0.00     0.068 A 
HETATM   16  C   UNL     1      41.894 -16.348   4.449  1.00  0.00     0.097 A 
HETATM   17  C   UNL     1      42.875 -17.136   5.067  1.00  0.00     0.075 A 
HETATM   18  C   UNL     1      43.623 -18.039   4.311  1.00  0.00     0.070 A 
HETATM   19  C   UNL     1      43.395 -18.141   2.938  1.00  0.00     0.039 A 
HETATM   20  C   UNL     1      42.416 -17.364   2.315  1.00  0.00     0.035 A 
BRANCH  16  21
HETATM   21  O   UNL     1      41.098 -15.428   5.093  1.00  0.00    -0.354 OA
HETATM   22  C   UNL     1      40.464 -15.843   6.299  1.00  0.00     0.210 C 
ENDBRANCH  16  21
BRANCH  18  23
HETATM   23  O   UNL     1      44.603 -18.868   4.783  1.00  0.00    -0.356 OA
HETATM   24  C   UNL     1      44.247 -20.221   5.036  1.00  0.00     0.210 C 
ENDBRANCH  18  23
ENDBRANCH  13  15
ENDBRANCH   1  13
TORSDOF 4
ENDMDL
MODEL 2
REMARK VINA RESULT:      -7.6      2.264      7.475
REMARK  4 active torsions:
REMARK  status: ('A' for Active; 'I' for Inactive)
REMARK    1  A    between atoms: O_2  and  C_3 
REMARK    2  A    between atoms: C_5  and  O_6 
REMARK    3  A    between atoms: C_8  and  N_9 
REMARK    4  A    between atoms: N_9  and  C_10 
ROOT
HETATM    1  C   UNL     1      43.241 -16.108   3.456  1.00  0.00     0.153 A 
HETATM    2  S   UNL     1      43.315 -15.759   5.121  1.00  0.00    -0.011 SA
HETATM    3  C   UNL     1      43.531 -17.329   5.833  1.00  0.00     0.228 A 
HETATM    4  O   UNL     1      43.588 -17.440   7.051  1.00  0.00    -0.279 OA
HETATM    5  C   UNL     1      43.654 -18.521   4.981  1.00  0.00     0.048 A 
HETATM    6  C   UNL     1      43.586 -18.437   3.589  1.00  0.00     0.048 A 
HETATM    7  C   UNL     1      43.856 -19.766   5.606  1.00  0.00     0.018 A 
HETATM    8  C   UNL     1      43.987 -20.927   4.848  1.00  0.00     0.001 A 
HETATM    9  C   UNL     1      43.920 -20.854   3.462  1.00  0.00     0.002 A 
HETATM   10  C   UNL     1      43.722 -19.619   2.840  1.00  0.00     0.030 A 
HETATM   11  N   UNL     1      43.393 -17.286   2.900  1.00  0.00    -0.336 N 
HETATM   12  H   UNL     1      43.407 -17.289   1.889  1.00  0.00     0.168 HD
ENDROOT
BRANCH   1  13
HETATM   13  N   UNL     1      43.059 -14.992   2.612  1.00  0.00    -0.334 N 
HETATM   14  H   UNL     1      43.903 -14.429   2.505  1.00  0.00     0.168 HD
BRANCH  13  15
HETATM   15  C   UNL     1      41.993 -14.489   1.842  1.00  0.00     0.068 A 
HETATM   16  C   UNL     1      41.801 -13.090   1.786  1.00  0.00     0.097 A 
HETATM   17  C   UNL     1      40.800 -12.542   0.972  1.00  0.00     0.075 A 
HETATM   18  C   UNL     1      39.980 -13.380   0.215  1.00  0.00     0.070 A 
HETATM   19  C   UNL     1      40.158 -14.762   0.285  1.00  0.00     0.039 A 
HETATM   20  C   UNL     1      41.156 -15.315   1.089  1.00  0.00     0.035 A 
BRANCH  16  21
HETATM   21  O   UNL     1      42.665 -12.362   2.572  1.00  0.00    -0.354 OA
HETATM   22  C   UNL     1      42.379 -10.979   2.751  1.00  0.00     0.210 C 
ENDBRANCH  16  21
BRANCH  18  23
HETATM   23  O   UNL     1      38.973 -12.982  -0.621  1.00  0.00    -0.356 OA
HETATM   24  C   UNL     1      38.736 -13.773  -1.779  1.00  0.00     0.210 C 
ENDBRANCH  18  23
ENDBRANCH  13  15
ENDBRANCH   1  13
TORSDOF 4
ENDMDL
MODEL 3
REMARK VINA RESULT:      -7.5      1.738      7.202
REMARK  4 active torsions:
REMARK  status: ('A' for Active; 'I' for Inactive)
REMARK    1  A    between atoms: O_2  and  C_3 
REMARK    2  A    between atoms: C_5  and  O_6 
REMARK    3  A    between atoms: C_8  and  N_9 
REMARK    4  A    between atoms: N_9  and  C_10 
ROOT
HETATM    1  C   UNL     1      41.720 -14.820   2.858  1.00  0.00     0.153 A 
HETATM    2  S   UNL     1      42.268 -14.184   4.339  1.00  0.00    -0.011 SA
HETATM    3  C   UNL     1      43.210 -15.490   4.994  1.00  0.00     0.228 A 
HETATM    4  O   UNL     1      43.729 -15.370   6.096  1.00  0.00    -0.279 OA
HETATM    5  C   UNL     1      43.392 -16.731   4.227  1.00  0.00     0.048 A 
HETATM    6  C   UNL     1      42.809 -16.909   2.971  1.00  0.00     0.048 A 
HETATM    7  C   UNL     1      44.187 -17.747   4.789  1.00  0.00     0.018 A 
HETATM    8  C   UNL     1      44.400 -18.942   4.104  1.00  0.00     0.001 A 
HETATM    9  C   UNL     1      43.824 -19.129   2.854  1.00  0.00     0.002 A 
HETATM   10  C   UNL     1      43.036 -18.120   2.294  1.00  0.00     0.030 A 
HETATM   11  N   UNL     1      42.028 -15.990   2.352  1.00  0.00    -0.336 N 
HETATM   12  H   UNL     1      41.681 -16.163   1.419  1.00  0.00     0.168 HD
ENDROOT
BRANCH   1  13
HETATM   13  N   UNL     1      40.904 -13.958   2.094  1.00  0.00    -0.334 N 
HETATM   14  H   UNL     1      40.557 -13.161   2.627  1.00  0.00     0.168 HD
BRANCH  13  15
HETATM   15  C   UNL     1      40.487 -13.913   0.751  1.00  0.00     0.068 A 
HETATM   16  C   UNL     1      40.812 -12.774  -0.020  1.00  0.00     0.097 A 
HETATM   17  C   UNL     1      40.483 -12.719  -1.381  1.00  0.00     0.075 A 
HETATM   18  C   UNL     1      39.825 -13.792  -1.983  1.00  0.00     0.070 A 
HETATM   19  C   UNL     1      39.488 -14.909  -1.218  1.00  0.00     0.039 A 
HETATM   20  C   UNL     1      39.817 -14.974   0.137  1.00  0.00     0.035 A 
BRANCH  16  21
HETATM   21  O   UNL     1      41.460 -11.778   0.676  1.00  0.00    -0.354 OA
HETATM   22  C   UNL     1      41.278 -10.440   0.225  1.00  0.00     0.210 C 
ENDBRANCH  16  21
BRANCH  18  23
HETATM   23  O   UNL     1      39.450 -13.874  -3.296  1.00  0.00    -0.356 OA
HETATM   24  C   UNL     1      38.284 -14.632  -3.595  1.00  0.00     0.210 C 
ENDBRANCH  18  23
ENDBRANCH  13  15
ENDBRANCH   1  13
TORSDOF 4
ENDMDL
MODEL 4
REMARK VINA RESULT:      -7.3      4.497      7.338
REMARK  4 active torsions:
REMARK  status: ('A' for Active; 'I' for Inactive)
REMARK    1  A    between atoms: O_2  and  C_3 
REMARK    2  A    between atoms: C_5  and  O_6 
REMARK    3  A    between atoms: C_8  and  N_9 
REMARK    4  A    between atoms: N_9  and  C_10 
ROOT
HETATM    1  C   UNL     1      42.719 -14.809   4.936  1.00  0.00     0.153 A 
HETATM    2  S   UNL     1      42.634 -14.498   3.264  1.00  0.00    -0.011 SA
HETATM    3  C   UNL     1      43.135 -16.008   2.565  1.00  0.00     0.228 A 
HETATM    4  O   UNL     1      43.220 -16.115   1.349  1.00  0.00    -0.279 OA
HETATM    5  C   UNL     1      43.447 -17.158   3.427  1.00  0.00     0.048 A 
HETATM    6  C   UNL     1      43.371 -17.073   4.818  1.00  0.00     0.048 A 
HETATM    7  C   UNL     1      43.821 -18.367   2.811  1.00  0.00     0.018 A 
HETATM    8  C   UNL     1      44.121 -19.491   3.577  1.00  0.00     0.001 A 
HETATM    9  C   UNL     1      44.048 -19.416   4.963  1.00  0.00     0.002 A 
HETATM   10  C   UNL     1      43.675 -18.217   5.576  1.00  0.00     0.030 A 
HETATM   11  N   UNL     1      43.023 -15.954   5.500  1.00  0.00    -0.336 N 
HETATM   12  H   UNL     1      42.936 -15.977   6.506  1.00  0.00     0.168 HD
ENDROOT
BRANCH   1  13
HETATM   13  N   UNL     1      42.364 -13.729   5.771  1.00  0.00    -0.334 N 
HETATM   14  H   UNL     1      41.401 -13.779   6.102  1.00  0.00     0.168 HD
BRANCH  13  15
HETATM   15  C   UNL     1      43.041 -12.612   6.296  1.00  0.00     0.068 A 
HETATM   16  C   UNL     1      42.322 -11.407   6.471  1.00  0.00     0.097 A 
HETATM   17  C   UNL     1      42.936 -10.293   7.060  1.00  0.00     0.075 A 
HETATM   18  C   UNL     1      44.266 -10.366   7.473  1.00  0.00     0.070 A 
HETATM   19  C   UNL     1      44.981 -11.550   7.283  1.00  0.00     0.039 A 
HETATM   20  C   UNL     1      44.376 -12.666   6.702  1.00  0.00     0.035 A 
BRANCH  16  21
HETATM   21  O   UNL     1      41.019 -11.449   6.028  1.00  0.00    -0.354 OA
HETATM   22  C   UNL     1      40.149 -10.407   6.457  1.00  0.00     0.210 C 
ENDBRANCH  16  21
BRANCH  18  23
HETATM   23  O   UNL     1      44.984  -9.363   8.063  1.00  0.00    -0.356 OA
HETATM   24  C   UNL     1      46.400  -9.412   7.936  1.00  0.00     0.210 C 
ENDBRANCH  18  23
ENDBRANCH  13  15
ENDBRANCH   1  13
TORSDOF 4
ENDMDL
MODEL 5
REMARK VINA RESULT:      -7.1      3.213      7.509
REMARK  4 active torsions:
REMARK  status: ('A' for Active; 'I' for Inactive)
REMARK    1  A    between atoms: O_2  and  C_3 
REMARK    2  A    between atoms: C_5  and  O_6 
REMARK    3  A    between atoms: C_8  and  N_9 
REMARK    4  A    between atoms: N_9  and  C_10 
ROOT
HETATM    1  C   UNL     1      43.231 -15.829   3.968  1.00  0.00     0.153 A 
HETATM    2  S   UNL     1      43.410 -15.813   5.661  1.00  0.00    -0.011 SA
HETATM    3  C   UNL     1      43.635 -17.494   6.039  1.00  0.00     0.228 A 
HETATM    4  O   UNL     1      43.762 -17.842   7.206  1.00  0.00    -0.279 OA
HETATM    5  C   UNL     1      43.684 -18.497   4.965  1.00  0.00     0.048 A 
HETATM    6  C   UNL     1      43.536 -18.142   3.624  1.00  0.00     0.048 A 
HETATM    7  C   UNL     1      43.897 -19.842   5.322  1.00  0.00     0.018 A 
HETATM    8  C   UNL     1      43.960 -20.834   4.346  1.00  0.00     0.001 A 
HETATM    9  C   UNL     1      43.812 -20.491   3.008  1.00  0.00     0.002 A 
HETATM   10  C   UNL     1      43.603 -19.156   2.652  1.00  0.00     0.030 A 
HETATM   11  N   UNL     1      43.325 -16.876   3.185  1.00  0.00    -0.336 N 
HETATM   12  H   UNL     1      43.279 -16.683   2.194  1.00  0.00     0.168 HD
ENDROOT
BRANCH   1  13
HETATM   13  N   UNL     1      43.022 -14.568   3.370  1.00  0.00    -0.334 N 
HETATM   14  H   UNL     1      43.812 -14.257   2.806  1.00  0.00     0.168 HD
BRANCH  13  15
HETATM   15  C   UNL     1      41.956 -13.649   3.331  1.00  0.00     0.068 A 
HETATM   16  C   UNL     1      40.898 -13.879   2.423  1.00  0.00     0.097 A 
HETATM   17  C   UNL     1      39.782 -13.031   2.404  1.00  0.00     0.075 A 
HETATM   18  C   UNL     1      39.713 -11.948   3.280  1.00  0.00     0.070 A 
HETATM   19  C   UNL     1      40.766 -11.710   4.164  1.00  0.00     0.039 A 
HETATM   20  C   UNL     1      41.879 -12.553   4.193  1.00  0.00     0.035 A 
BRANCH  16  21
HETATM   21  O   UNL     1      41.072 -14.974   1.608  1.00  0.00    -0.354 OA
HETATM   22  C   UNL     1      39.958 -15.843   1.434  1.00  0.00     0.210 C 
ENDBRANCH  16  21
BRANCH  18  23
HETATM   23  O   UNL     1      38.686 -11.049   3.371  1.00  0.00    -0.356 OA
HETATM   24  C   UNL     1      38.713 -10.138   4.464  1.00  0.00     0.210 C 
ENDBRANCH  18  23
ENDBRANCH  13  15
ENDBRANCH   1  13
TORSDOF 4
ENDMDL
MODEL 6
REMARK VINA RESULT:      -7.0      4.765      7.744
REMARK  4 active torsions:
REMARK  status: ('A' for Active; 'I' for Inactive)
REMARK    1  A    between atoms: O_2  and  C_3 
REMARK    2  A    between atoms: C_5  and  O_6 
REMARK    3  A    between atoms: C_8  and  N_9 
REMARK    4  A    between atoms: N_9  and  C_10 
ROOT
HETATM    1  C   UNL     1      43.023 -15.098   5.348  1.00  0.00     0.153 A 
HETATM    2  S   UNL     1      43.150 -15.760   6.911  1.00  0.00    -0.011 SA
HETATM    3  C   UNL     1      43.441 -17.443   6.593  1.00  0.00     0.228 A 
HETATM    4  O   UNL     1      43.548 -18.228   7.527  1.00  0.00    -0.279 OA
HETATM    5  C   UNL     1      43.568 -17.927   5.210  1.00  0.00     0.048 A 
HETATM    6  C   UNL     1      43.444 -17.067   4.118  1.00  0.00     0.048 A 
HETATM    7  C   UNL     1      43.831 -19.295   5.007  1.00  0.00     0.018 A 
HETATM    8  C   UNL     1      43.969 -19.807   3.719  1.00  0.00     0.001 A 
HETATM    9  C   UNL     1      43.846 -18.959   2.626  1.00  0.00     0.002 A 
HETATM   10  C   UNL     1      43.587 -17.600   2.826  1.00  0.00     0.030 A 
HETATM   11  N   UNL     1      43.189 -15.738   4.215  1.00  0.00    -0.336 N 
HETATM   12  H   UNL     1      43.164 -15.163   3.384  1.00  0.00     0.168 HD
ENDROOT
BRANCH   1  13
HETATM   13  N   UNL     1      42.774 -13.710   5.297  1.00  0.00    -0.334 N 
HETATM   14  H   UNL     1      42.040 -13.459   4.635  1.00  0.00     0.168 HD
BRANCH  13  15
HETATM   15  C   UNL     1      43.272 -12.583   5.978  1.00  0.00     0.068 A 
HETATM   16  C   UNL     1      42.379 -11.533   6.291  1.00  0.00     0.097 A 
HETATM   17  C   UNL     1      42.815 -10.427   7.033  1.00  0.00     0.075 A 
HETATM   18  C   UNL     1      44.140 -10.355   7.464  1.00  0.00     0.070 A 
HETATM   19  C   UNL     1      45.026 -11.383   7.139  1.00  0.00     0.039 A 
HETATM   20  C   UNL     1      44.599 -12.490   6.404  1.00  0.00     0.035 A 
BRANCH  16  21
HETATM   21  O   UNL     1      41.099 -11.711   5.816  1.00  0.00    -0.354 OA
HETATM   22  C   UNL     1      40.678 -10.874   4.744  1.00  0.00     0.210 C 
ENDBRANCH  16  21
BRANCH  18  23
HETATM   23  O   UNL     1      44.696  -9.342   8.196  1.00  0.00    -0.356 OA
HETATM   24  C   UNL     1      46.114  -9.225   8.177  1.00  0.00     0.210 C 
ENDBRANCH  18  23
ENDBRANCH  13  15
ENDBRANCH   1  13
TORSDOF 4
ENDMDL
MODEL 7
REMARK VINA RESULT:      -7.0     14.395     17.122
REMARK  4 active torsions:
REMARK  status: ('A' for Active; 'I' for Inactive)
REMARK    1  A    between atoms: O_2  and  C_3 
REMARK    2  A    between atoms: C_5  and  O_6 
REMARK    3  A    between atoms: C_8  and  N_9 
REMARK    4  A    between atoms: N_9  and  C_10 
ROOT
HETATM    1  C   UNL     1      47.132 -28.934   1.995  1.00  0.00     0.153 A 
HETATM    2  S   UNL     1      45.901 -29.682   2.903  1.00  0.00    -0.011 SA
HETATM    3  C   UNL     1      46.794 -30.657   4.031  1.00  0.00     0.228 A 
HETATM    4  O   UNL     1      46.194 -31.368   4.826  1.00  0.00    -0.279 OA
HETATM    5  C   UNL     1      48.264 -30.624   4.040  1.00  0.00     0.048 A 
HETATM    6  C   UNL     1      48.985 -29.833   3.144  1.00  0.00     0.048 A 
HETATM    7  C   UNL     1      48.939 -31.411   4.992  1.00  0.00     0.018 A 
HETATM    8  C   UNL     1      50.331 -31.413   5.052  1.00  0.00     0.001 A 
HETATM    9  C   UNL     1      51.058 -30.630   4.164  1.00  0.00     0.002 A 
HETATM   10  C   UNL     1      50.389 -29.846   3.219  1.00  0.00     0.030 A 
HETATM   11  N   UNL     1      48.423 -29.046   2.193  1.00  0.00    -0.336 N 
HETATM   12  H   UNL     1      49.004 -28.458   1.612  1.00  0.00     0.168 HD
ENDROOT
BRANCH   1  13
HETATM   13  N   UNL     1      46.689 -28.067   0.974  1.00  0.00    -0.334 N 
HETATM   14  H   UNL     1      46.652 -27.091   1.266  1.00  0.00     0.168 HD
BRANCH  13  15
HETATM   15  C   UNL     1      46.322 -28.223  -0.376  1.00  0.00     0.068 A 
HETATM   16  C   UNL     1      47.314 -28.614  -1.305  1.00  0.00     0.097 A 
HETATM   17  C   UNL     1      46.978 -28.854  -2.644  1.00  0.00     0.075 A 
HETATM   18  C   UNL     1      45.658 -28.704  -3.070  1.00  0.00     0.070 A 
HETATM   19  C   UNL     1      44.682 -28.300  -2.157  1.00  0.00     0.039 A 
HETATM   20  C   UNL     1      45.008 -28.063  -0.820  1.00  0.00     0.035 A 
BRANCH  16  21
HETATM   21  O   UNL     1      48.579 -28.732  -0.775  1.00  0.00    -0.354 OA
HETATM   22  C   UNL     1      49.368 -29.836  -1.206  1.00  0.00     0.210 C 
ENDBRANCH  16  21
BRANCH  18  23
HETATM   23  O   UNL     1      45.192 -28.909  -4.340  1.00  0.00    -0.356 OA
HETATM   24  C   UNL     1      44.166 -29.880  -4.509  1.00  0.00     0.210 C 
ENDBRANCH  18  23
ENDBRANCH  13  15
ENDBRANCH   1  13
TORSDOF 4
ENDMDL
MODEL 8
REMARK VINA RESULT:      -6.9      2.241      7.530
REMARK  4 active torsions:
REMARK  status: ('A' for Active; 'I' for Inactive)
REMARK    1  A    between atoms: O_2  and  C_3 
REMARK    2  A    between atoms: C_5  and  O_6 
REMARK    3  A    between atoms: C_8  and  N_9 
REMARK    4  A    between atoms: N_9  and  C_10 
ROOT
HETATM    1  C   UNL     1      40.664 -15.491   3.652  1.00  0.00     0.153 A 
HETATM    2  S   UNL     1      40.858 -15.195   5.317  1.00  0.00    -0.011 SA
HETATM    3  C   UNL     1      42.140 -16.283   5.754  1.00  0.00     0.228 A 
HETATM    4  O   UNL     1      42.510 -16.348   6.919  1.00  0.00    -0.279 OA
HETATM    5  C   UNL     1      42.787 -17.118   4.731  1.00  0.00     0.048 A 
HETATM    6  C   UNL     1      42.388 -17.079   3.394  1.00  0.00     0.048 A 
HETATM    7  C   UNL     1      43.839 -17.962   5.132  1.00  0.00     0.018 A 
HETATM    8  C   UNL     1      44.493 -18.770   4.204  1.00  0.00     0.001 A 
HETATM    9  C   UNL     1      44.103 -18.739   2.871  1.00  0.00     0.002 A 
HETATM   10  C   UNL     1      43.060 -17.899   2.471  1.00  0.00     0.030 A 
HETATM   11  N   UNL     1      41.386 -16.301   2.916  1.00  0.00    -0.336 N 
HETATM   12  H   UNL     1      41.184 -16.283   1.925  1.00  0.00     0.168 HD
ENDROOT
BRANCH   1  13
HETATM   13  N   UNL     1      39.659 -14.732   3.015  1.00  0.00    -0.334 N 
HETATM   14  H   UNL     1      38.771 -15.228   2.938  1.00  0.00     0.168 HD
BRANCH  13  15
HETATM   15  C   UNL     1      39.576 -13.426   2.495  1.00  0.00     0.068 A 
HETATM   16  C   UNL     1      39.838 -13.229   1.120  1.00  0.00     0.097 A 
HETATM   17  C   UNL     1      39.694 -11.960   0.544  1.00  0.00     0.075 A 
HETATM   18  C   UNL     1      39.295 -10.878   1.331  1.00  0.00     0.070 A 
HETATM   19  C   UNL     1      39.054 -11.069   2.692  1.00  0.00     0.039 A 
HETATM   20  C   UNL     1      39.191 -12.332   3.272  1.00  0.00     0.035 A 
BRANCH  16  21
HETATM   21  O   UNL     1      40.223 -14.364   0.443  1.00  0.00    -0.354 OA
HETATM   22  C   UNL     1      39.646 -14.588  -0.839  1.00  0.00     0.210 C 
ENDBRANCH  16  21
BRANCH  18  23
HETATM   23  O   UNL     1      39.111  -9.593   0.900  1.00  0.00    -0.356 OA
HETATM   24  C   UNL     1      38.420  -8.706   1.772  1.00  0.00     0.210 C 
ENDBRANCH  18  23
ENDBRANCH  13  15
ENDBRANCH   1  13
TORSDOF 4
ENDMDL
MODEL 9
REMARK VINA RESULT:      -6.9      3.249      7.530
REMARK  4 active torsions:
REMARK  status: ('A' for Active; 'I' for Inactive)
REMARK    1  A    between atoms: O_2  and  C_3 
REMARK    2  A    between atoms: C_5  and  O_6 
REMARK    3  A    between atoms: C_8  and  N_9 
REMARK    4  A    between atoms: N_9  and  C_10 
ROOT
HETATM    1  C   UNL     1      40.937 -15.246   5.318  1.00  0.00     0.153 A 
HETATM    2  S   UNL     1      41.785 -15.550   6.763  1.00  0.00    -0.011 SA
HETATM    3  C   UNL     1      42.920 -16.779   6.292  1.00  0.00     0.228 A 
HETATM    4  O   UNL     1      43.678 -17.257   7.126  1.00  0.00    -0.279 OA
HETATM    5  C   UNL     1      42.980 -17.238   4.896  1.00  0.00     0.048 A 
HETATM    6  C   UNL     1      42.128 -16.724   3.918  1.00  0.00     0.048 A 
HETATM    7  C   UNL     1      43.936 -18.215   4.560  1.00  0.00     0.018 A 
HETATM    8  C   UNL     1      44.044 -18.682   3.252  1.00  0.00     0.001 A 
HETATM    9  C   UNL     1      43.199 -18.177   2.271  1.00  0.00     0.002 A 
HETATM   10  C   UNL     1      42.251 -17.205   2.603  1.00  0.00     0.030 A 
HETATM   11  N   UNL     1      41.177 -15.785   4.147  1.00  0.00    -0.336 N 
HETATM   12  H   UNL     1      40.629 -15.418   3.381  1.00  0.00     0.168 HD
ENDROOT
BRANCH   1  13
HETATM   13  N   UNL     1      39.921 -14.270   5.407  1.00  0.00    -0.334 N 
HETATM   14  H   UNL     1      39.063 -14.624   5.827  1.00  0.00     0.168 HD
BRANCH  13  15
HETATM   15  C   UNL     1      39.824 -12.903   5.089  1.00  0.00     0.068 A 
HETATM   16  C   UNL     1      39.450 -12.539   3.774  1.00  0.00     0.097 A 
HETATM   17  C   UNL     1      39.268 -11.192   3.435  1.00  0.00     0.075 A 
HETATM   18  C   UNL     1      39.462 -10.198   4.395  1.00  0.00     0.070 A 
HETATM   19  C   UNL     1      39.849 -10.556   5.687  1.00  0.00     0.039 A 
HETATM   20  C   UNL     1      40.028 -11.896   6.035  1.00  0.00     0.035 A 
BRANCH  16  21
HETATM   21  O   UNL     1      39.287 -13.600   2.913  1.00  0.00    -0.354 OA
HETATM   22  C   UNL     1      39.861 -13.482   1.615  1.00  0.00     0.210 C 
ENDBRANCH  16  21
BRANCH  18  23
HETATM   23  O   UNL     1      39.315  -8.852   4.202  1.00  0.00    -0.356 OA
HETATM   24  C   UNL     1      38.488  -8.433   3.123  1.00  0.00     0.210 C 
ENDBRANCH  18  23
ENDBRANCH  13  15
ENDBRANCH   1  13
TORSDOF 4
ENDMDL
MODEL 10
REMARK VINA RESULT:      -6.9      2.003      7.489
REMARK  4 active torsions:
REMARK  status: ('A' for Active; 'I' for Inactive)
REMARK    1  A    between atoms: O_2  and  C_3 
REMARK    2  A    between atoms: C_5  and  O_6 
REMARK    3  A    between atoms: C_8  and  N_9 
REMARK    4  A    between atoms: N_9  and  C_10 
ROOT
HETATM    1  C   UNL     1      41.699 -14.596   3.148  1.00  0.00     0.153 A 
HETATM    2  S   UNL     1      42.339 -14.067   4.634  1.00  0.00    -0.011 SA
HETATM    3  C   UNL     1      43.272 -15.435   5.160  1.00  0.00     0.228 A 
HETATM    4  O   UNL     1      43.850 -15.398   6.239  1.00  0.00    -0.279 OA
HETATM    5  C   UNL     1      43.379 -16.632   4.312  1.00  0.00     0.048 A 
HETATM    6  C   UNL     1      42.729 -16.717   3.079  1.00  0.00     0.048 A 
HETATM    7  C   UNL     1      44.170 -17.702   4.770  1.00  0.00     0.018 A 
HETATM    8  C   UNL     1      44.312 -18.857   4.005  1.00  0.00     0.001 A 
HETATM    9  C   UNL     1      43.669 -18.952   2.777  1.00  0.00     0.002 A 
HETATM   10  C   UNL     1      42.885 -17.889   2.320  1.00  0.00     0.030 A 
HETATM   11  N   UNL     1      41.946 -15.741   2.557  1.00  0.00    -0.336 N 
HETATM   12  H   UNL     1      41.548 -15.847   1.634  1.00  0.00     0.168 HD
ENDROOT
BRANCH   1  13
HETATM   13  N   UNL     1      40.873 -13.667   2.480  1.00  0.00    -0.334 N 
HETATM   14  H   UNL     1      39.897 -13.718   2.772  1.00  0.00     0.168 HD
BRANCH  13  15
HETATM   15  C   UNL     1      41.083 -12.651   1.530  1.00  0.00     0.068 A 
HETATM   16  C   UNL     1      40.853 -12.942   0.166  1.00  0.00     0.097 A 
HETATM   17  C   UNL     1      40.978 -11.940  -0.806  1.00  0.00     0.075 A 
HETATM   18  C   UNL     1      41.336 -10.644  -0.430  1.00  0.00     0.070 A 
HETATM   19  C   UNL     1      41.581 -10.361   0.914  1.00  0.00     0.039 A 
HETATM   20  C   UNL     1      41.455 -11.353   1.889  1.00  0.00     0.035 A 
BRANCH  16  21
HETATM   21  O   UNL     1      40.505 -14.249  -0.089  1.00  0.00    -0.354 OA
HETATM   22  C   UNL     1      39.504 -14.479  -1.075  1.00  0.00     0.210 C 
ENDBRANCH  16  21
BRANCH  18  23
HETATM   23  O   UNL     1      41.488  -9.575  -1.269  1.00  0.00    -0.356 OA
HETATM   24  C   UNL     1      41.712  -8.304  -0.670  1.00  0.00     0.210 C 
ENDBRANCH  18  23
ENDBRANCH  13  15
ENDBRANCH   1  13
TORSDOF 4
ENDMDL
