MODEL 1
REMARK VINA RESULT:      -9.0      0.000      0.000
REMARK  3 active torsions:
REMARK  status: ('A' for Active; 'I' for Inactive)
REMARK    1  A    between atoms: O_2  and  C_3 
REMARK    2  A    between atoms: C_6  and  C_7 
REMARK       I    between atoms: C_7  and  N_8 
REMARK    3  A    between atoms: C_11  and  C_12 
ROOT
HETATM    1  C   UNL     1      43.378 -12.046   5.118  1.00  0.00     0.274 C 
HETATM    2  N   UNL     1      43.282 -13.442   5.224  1.00  0.00    -0.343 N 
HETATM    3  C   UNL     1      42.677 -14.111   4.077  1.00  0.00     0.154 C 
HETATM    4  C   UNL     1      42.836 -15.598   4.126  1.00  0.00     0.001 C 
HETATM    5  C   UNL     1      43.370 -16.286   5.149  1.00  0.00    -0.046 C 
HETATM    6  C   UNL     1      43.854 -15.561   6.381  1.00  0.00     0.059 C 
HETATM    7  C   UNL     1      43.219 -14.173   6.495  1.00  0.00     0.131 C 
HETATM    8  O   UNL     1      42.976 -11.449   4.115  1.00  0.00    -0.266 OA
ENDROOT
BRANCH   1   9
HETATM    9  C   UNL     1      43.960 -11.213   6.207  1.00  0.00     0.147 A 
HETATM   10  N   UNL     1      43.131 -10.478   6.982  1.00  0.00    -0.142 NA
HETATM   11  N   UNL     1      43.649  -9.733   8.014  1.00  0.00    -0.124 NA
HETATM   12  C   UNL     1      44.977  -9.767   8.263  1.00  0.00     0.185 A 
HETATM   13  C   UNL     1      45.847 -10.529   7.508  1.00  0.00     0.062 A 
HETATM   14  C   UNL     1      45.326 -11.274   6.455  1.00  0.00     0.043 A 
BRANCH  12  15
HETATM   15  O   UNL     1      45.529  -9.036   9.295  1.00  0.00    -0.338 OA
HETATM   16  C   UNL     1      45.088  -9.463  10.580  1.00  0.00     0.211 C 
ENDBRANCH  12  15
ENDBRANCH   1   9
BRANCH   5  17
HETATM   17  C   UNL     1      43.501 -17.711   5.172  1.00  0.00    -0.002 A 
HETATM   18  C   UNL     1      43.607 -18.608   4.060  1.00  0.00     0.003 A 
HETATM   19  C   UNL     1      43.754 -19.894   4.583  1.00  0.00     0.043 A 
HETATM   20  C   UNL     1      43.588 -18.459   2.655  1.00  0.00     0.014 A 
HETATM   21  C   UNL     1      43.900 -21.031   3.777  1.00  0.00     0.030 A 
HETATM   22  N   UNL     1      43.724 -19.781   5.954  1.00  0.00    -0.364 N 
HETATM   23  C   UNL     1      43.889 -20.850   2.390  1.00  0.00     0.002 A 
HETATM   24  C   UNL     1      43.732 -19.584   1.835  1.00  0.00     0.001 A 
HETATM   25  H   UNL     1      43.812 -20.558   6.593  1.00  0.00     0.165 HD
HETATM   26  C   UNL     1      43.565 -18.471   6.321  1.00  0.00     0.101 A 
ENDBRANCH   5  17
TORSDOF 3
ENDMDL
MODEL 2
REMARK VINA RESULT:      -8.9      4.364      7.093
REMARK  3 active torsions:
REMARK  status: ('A' for Active; 'I' for Inactive)
REMARK    1  A    between atoms: O_2  and  C_3 
REMARK    2  A    between atoms: C_6  and  C_7 
REMARK       I    between atoms: C_7  and  N_8 
REMARK    3  A    between atoms: C_11  and  C_12 
ROOT
HETATM    1  C   UNL     1      41.419 -12.894   1.217  1.00  0.00     0.274 C 
HETATM    2  N   UNL     1      41.985 -13.948   1.951  1.00  0.00    -0.343 N 
HETATM    3  C   UNL     1      42.589 -13.564   3.222  1.00  0.00     0.154 C 
HETATM    4  C   UNL     1      42.939 -14.744   4.075  1.00  0.00     0.001 C 
HETATM    5  C   UNL     1      42.827 -16.030   3.700  1.00  0.00    -0.046 C 
HETATM    6  C   UNL     1      42.330 -16.377   2.318  1.00  0.00     0.059 C 
HETATM    7  C   UNL     1      42.483 -15.195   1.358  1.00  0.00     0.131 C 
HETATM    8  O   UNL     1      41.442 -11.734   1.640  1.00  0.00    -0.266 OA
ENDROOT
BRANCH   1   9
HETATM    9  C   UNL     1      40.773 -13.114  -0.106  1.00  0.00     0.147 A 
HETATM   10  N   UNL     1      41.087 -12.292  -1.133  1.00  0.00    -0.142 NA
HETATM   11  N   UNL     1      40.527 -12.506  -2.369  1.00  0.00    -0.124 NA
HETATM   12  C   UNL     1      39.694 -13.554  -2.555  1.00  0.00     0.185 A 
HETATM   13  C   UNL     1      39.375 -14.428  -1.535  1.00  0.00     0.062 A 
HETATM   14  C   UNL     1      39.931 -14.206  -0.279  1.00  0.00     0.043 A 
BRANCH  12  15
HETATM   15  O   UNL     1      39.120 -13.800  -3.785  1.00  0.00    -0.338 OA
HETATM   16  C   UNL     1      38.084 -14.775  -3.733  1.00  0.00     0.211 C 
ENDBRANCH  12  15
ENDBRANCH   1   9
BRANCH   5  17
HETATM   17  C   UNL     1      43.178 -17.138   4.534  1.00  0.00    -0.002 A 
HETATM   18  C   UNL     1      43.473 -18.484   4.140  1.00  0.00     0.003 A 
HETATM   19  C   UNL     1      43.797 -19.189   5.301  1.00  0.00     0.043 A 
HETATM   20  C   UNL     1      43.492 -19.180   2.911  1.00  0.00     0.014 A 
HETATM   21  C   UNL     1      44.154 -20.544   5.293  1.00  0.00     0.030 A 
HETATM   22  N   UNL     1      43.690 -18.309   6.354  1.00  0.00    -0.364 N 
HETATM   23  C   UNL     1      44.176 -21.203   4.060  1.00  0.00     0.002 A 
HETATM   24  C   UNL     1      43.847 -20.534   2.885  1.00  0.00     0.001 A 
HETATM   25  H   UNL     1      43.871 -18.549   7.319  1.00  0.00     0.165 HD
HETATM   26  C   UNL     1      43.311 -17.072   5.906  1.00  0.00     0.101 A 
ENDBRANCH   5  17
TORSDOF 3
ENDMDL
MODEL 3
REMARK VINA RESULT:      -8.5      1.188      1.886
REMARK  3 active torsions:
REMARK  status: ('A' for Active; 'I' for Inactive)
REMARK    1  A    between atoms: O_2  and  C_3 
REMARK    2  A    between atoms: C_6  and  C_7 
REMARK       I    between atoms: C_7  and  N_8 
REMARK    3  A    between atoms: C_11  and  C_12 
ROOT
HETATM    1  C   UNL     1      43.285 -11.767   4.798  1.00  0.00     0.274 C 
HETATM    2  N   UNL     1      43.175 -13.136   4.505  1.00  0.00    -0.343 N 
HETATM    3  C   UNL     1      42.627 -13.446   3.189  1.00  0.00     0.154 C 
HETATM    4  C   UNL     1      42.775 -14.890   2.828  1.00  0.00     0.001 C 
HETATM    5  C   UNL     1      43.252 -15.847   3.643  1.00  0.00    -0.046 C 
HETATM    6  C   UNL     1      43.675 -15.504   5.050  1.00  0.00     0.059 C 
HETATM    7  C   UNL     1      43.042 -14.190   5.517  1.00  0.00     0.131 C 
HETATM    8  O   UNL     1      42.937 -10.907   3.983  1.00  0.00    -0.266 OA
ENDROOT
BRANCH   1   9
HETATM    9  C   UNL     1      43.814 -11.283   6.103  1.00  0.00     0.147 A 
HETATM   10  N   UNL     1      42.947 -10.803   7.023  1.00  0.00    -0.142 NA
HETATM   11  N   UNL     1      43.416 -10.387   8.246  1.00  0.00    -0.124 NA
HETATM   12  C   UNL     1      44.734 -10.489   8.527  1.00  0.00     0.185 A 
HETATM   13  C   UNL     1      45.641 -11.000   7.621  1.00  0.00     0.062 A 
HETATM   14  C   UNL     1      45.170 -11.410   6.377  1.00  0.00     0.043 A 
BRANCH  12  15
HETATM   15  O   UNL     1      45.236 -10.086   9.747  1.00  0.00    -0.338 OA
HETATM   16  C   UNL     1      44.358  -9.215  10.453  1.00  0.00     0.211 C 
ENDBRANCH  12  15
ENDBRANCH   1   9
BRANCH   5  17
HETATM   17  C   UNL     1      43.373 -17.224   3.273  1.00  0.00    -0.002 A 
HETATM   18  C   UNL     1      43.564 -18.357   4.129  1.00  0.00     0.003 A 
HETATM   19  C   UNL     1      43.582 -19.489   3.312  1.00  0.00     0.043 A 
HETATM   20  C   UNL     1      43.729 -18.537   5.521  1.00  0.00     0.014 A 
HETATM   21  C   UNL     1      43.740 -20.788   3.816  1.00  0.00     0.030 A 
HETATM   22  N   UNL     1      43.423 -19.058   2.016  1.00  0.00    -0.364 N 
HETATM   23  C   UNL     1      43.888 -20.935   5.199  1.00  0.00     0.002 A 
HETATM   24  C   UNL     1      43.887 -19.827   6.041  1.00  0.00     0.001 A 
HETATM   25  H   UNL     1      43.395 -19.667   1.210  1.00  0.00     0.165 HD
HETATM   26  C   UNL     1      43.302 -17.694   1.978  1.00  0.00     0.101 A 
ENDBRANCH   5  17
TORSDOF 3
ENDMDL
MODEL 4
REMARK VINA RESULT:      -8.5      4.855      6.268
REMARK  3 active torsions:
REMARK  status: ('A' for Active; 'I' for Inactive)
REMARK    1  A    between atoms: O_2  and  C_3 
REMARK    2  A    between atoms: C_6  and  C_7 
REMARK       I    between atoms: C_7  and  N_8 
REMARK    3  A    between atoms: C_11  and  C_12 
ROOT
HETATM    1  C   UNL     1      40.290 -13.008  -0.124  1.00  0.00     0.274 C 
HETATM    2  N   UNL     1      40.870 -13.827   0.858  1.00  0.00    -0.343 N 
HETATM    3  C   UNL     1      40.176 -15.086   1.105  1.00  0.00     0.154 C 
HETATM    4  C   UNL     1      40.969 -16.025   1.958  1.00  0.00     0.001 C 
HETATM    5  C   UNL     1      42.143 -15.735   2.543  1.00  0.00    -0.046 C 
HETATM    6  C   UNL     1      42.757 -14.367   2.376  1.00  0.00     0.059 C 
HETATM    7  C   UNL     1      41.707 -13.333   1.957  1.00  0.00     0.131 C 
HETATM    8  O   UNL     1      39.267 -13.352  -0.723  1.00  0.00    -0.266 OA
ENDROOT
BRANCH   1   9
HETATM    9  C   UNL     1      40.869 -11.686  -0.487  1.00  0.00     0.147 A 
HETATM   10  N   UNL     1      41.330 -10.880   0.498  1.00  0.00    -0.142 NA
HETATM   11  N   UNL     1      41.901  -9.673   0.176  1.00  0.00    -0.124 NA
HETATM   12  C   UNL     1      42.024  -9.315  -1.122  1.00  0.00     0.185 A 
HETATM   13  C   UNL     1      41.589 -10.126  -2.152  1.00  0.00     0.062 A 
HETATM   14  C   UNL     1      40.999 -11.344  -1.827  1.00  0.00     0.043 A 
BRANCH  12  15
HETATM   15  O   UNL     1      42.598  -8.113  -1.479  1.00  0.00    -0.338 OA
HETATM   16  C   UNL     1      42.226  -7.682  -2.785  1.00  0.00     0.211 C 
ENDBRANCH  12  15
ENDBRANCH   1   9
BRANCH   5  17
HETATM   17  C   UNL     1      42.876 -16.652   3.363  1.00  0.00    -0.002 A 
HETATM   18  C   UNL     1      43.144 -18.038   3.118  1.00  0.00     0.003 A 
HETATM   19  C   UNL     1      43.926 -18.497   4.179  1.00  0.00     0.043 A 
HETATM   20  C   UNL     1      42.796 -18.955   2.102  1.00  0.00     0.014 A 
HETATM   21  C   UNL     1      44.390 -19.816   4.266  1.00  0.00     0.030 A 
HETATM   22  N   UNL     1      44.112 -17.436   5.036  1.00  0.00    -0.364 N 
HETATM   23  C   UNL     1      44.039 -20.698   3.240  1.00  0.00     0.002 A 
HETATM   24  C   UNL     1      43.250 -20.277   2.173  1.00  0.00     0.001 A 
HETATM   25  H   UNL     1      44.646 -17.481   5.892  1.00  0.00     0.165 HD
HETATM   26  C   UNL     1      43.478 -16.320   4.558  1.00  0.00     0.101 A 
ENDBRANCH   5  17
TORSDOF 3
ENDMDL
MODEL 5
REMARK VINA RESULT:      -8.0      5.939      9.333
REMARK  3 active torsions:
REMARK  status: ('A' for Active; 'I' for Inactive)
REMARK    1  A    between atoms: O_2  and  C_3 
REMARK    2  A    between atoms: C_6  and  C_7 
REMARK       I    between atoms: C_7  and  N_8 
REMARK    3  A    between atoms: C_11  and  C_12 
ROOT
HETATM    1  C   UNL     1      42.801 -14.363   2.583  1.00  0.00     0.274 C 
HETATM    2  N   UNL     1      41.714 -14.088   1.740  1.00  0.00    -0.343 N 
HETATM    3  C   UNL     1      41.487 -12.674   1.463  1.00  0.00     0.154 C 
HETATM    4  C   UNL     1      40.494 -12.452   0.365  1.00  0.00     0.001 C 
HETATM    5  C   UNL     1      39.787 -13.419  -0.245  1.00  0.00    -0.046 C 
HETATM    6  C   UNL     1      39.950 -14.859   0.175  1.00  0.00     0.059 C 
HETATM    7  C   UNL     1      40.548 -14.965   1.580  1.00  0.00     0.131 C 
HETATM    8  O   UNL     1      43.502 -13.457   3.043  1.00  0.00    -0.266 OA
ENDROOT
BRANCH   1   9
HETATM    9  C   UNL     1      43.161 -15.754   2.974  1.00  0.00     0.147 A 
HETATM   10  N   UNL     1      43.348 -16.039   4.283  1.00  0.00    -0.142 NA
HETATM   11  N   UNL     1      43.643 -17.327   4.662  1.00  0.00    -0.124 NA
HETATM   12  C   UNL     1      43.714 -18.300   3.727  1.00  0.00     0.185 A 
HETATM   13  C   UNL     1      43.502 -18.048   2.386  1.00  0.00     0.062 A 
HETATM   14  C   UNL     1      43.215 -16.743   1.999  1.00  0.00     0.043 A 
BRANCH  12  15
HETATM   15  O   UNL     1      44.003 -19.604   4.075  1.00  0.00    -0.338 OA
HETATM   16  C   UNL     1      43.712 -20.536   3.040  1.00  0.00     0.211 C 
ENDBRANCH  12  15
ENDBRANCH   1   9
BRANCH   5  17
HETATM   17  C   UNL     1      38.836 -13.176  -1.286  1.00  0.00    -0.002 A 
HETATM   18  C   UNL     1      37.918 -12.083  -1.410  1.00  0.00     0.003 A 
HETATM   19  C   UNL     1      37.227 -12.261  -2.610  1.00  0.00     0.043 A 
HETATM   20  C   UNL     1      37.598 -10.957  -0.618  1.00  0.00     0.014 A 
HETATM   21  C   UNL     1      36.250 -11.366  -3.065  1.00  0.00     0.030 A 
HETATM   22  N   UNL     1      37.698 -13.421  -3.182  1.00  0.00    -0.364 N 
HETATM   23  C   UNL     1      35.963 -10.255  -2.266  1.00  0.00     0.002 A 
HETATM   24  C   UNL     1      36.624 -10.053  -1.057  1.00  0.00     0.001 A 
HETATM   25  H   UNL     1      37.376 -13.795  -4.063  1.00  0.00     0.165 HD
HETATM   26  C   UNL     1      38.663 -13.985  -2.390  1.00  0.00     0.101 A 
ENDBRANCH   5  17
TORSDOF 3
ENDMDL
MODEL 6
REMARK VINA RESULT:      -8.0      2.868      4.598
REMARK  3 active torsions:
REMARK  status: ('A' for Active; 'I' for Inactive)
REMARK    1  A    between atoms: O_2  and  C_3 
REMARK    2  A    between atoms: C_6  and  C_7 
REMARK       I    between atoms: C_7  and  N_8 
REMARK    3  A    between atoms: C_11  and  C_12 
ROOT
HETATM    1  C   UNL     1      44.964 -10.509   8.162  1.00  0.00     0.274 C 
HETATM    2  N   UNL     1      44.213 -11.014   7.089  1.00  0.00    -0.343 N 
HETATM    3  C   UNL     1      44.972 -11.283   5.873  1.00  0.00     0.154 C 
HETATM    4  C   UNL     1      44.187 -12.056   4.860  1.00  0.00     0.001 C 
HETATM    5  C   UNL     1      42.889 -12.387   4.975  1.00  0.00    -0.046 C 
HETATM    6  C   UNL     1      42.103 -11.962   6.191  1.00  0.00     0.059 C 
HETATM    7  C   UNL     1      42.775 -10.786   6.906  1.00  0.00     0.131 C 
HETATM    8  O   UNL     1      46.179 -10.317   8.060  1.00  0.00    -0.266 OA
ENDROOT
BRANCH   1   9
HETATM    9  C   UNL     1      44.337 -10.171   9.469  1.00  0.00     0.147 A 
HETATM   10  N   UNL     1      44.109 -11.162  10.361  1.00  0.00    -0.142 NA
HETATM   11  N   UNL     1      43.566 -10.861  11.587  1.00  0.00    -0.124 NA
HETATM   12  C   UNL     1      43.294  -9.575  11.901  1.00  0.00     0.185 A 
HETATM   13  C   UNL     1      43.541  -8.537  11.024  1.00  0.00     0.062 A 
HETATM   14  C   UNL     1      44.079  -8.841   9.778  1.00  0.00     0.043 A 
BRANCH  12  15
HETATM   15  O   UNL     1      42.754  -9.238  13.125  1.00  0.00    -0.338 OA
HETATM   16  C   UNL     1      41.373  -9.566  13.236  1.00  0.00     0.211 C 
ENDBRANCH  12  15
ENDBRANCH   1   9
BRANCH   5  17
HETATM   17  C   UNL     1      42.161 -13.119   3.985  1.00  0.00    -0.002 A 
HETATM   18  C   UNL     1      42.301 -14.498   3.623  1.00  0.00     0.003 A 
HETATM   19  C   UNL     1      41.348 -14.763   2.638  1.00  0.00     0.043 A 
HETATM   20  C   UNL     1      43.148 -15.553   4.030  1.00  0.00     0.014 A 
HETATM   21  C   UNL     1      41.188 -16.027   2.054  1.00  0.00     0.030 A 
HETATM   22  N   UNL     1      40.668 -13.589   2.405  1.00  0.00    -0.364 N 
HETATM   23  C   UNL     1      42.033 -17.054   2.486  1.00  0.00     0.002 A 
HETATM   24  C   UNL     1      43.002 -16.822   3.457  1.00  0.00     0.001 A 
HETATM   25  H   UNL     1      39.916 -13.487   1.739  1.00  0.00     0.165 HD
HETATM   26  C   UNL     1      41.153 -12.590   3.206  1.00  0.00     0.101 A 
ENDBRANCH   5  17
TORSDOF 3
ENDMDL
MODEL 7
REMARK VINA RESULT:      -7.9      2.740      3.073
REMARK  3 active torsions:
REMARK  status: ('A' for Active; 'I' for Inactive)
REMARK    1  A    between atoms: O_2  and  C_3 
REMARK    2  A    between atoms: C_6  and  C_7 
REMARK       I    between atoms: C_7  and  N_8 
REMARK    3  A    between atoms: C_11  and  C_12 
ROOT
HETATM    1  C   UNL     1      41.784 -11.810   4.451  1.00  0.00     0.274 C 
HETATM    2  N   UNL     1      41.986 -13.197   4.513  1.00  0.00    -0.343 N 
HETATM    3  C   UNL     1      42.765 -13.760   3.415  1.00  0.00     0.154 C 
HETATM    4  C   UNL     1      43.170 -15.179   3.662  1.00  0.00     0.001 C 
HETATM    5  C   UNL     1      42.784 -15.922   4.714  1.00  0.00    -0.046 C 
HETATM    6  C   UNL     1      41.859 -15.341   5.755  1.00  0.00     0.059 C 
HETATM    7  C   UNL     1      41.095 -14.133   5.208  1.00  0.00     0.131 C 
HETATM    8  O   UNL     1      42.245 -11.135   3.525  1.00  0.00    -0.266 OA
ENDROOT
BRANCH   1   9
HETATM    9  C   UNL     1      41.001 -11.082   5.488  1.00  0.00     0.147 A 
HETATM   10  N   UNL     1      41.662 -10.456   6.488  1.00  0.00    -0.142 NA
HETATM   11  N   UNL     1      40.956  -9.749   7.431  1.00  0.00    -0.124 NA
HETATM   12  C   UNL     1      39.611  -9.662   7.332  1.00  0.00     0.185 A 
HETATM   13  C   UNL     1      38.908 -10.266   6.309  1.00  0.00     0.062 A 
HETATM   14  C   UNL     1      39.621 -10.992   5.360  1.00  0.00     0.043 A 
BRANCH  12  15
HETATM   15  O   UNL     1      38.872  -8.955   8.259  1.00  0.00    -0.338 OA
HETATM   16  C   UNL     1      39.054  -9.422   9.592  1.00  0.00     0.211 C 
ENDBRANCH  12  15
ENDBRANCH   1   9
BRANCH   5  17
HETATM   17  C   UNL     1      43.180 -17.282   4.920  1.00  0.00    -0.002 A 
HETATM   18  C   UNL     1      43.330 -18.317   3.941  1.00  0.00     0.003 A 
HETATM   19  C   UNL     1      43.771 -19.458   4.615  1.00  0.00     0.043 A 
HETATM   20  C   UNL     1      43.130 -18.405   2.545  1.00  0.00     0.014 A 
HETATM   21  C   UNL     1      44.037 -20.670   3.965  1.00  0.00     0.030 A 
HETATM   22  N   UNL     1      43.870 -19.129   5.947  1.00  0.00    -0.364 N 
HETATM   23  C   UNL     1      43.842 -20.723   2.581  1.00  0.00     0.002 A 
HETATM   24  C   UNL     1      43.392 -19.608   1.879  1.00  0.00     0.001 A 
HETATM   25  H   UNL     1      44.171 -19.766   6.672  1.00  0.00     0.165 HD
HETATM   26  C   UNL     1      43.511 -17.823   6.145  1.00  0.00     0.101 A 
ENDBRANCH   5  17
TORSDOF 3
ENDMDL
MODEL 8
REMARK VINA RESULT:      -7.9      4.958      8.246
REMARK  3 active torsions:
REMARK  status: ('A' for Active; 'I' for Inactive)
REMARK    1  A    between atoms: O_2  and  C_3 
REMARK    2  A    between atoms: C_6  and  C_7 
REMARK       I    between atoms: C_7  and  N_8 
REMARK    3  A    between atoms: C_11  and  C_12 
ROOT
HETATM    1  C   UNL     1      42.752 -14.912   4.552  1.00  0.00     0.274 C 
HETATM    2  N   UNL     1      41.782 -14.468   3.642  1.00  0.00    -0.343 N 
HETATM    3  C   UNL     1      41.454 -13.049   3.728  1.00  0.00     0.154 C 
HETATM    4  C   UNL     1      40.621 -12.577   2.578  1.00  0.00     0.001 C 
HETATM    5  C   UNL     1      40.117 -13.365   1.613  1.00  0.00    -0.046 C 
HETATM    6  C   UNL     1      40.363 -14.854   1.643  1.00  0.00     0.059 C 
HETATM    7  C   UNL     1      40.751 -15.326   3.047  1.00  0.00     0.131 C 
HETATM    8  O   UNL     1      43.278 -14.138   5.358  1.00  0.00    -0.266 OA
ENDROOT
BRANCH   1   9
HETATM    9  C   UNL     1      43.191 -16.334   4.602  1.00  0.00     0.147 A 
HETATM   10  N   UNL     1      43.225 -16.967   5.797  1.00  0.00    -0.142 NA
HETATM   11  N   UNL     1      43.591 -18.290   5.854  1.00  0.00    -0.124 NA
HETATM   12  C   UNL     1      43.885 -18.953   4.714  1.00  0.00     0.185 A 
HETATM   13  C   UNL     1      43.834 -18.344   3.476  1.00  0.00     0.062 A 
HETATM   14  C   UNL     1      43.475 -17.001   3.417  1.00  0.00     0.043 A 
BRANCH  12  15
HETATM   15  O   UNL     1      44.251 -20.283   4.736  1.00  0.00    -0.338 OA
HETATM   16  C   UNL     1      43.878 -20.986   3.555  1.00  0.00     0.211 C 
ENDBRANCH  12  15
ENDBRANCH   1   9
BRANCH   5  17
HETATM   17  C   UNL     1      39.314 -12.887   0.529  1.00  0.00    -0.002 A 
HETATM   18  C   UNL     1      39.036 -13.534  -0.719  1.00  0.00     0.003 A 
HETATM   19  C   UNL     1      38.176 -12.696  -1.432  1.00  0.00     0.043 A 
HETATM   20  C   UNL     1      39.435 -14.748  -1.322  1.00  0.00     0.014 A 
HETATM   21  C   UNL     1      37.682 -13.018  -2.703  1.00  0.00     0.030 A 
HETATM   22  N   UNL     1      37.953 -11.584  -0.652  1.00  0.00    -0.364 N 
HETATM   23  C   UNL     1      38.084 -14.232  -3.269  1.00  0.00     0.002 A 
HETATM   24  C   UNL     1      38.951 -15.085  -2.591  1.00  0.00     0.001 A 
HETATM   25  H   UNL     1      37.362 -10.810  -0.919  1.00  0.00     0.165 HD
HETATM   26  C   UNL     1      38.639 -11.685   0.529  1.00  0.00     0.101 A 
ENDBRANCH   5  17
TORSDOF 3
ENDMDL
MODEL 9
REMARK VINA RESULT:      -7.9      2.934      4.506
REMARK  3 active torsions:
REMARK  status: ('A' for Active; 'I' for Inactive)
REMARK    1  A    between atoms: O_2  and  C_3 
REMARK    2  A    between atoms: C_6  and  C_7 
REMARK       I    between atoms: C_7  and  N_8 
REMARK    3  A    between atoms: C_11  and  C_12 
ROOT
HETATM    1  C   UNL     1      44.417 -10.451   8.431  1.00  0.00     0.274 C 
HETATM    2  N   UNL     1      43.775 -11.131   7.384  1.00  0.00    -0.343 N 
HETATM    3  C   UNL     1      44.393 -12.394   6.995  1.00  0.00     0.154 C 
HETATM    4  C   UNL     1      43.533 -13.196   6.068  1.00  0.00     0.001 C 
HETATM    5  C   UNL     1      42.367 -12.783   5.543  1.00  0.00    -0.046 C 
HETATM    6  C   UNL     1      41.835 -11.408   5.863  1.00  0.00     0.059 C 
HETATM    7  C   UNL     1      42.949 -10.482   6.360  1.00  0.00     0.131 C 
HETATM    8  O   UNL     1      45.429 -10.911   8.969  1.00  0.00    -0.266 OA
ENDROOT
BRANCH   1   9
HETATM    9  C   UNL     1      43.921  -9.143   8.940  1.00  0.00     0.147 A 
HETATM   10  N   UNL     1      44.449  -8.003   8.440  1.00  0.00    -0.142 NA
HETATM   11  N   UNL     1      43.975  -6.788   8.872  1.00  0.00    -0.124 NA
HETATM   12  C   UNL     1      42.965  -6.745   9.770  1.00  0.00     0.185 A 
HETATM   13  C   UNL     1      42.385  -7.889  10.279  1.00  0.00     0.062 A 
HETATM   14  C   UNL     1      42.872  -9.121   9.852  1.00  0.00     0.043 A 
BRANCH  12  15
HETATM   15  O   UNL     1      42.462  -5.541  10.220  1.00  0.00    -0.338 OA
HETATM   16  C   UNL     1      42.202  -5.533  11.620  1.00  0.00     0.211 C 
ENDBRANCH  12  15
ENDBRANCH   1   9
BRANCH   5  17
HETATM   17  C   UNL     1      41.570 -13.569   4.651  1.00  0.00    -0.002 A 
HETATM   18  C   UNL     1      41.954 -14.740   3.920  1.00  0.00     0.003 A 
HETATM   19  C   UNL     1      40.826 -15.173   3.219  1.00  0.00     0.043 A 
HETATM   20  C   UNL     1      43.150 -15.477   3.778  1.00  0.00     0.014 A 
HETATM   21  C   UNL     1      40.831 -16.310   2.400  1.00  0.00     0.030 A 
HETATM   22  N   UNL     1      39.808 -14.293   3.504  1.00  0.00    -0.364 N 
HETATM   23  C   UNL     1      42.027 -17.026   2.288  1.00  0.00     0.002 A 
HETATM   24  C   UNL     1      43.172 -16.616   2.964  1.00  0.00     0.001 A 
HETATM   25  H   UNL     1      38.871 -14.364   3.134  1.00  0.00     0.165 HD
HETATM   26  C   UNL     1      40.245 -13.318   4.361  1.00  0.00     0.101 A 
ENDBRANCH   5  17
TORSDOF 3
ENDMDL
MODEL 10
REMARK VINA RESULT:      -7.9      3.730      8.712
REMARK  3 active torsions:
REMARK  status: ('A' for Active; 'I' for Inactive)
REMARK    1  A    between atoms: O_2  and  C_3 
REMARK    2  A    between atoms: C_6  and  C_7 
REMARK       I    between atoms: C_7  and  N_8 
REMARK    3  A    between atoms: C_11  and  C_12 
ROOT
HETATM    1  C   UNL     1      42.006 -15.552   4.038  1.00  0.00     0.274 C 
HETATM    2  N   UNL     1      42.579 -14.527   4.807  1.00  0.00    -0.343 N 
HETATM    3  C   UNL     1      43.133 -14.949   6.089  1.00  0.00     0.154 C 
HETATM    4  C   UNL     1      43.955 -13.883   6.743  1.00  0.00     0.001 C 
HETATM    5  C   UNL     1      44.097 -12.627   6.285  1.00  0.00    -0.046 C 
HETATM    6  C   UNL     1      43.388 -12.192   5.027  1.00  0.00     0.059 C 
HETATM    7  C   UNL     1      42.206 -13.112   4.708  1.00  0.00     0.131 C 
HETATM    8  O   UNL     1      41.987 -16.720   4.439  1.00  0.00    -0.266 OA
ENDROOT
BRANCH   1   9
HETATM    9  C   UNL     1      41.388 -15.287   2.711  1.00  0.00     0.147 A 
HETATM   10  N   UNL     1      40.323 -16.027   2.325  1.00  0.00    -0.142 NA
HETATM   11  N   UNL     1      39.718 -15.769   1.119  1.00  0.00    -0.124 NA
HETATM   12  C   UNL     1      40.173 -14.759   0.344  1.00  0.00     0.185 A 
HETATM   13  C   UNL     1      41.240 -13.968   0.720  1.00  0.00     0.062 A 
HETATM   14  C   UNL     1      41.862 -14.235   1.936  1.00  0.00     0.043 A 
BRANCH  12  15
HETATM   15  O   UNL     1      39.584 -14.471  -0.870  1.00  0.00    -0.338 OA
HETATM   16  C   UNL     1      39.259 -13.093  -1.020  1.00  0.00     0.211 C 
ENDBRANCH  12  15
ENDBRANCH   1   9
BRANCH   5  17
HETATM   17  C   UNL     1      44.883 -11.624   6.938  1.00  0.00    -0.002 A 
HETATM   18  C   UNL     1      44.611 -10.951   8.173  1.00  0.00     0.003 A 
HETATM   19  C   UNL     1      45.683 -10.090   8.416  1.00  0.00     0.043 A 
HETATM   20  C   UNL     1      43.555 -10.982   9.112  1.00  0.00     0.014 A 
HETATM   21  C   UNL     1      45.761  -9.275   9.553  1.00  0.00     0.030 A 
HETATM   22  N   UNL     1      46.560 -10.227   7.365  1.00  0.00    -0.364 N 
HETATM   23  C   UNL     1      44.707  -9.336  10.470  1.00  0.00     0.002 A 
HETATM   24  C   UNL     1      43.617 -10.174  10.253  1.00  0.00     0.001 A 
HETATM   25  H   UNL     1      47.431  -9.723   7.278  1.00  0.00     0.165 HD
HETATM   26  C   UNL     1      46.086 -11.143   6.464  1.00  0.00     0.101 A 
ENDBRANCH   5  17
TORSDOF 3
ENDMDL
