MODEL 1
REMARK VINA RESULT:      -8.5      0.000      0.000
REMARK  3 active torsions:
REMARK  status: ('A' for Active; 'I' for Inactive)
REMARK    1  A    between atoms: C_4  and  N_5 
REMARK       I    between atoms: N_5  and  C_6 
REMARK    2  A    between atoms: C_6  and  C_7 
REMARK    3  A    between atoms: C_7  and  C_8 
ROOT
HETATM    1  C   UNL     1      41.776 -14.358   6.021  1.00  0.00     0.286 C 
HETATM    2  N   UNL     1      42.681 -14.335   4.789  1.00  0.00    -0.056 N 
HETATM    3  H   UNL     1      43.113 -13.403   4.758  1.00  0.00     0.278 HD
HETATM    4  H   UNL     1      43.486 -14.969   4.975  1.00  0.00     0.278 HD
HETATM    5  C   UNL     1      42.059 -14.608   3.452  1.00  0.00     0.209 C 
HETATM    6  C   UNL     1      40.777 -13.756   3.299  1.00  0.00     0.115 C 
HETATM    7  N   UNL     1      39.897 -13.851   4.460  1.00  0.00    -0.353 N 
HETATM    8  C   UNL     1      40.354 -13.841   5.754  1.00  0.00     0.249 C 
HETATM    9  O   UNL     1      39.600 -13.520   6.667  1.00  0.00    -0.271 OA
HETATM   10  C   UNL     1      41.830 -16.106   3.251  1.00  0.00     0.035 C 
HETATM   11  C   UNL     1      41.118 -16.380   1.929  1.00  0.00     0.002 C 
HETATM   12  C   UNL     1      39.804 -15.607   1.841  1.00  0.00     0.002 C 
HETATM   13  C   UNL     1      40.027 -14.104   2.008  1.00  0.00     0.027 C 
HETATM   14  H   UNL     1      38.962 -13.452   4.383  1.00  0.00     0.163 HD
ENDROOT
BRANCH   1  15
HETATM   15  C   UNL     1      41.664 -15.741   6.684  1.00  0.00     0.146 C 
BRANCH  15  16
HETATM   16  C   UNL     1      42.833 -16.069   7.569  1.00  0.00     0.224 C 
HETATM   17  N   UNL     1      43.622 -17.154   7.363  1.00  0.00    -0.327 N 
HETATM   18  H   UNL     1      44.317 -17.250   8.100  1.00  0.00     0.169 HD
HETATM   19  O   UNL     1      43.106 -15.303   8.504  1.00  0.00    -0.273 OA
BRANCH  17  20
HETATM   20  C   UNL     1      43.692 -18.147   6.363  1.00  0.00     0.035 A 
HETATM   21  C   UNL     1      43.965 -17.933   5.010  1.00  0.00     0.036 A 
HETATM   22  C   UNL     1      44.030 -19.007   4.103  1.00  0.00    -0.060 A 
HETATM   23  C   UNL     1      44.345 -18.776   2.653  1.00  0.00     0.048 C 
HETATM   24  C   UNL     1      43.828 -20.310   4.565  1.00  0.00     0.007 A 
HETATM   25  C   UNL     1      43.561 -20.539   5.909  1.00  0.00     0.003 A 
HETATM   26  C   UNL     1      43.499 -19.466   6.800  1.00  0.00     0.029 A 
ENDBRANCH  17  20
ENDBRANCH  15  16
ENDBRANCH   1  15
TORSDOF 3
ENDMDL
MODEL 2
REMARK VINA RESULT:      -8.0      2.210      3.102
REMARK  3 active torsions:
REMARK  status: ('A' for Active; 'I' for Inactive)
REMARK    1  A    between atoms: C_4  and  N_5 
REMARK       I    between atoms: N_5  and  C_6 
REMARK    2  A    between atoms: C_6  and  C_7 
REMARK    3  A    between atoms: C_7  and  C_8 
ROOT
HETATM    1  C   UNL     1      40.670 -15.452   3.572  1.00  0.00     0.286 C 
HETATM    2  N   UNL     1      40.348 -14.335   4.565  1.00  0.00    -0.056 N 
HETATM    3  H   UNL     1      39.528 -14.644   5.101  1.00  0.00     0.278 HD
HETATM    4  H   UNL     1      41.109 -14.314   5.277  1.00  0.00     0.278 HD
HETATM    5  C   UNL     1      40.063 -12.967   4.019  1.00  0.00     0.209 C 
HETATM    6  C   UNL     1      39.048 -13.080   2.858  1.00  0.00     0.115 C 
HETATM    7  N   UNL     1      39.416 -14.106   1.887  1.00  0.00    -0.353 N 
HETATM    8  C   UNL     1      39.909 -15.337   2.242  1.00  0.00     0.249 C 
HETATM    9  O   UNL     1      39.822 -16.280   1.463  1.00  0.00    -0.271 OA
HETATM   10  C   UNL     1      41.358 -12.251   3.637  1.00  0.00     0.035 C 
HETATM   11  C   UNL     1      41.068 -10.894   3.001  1.00  0.00     0.002 C 
HETATM   12  C   UNL     1      40.144 -11.039   1.794  1.00  0.00     0.002 C 
HETATM   13  C   UNL     1      38.832 -11.725   2.172  1.00  0.00     0.027 C 
HETATM   14  H   UNL     1      38.894 -14.143   1.012  1.00  0.00     0.163 HD
ENDROOT
BRANCH   1  15
HETATM   15  C   UNL     1      42.168 -15.589   3.254  1.00  0.00     0.146 C 
BRANCH  15  16
HETATM   16  C   UNL     1      43.038 -15.558   4.478  1.00  0.00     0.224 C 
HETATM   17  N   UNL     1      43.612 -16.675   4.994  1.00  0.00    -0.327 N 
HETATM   18  H   UNL     1      44.106 -16.470   5.860  1.00  0.00     0.169 HD
HETATM   19  O   UNL     1      43.266 -14.467   5.020  1.00  0.00    -0.273 OA
BRANCH  17  20
HETATM   20  C   UNL     1      43.679 -18.025   4.591  1.00  0.00     0.035 A 
HETATM   21  C   UNL     1      43.637 -18.494   3.276  1.00  0.00     0.036 A 
HETATM   22  C   UNL     1      43.733 -19.868   2.990  1.00  0.00    -0.060 A 
HETATM   23  C   UNL     1      43.710 -20.366   1.574  1.00  0.00     0.048 C 
HETATM   24  C   UNL     1      43.881 -20.779   4.038  1.00  0.00     0.007 A 
HETATM   25  C   UNL     1      43.930 -20.328   5.352  1.00  0.00     0.003 A 
HETATM   26  C   UNL     1      43.834 -18.962   5.624  1.00  0.00     0.029 A 
ENDBRANCH  17  20
ENDBRANCH  15  16
ENDBRANCH   1  15
TORSDOF 3
ENDMDL
MODEL 3
REMARK VINA RESULT:      -7.7      2.812      4.773
REMARK  3 active torsions:
REMARK  status: ('A' for Active; 'I' for Inactive)
REMARK    1  A    between atoms: C_4  and  N_5 
REMARK       I    between atoms: N_5  and  C_6 
REMARK    2  A    between atoms: C_6  and  C_7 
REMARK    3  A    between atoms: C_7  and  C_8 
ROOT
HETATM    1  C   UNL     1      41.336 -12.607   3.095  1.00  0.00     0.286 C 
HETATM    2  N   UNL     1      40.924 -12.895   4.538  1.00  0.00    -0.056 N 
HETATM    3  H   UNL     1      40.069 -12.354   4.716  1.00  0.00     0.278 HD
HETATM    4  H   UNL     1      40.599 -13.884   4.584  1.00  0.00     0.278 HD
HETATM    5  C   UNL     1      41.909 -12.587   5.628  1.00  0.00     0.209 C 
HETATM    6  C   UNL     1      42.478 -11.165   5.416  1.00  0.00     0.115 C 
HETATM    7  N   UNL     1      42.929 -10.938   4.046  1.00  0.00    -0.353 N 
HETATM    8  C   UNL     1      42.233 -11.368   2.944  1.00  0.00     0.249 C 
HETATM    9  O   UNL     1      42.414 -10.829   1.857  1.00  0.00    -0.271 OA
HETATM   10  C   UNL     1      42.981 -13.672   5.719  1.00  0.00     0.035 C 
HETATM   11  C   UNL     1      44.032 -13.318   6.767  1.00  0.00     0.002 C 
HETATM   12  C   UNL     1      44.655 -11.953   6.482  1.00  0.00     0.002 C 
HETATM   13  C   UNL     1      43.594 -10.855   6.421  1.00  0.00     0.027 C 
HETATM   14  H   UNL     1      43.460 -10.090   3.853  1.00  0.00     0.163 HD
ENDROOT
BRANCH   1  15
HETATM   15  C   UNL     1      42.031 -13.787   2.398  1.00  0.00     0.146 C 
BRANCH  15  16
HETATM   16  C   UNL     1      41.076 -14.861   1.961  1.00  0.00     0.224 C 
HETATM   17  N   UNL     1      41.275 -16.174   2.243  1.00  0.00    -0.327 N 
HETATM   18  H   UNL     1      40.563 -16.757   1.808  1.00  0.00     0.169 HD
HETATM   19  O   UNL     1      40.051 -14.533   1.347  1.00  0.00    -0.273 OA
BRANCH  17  20
HETATM   20  C   UNL     1      42.227 -16.887   3.001  1.00  0.00     0.035 A 
HETATM   21  C   UNL     1      42.425 -16.783   4.379  1.00  0.00     0.036 A 
HETATM   22  C   UNL     1      43.396 -17.561   5.036  1.00  0.00    -0.060 A 
HETATM   23  C   UNL     1      43.590 -17.462   6.522  1.00  0.00     0.048 C 
HETATM   24  C   UNL     1      44.170 -18.460   4.299  1.00  0.00     0.007 A 
HETATM   25  C   UNL     1      43.981 -18.579   2.927  1.00  0.00     0.003 A 
HETATM   26  C   UNL     1      43.015 -17.801   2.286  1.00  0.00     0.029 A 
ENDBRANCH  17  20
ENDBRANCH  15  16
ENDBRANCH   1  15
TORSDOF 3
ENDMDL
MODEL 4
REMARK VINA RESULT:      -7.7      3.423      6.083
REMARK  3 active torsions:
REMARK  status: ('A' for Active; 'I' for Inactive)
REMARK    1  A    between atoms: C_4  and  N_5 
REMARK       I    between atoms: N_5  and  C_6 
REMARK    2  A    between atoms: C_6  and  C_7 
REMARK    3  A    between atoms: C_7  and  C_8 
ROOT
HETATM    1  C   UNL     1      40.763 -14.380   5.650  1.00  0.00     0.286 C 
HETATM    2  N   UNL     1      40.284 -14.211   4.208  1.00  0.00    -0.056 N 
HETATM    3  H   UNL     1      39.299 -14.505   4.188  1.00  0.00     0.278 HD
HETATM    4  H   UNL     1      40.237 -13.190   4.006  1.00  0.00     0.278 HD
HETATM    5  C   UNL     1      41.016 -14.955   3.130  1.00  0.00     0.209 C 
HETATM    6  C   UNL     1      41.197 -16.430   3.557  1.00  0.00     0.115 C 
HETATM    7  N   UNL     1      41.722 -16.562   4.913  1.00  0.00    -0.353 N 
HETATM    8  C   UNL     1      41.301 -15.785   5.962  1.00  0.00     0.249 C 
HETATM    9  O   UNL     1      41.452 -16.179   7.115  1.00  0.00    -0.271 OA
HETATM   10  C   UNL     1      42.324 -14.252   2.773  1.00  0.00     0.035 C 
HETATM   11  C   UNL     1      43.113 -15.051   1.739  1.00  0.00     0.002 C 
HETATM   12  C   UNL     1      43.369 -16.476   2.224  1.00  0.00     0.002 C 
HETATM   13  C   UNL     1      42.064 -17.199   2.553  1.00  0.00     0.027 C 
HETATM   14  H   UNL     1      42.021 -17.487   5.220  1.00  0.00     0.163 HD
ENDROOT
BRANCH   1  15
HETATM   15  C   UNL     1      41.829 -13.356   6.074  1.00  0.00     0.146 C 
BRANCH  15  16
HETATM   16  C   UNL     1      41.314 -11.946   6.106  1.00  0.00     0.224 C 
HETATM   17  N   UNL     1      42.032 -10.917   6.624  1.00  0.00    -0.327 N 
HETATM   18  H   UNL     1      41.496 -10.053   6.621  1.00  0.00     0.169 HD
HETATM   19  O   UNL     1      40.202 -11.706   5.612  1.00  0.00    -0.273 OA
BRANCH  17  20
HETATM   20  C   UNL     1      43.338 -10.789   7.142  1.00  0.00     0.035 A 
HETATM   21  C   UNL     1      43.674 -10.362   8.429  1.00  0.00     0.036 A 
HETATM   22  C   UNL     1      45.015 -10.291   8.845  1.00  0.00    -0.060 A 
HETATM   23  C   UNL     1      45.371  -9.853  10.237  1.00  0.00     0.048 C 
HETATM   24  C   UNL     1      46.030 -10.664   7.961  1.00  0.00     0.007 A 
HETATM   25  C   UNL     1      45.712 -11.097   6.679  1.00  0.00     0.003 A 
HETATM   26  C   UNL     1      44.377 -11.162   6.277  1.00  0.00     0.029 A 
ENDBRANCH  17  20
ENDBRANCH  15  16
ENDBRANCH   1  15
TORSDOF 3
ENDMDL
MODEL 5
REMARK VINA RESULT:      -7.6      2.396      4.345
REMARK  3 active torsions:
REMARK  status: ('A' for Active; 'I' for Inactive)
REMARK    1  A    between atoms: C_4  and  N_5 
REMARK       I    between atoms: N_5  and  C_6 
REMARK    2  A    between atoms: C_6  and  C_7 
REMARK    3  A    between atoms: C_7  and  C_8 
ROOT
HETATM    1  C   UNL     1      40.530 -14.010   3.494  1.00  0.00     0.286 C 
HETATM    2  N   UNL     1      39.966 -13.927   4.912  1.00  0.00    -0.056 N 
HETATM    3  H   UNL     1      39.572 -12.984   5.018  1.00  0.00     0.278 HD
HETATM    4  H   UNL     1      39.130 -14.546   4.958  1.00  0.00     0.278 HD
HETATM    5  C   UNL     1      40.902 -14.175   6.059  1.00  0.00     0.209 C 
HETATM    6  C   UNL     1      42.194 -13.351   5.853  1.00  0.00     0.115 C 
HETATM    7  N   UNL     1      42.751 -13.504   4.512  1.00  0.00    -0.353 N 
HETATM    8  C   UNL     1      41.983 -13.521   3.376  1.00  0.00     0.249 C 
HETATM    9  O   UNL     1      42.487 -13.247   2.291  1.00  0.00    -0.271 OA
HETATM   10  C   UNL     1      41.148 -15.671   6.248  1.00  0.00     0.035 C 
HETATM   11  C   UNL     1      42.166 -15.923   7.357  1.00  0.00     0.002 C 
HETATM   12  C   UNL     1      43.472 -15.181   7.084  1.00  0.00     0.002 C 
HETATM   13  C   UNL     1      43.240 -13.679   6.925  1.00  0.00     0.027 C 
HETATM   14  H   UNL     1      43.681 -13.126   4.338  1.00  0.00     0.163 HD
ENDROOT
BRANCH   1  15
HETATM   15  C   UNL     1      40.449 -15.415   2.873  1.00  0.00     0.146 C 
BRANCH  15  16
HETATM   16  C   UNL     1      41.256 -15.552   1.614  1.00  0.00     0.224 C 
HETATM   17  N   UNL     1      42.350 -16.351   1.532  1.00  0.00    -0.327 N 
HETATM   18  H   UNL     1      42.805 -16.263   0.626  1.00  0.00     0.169 HD
HETATM   19  O   UNL     1      40.892 -14.936   0.602  1.00  0.00    -0.273 OA
BRANCH  17  20
HETATM   20  C   UNL     1      42.971 -17.266   2.408  1.00  0.00     0.035 A 
HETATM   21  C   UNL     1      43.083 -18.645   2.213  1.00  0.00     0.036 A 
HETATM   22  C   UNL     1      43.744 -19.461   3.149  1.00  0.00    -0.060 A 
HETATM   23  C   UNL     1      43.881 -20.939   2.924  1.00  0.00     0.048 C 
HETATM   24  C   UNL     1      44.307 -18.883   4.289  1.00  0.00     0.007 A 
HETATM   25  C   UNL     1      44.209 -17.511   4.494  1.00  0.00     0.003 A 
HETATM   26  C   UNL     1      43.550 -16.712   3.559  1.00  0.00     0.029 A 
ENDBRANCH  17  20
ENDBRANCH  15  16
ENDBRANCH   1  15
TORSDOF 3
ENDMDL
MODEL 6
REMARK VINA RESULT:      -7.5      3.707      5.612
REMARK  3 active torsions:
REMARK  status: ('A' for Active; 'I' for Inactive)
REMARK    1  A    between atoms: C_4  and  N_5 
REMARK       I    between atoms: N_5  and  C_6 
REMARK    2  A    between atoms: C_6  and  C_7 
REMARK    3  A    between atoms: C_7  and  C_8 
ROOT
HETATM    1  C   UNL     1      39.916 -11.298   1.002  1.00  0.00     0.286 C 
HETATM    2  N   UNL     1      40.473 -11.047  -0.399  1.00  0.00    -0.056 N 
HETATM    3  H   UNL     1      40.302 -10.056  -0.611  1.00  0.00     0.278 HD
HETATM    4  H   UNL     1      41.511 -11.108  -0.344  1.00  0.00     0.278 HD
HETATM    5  C   UNL     1      39.930 -11.869  -1.531  1.00  0.00     0.209 C 
HETATM    6  C   UNL     1      38.385 -11.872  -1.467  1.00  0.00     0.115 C 
HETATM    7  N   UNL     1      37.879 -12.184  -0.133  1.00  0.00    -0.353 N 
HETATM    8  C   UNL     1      38.426 -11.676   1.018  1.00  0.00     0.249 C 
HETATM    9  O   UNL     1      37.757 -11.627   2.045  1.00  0.00    -0.271 OA
HETATM   10  C   UNL     1      40.550 -13.265  -1.539  1.00  0.00     0.035 C 
HETATM   11  C   UNL     1      39.937 -14.132  -2.635  1.00  0.00     0.002 C 
HETATM   12  C   UNL     1      38.418 -14.205  -2.494  1.00  0.00     0.002 C 
HETATM   13  C   UNL     1      37.785 -12.815  -2.518  1.00  0.00     0.027 C 
HETATM   14  H   UNL     1      36.880 -12.364  -0.033  1.00  0.00     0.163 HD
ENDROOT
BRANCH   1  15
HETATM   15  C   UNL     1      40.687 -12.366   1.796  1.00  0.00     0.146 C 
BRANCH  15  16
HETATM   16  C   UNL     1      42.081 -11.941   2.158  1.00  0.00     0.224 C 
HETATM   17  N   UNL     1      43.013 -12.813   2.620  1.00  0.00    -0.327 N 
HETATM   18  H   UNL     1      43.873 -12.333   2.876  1.00  0.00     0.169 HD
HETATM   19  O   UNL     1      42.403 -10.754   2.000  1.00  0.00    -0.273 OA
BRANCH  17  20
HETATM   20  C   UNL     1      43.050 -14.211   2.805  1.00  0.00     0.035 A 
HETATM   21  C   UNL     1      42.837 -14.886   4.008  1.00  0.00     0.036 A 
HETATM   22  C   UNL     1      42.879 -16.291   4.071  1.00  0.00    -0.060 A 
HETATM   23  C   UNL     1      42.627 -17.015   5.363  1.00  0.00     0.048 C 
HETATM   24  C   UNL     1      43.128 -17.024   2.909  1.00  0.00     0.007 A 
HETATM   25  C   UNL     1      43.336 -16.367   1.702  1.00  0.00     0.003 A 
HETATM   26  C   UNL     1      43.293 -14.972   1.652  1.00  0.00     0.029 A 
ENDBRANCH  17  20
ENDBRANCH  15  16
ENDBRANCH   1  15
TORSDOF 3
ENDMDL
MODEL 7
REMARK VINA RESULT:      -7.3      3.180      7.175
REMARK  3 active torsions:
REMARK  status: ('A' for Active; 'I' for Inactive)
REMARK    1  A    between atoms: C_4  and  N_5 
REMARK       I    between atoms: N_5  and  C_6 
REMARK    2  A    between atoms: C_6  and  C_7 
REMARK    3  A    between atoms: C_7  and  C_8 
ROOT
HETATM    1  C   UNL     1      39.456 -13.374   3.125  1.00  0.00     0.286 C 
HETATM    2  N   UNL     1      39.334 -14.618   2.246  1.00  0.00    -0.056 N 
HETATM    3  H   UNL     1      38.489 -15.116   2.554  1.00  0.00     0.278 HD
HETATM    4  H   UNL     1      39.092 -14.303   1.282  1.00  0.00     0.278 HD
HETATM    5  C   UNL     1      40.475 -15.592   2.240  1.00  0.00     0.209 C 
HETATM    6  C   UNL     1      40.895 -15.898   3.696  1.00  0.00     0.115 C 
HETATM    7  N   UNL     1      41.073 -14.690   4.495  1.00  0.00    -0.353 N 
HETATM    8  C   UNL     1      40.222 -13.615   4.435  1.00  0.00     0.249 C 
HETATM    9  O   UNL     1      40.165 -12.826   5.373  1.00  0.00    -0.271 OA
HETATM   10  C   UNL     1      41.619 -15.087   1.362  1.00  0.00     0.035 C 
HETATM   11  C   UNL     1      42.816 -16.033   1.422  1.00  0.00     0.002 C 
HETATM   12  C   UNL     1      43.279 -16.243   2.861  1.00  0.00     0.002 C 
HETATM   13  C   UNL     1      42.150 -16.778   3.741  1.00  0.00     0.027 C 
HETATM   14  H   UNL     1      41.500 -14.786   5.416  1.00  0.00     0.163 HD
ENDROOT
BRANCH   1  15
HETATM   15  C   UNL     1      40.095 -12.170   2.414  1.00  0.00     0.146 C 
BRANCH  15  16
HETATM   16  C   UNL     1      39.087 -11.263   1.767  1.00  0.00     0.224 C 
HETATM   17  N   UNL     1      38.881 -11.239   0.426  1.00  0.00    -0.327 N 
HETATM   18  H   UNL     1      38.213 -10.517   0.167  1.00  0.00     0.169 HD
HETATM   19  O   UNL     1      38.395 -10.530   2.489  1.00  0.00    -0.273 OA
BRANCH  17  20
HETATM   20  C   UNL     1      39.373 -11.992  -0.661  1.00  0.00     0.035 A 
HETATM   21  C   UNL     1      38.824 -13.177  -1.155  1.00  0.00     0.036 A 
HETATM   22  C   UNL     1      39.391 -13.835  -2.262  1.00  0.00    -0.060 A 
HETATM   23  C   UNL     1      38.784 -15.097  -2.805  1.00  0.00     0.048 C 
HETATM   24  C   UNL     1      40.516 -13.290  -2.884  1.00  0.00     0.007 A 
HETATM   25  C   UNL     1      41.070 -12.108  -2.407  1.00  0.00     0.003 A 
HETATM   26  C   UNL     1      40.500 -11.464  -1.308  1.00  0.00     0.029 A 
ENDBRANCH  17  20
ENDBRANCH  15  16
ENDBRANCH   1  15
TORSDOF 3
ENDMDL
MODEL 8
REMARK VINA RESULT:      -7.3      3.137      4.630
REMARK  3 active torsions:
REMARK  status: ('A' for Active; 'I' for Inactive)
REMARK    1  A    between atoms: C_4  and  N_5 
REMARK       I    between atoms: N_5  and  C_6 
REMARK    2  A    between atoms: C_6  and  C_7 
REMARK    3  A    between atoms: C_7  and  C_8 
ROOT
HETATM    1  C   UNL     1      40.043 -13.795   1.691  1.00  0.00     0.286 C 
HETATM    2  N   UNL     1      39.544 -12.466   1.124  1.00  0.00    -0.056 N 
HETATM    3  H   UNL     1      38.558 -12.378   1.402  1.00  0.00     0.278 HD
HETATM    4  H   UNL     1      40.013 -11.699   1.651  1.00  0.00     0.278 HD
HETATM    5  C   UNL     1      39.633 -12.253  -0.358  1.00  0.00     0.209 C 
HETATM    6  C   UNL     1      39.067 -13.493  -1.089  1.00  0.00     0.115 C 
HETATM    7  N   UNL     1      39.613 -14.746  -0.575  1.00  0.00    -0.353 N 
HETATM    8  C   UNL     1      39.799 -14.994   0.761  1.00  0.00     0.249 C 
HETATM    9  O   UNL     1      39.867 -16.150   1.166  1.00  0.00    -0.271 OA
HETATM   10  C   UNL     1      41.058 -11.891  -0.774  1.00  0.00     0.035 C 
HETATM   11  C   UNL     1      41.171 -11.759  -2.290  1.00  0.00     0.002 C 
HETATM   12  C   UNL     1      40.702 -13.032  -2.989  1.00  0.00     0.002 C 
HETATM   13  C   UNL     1      39.266 -13.386  -2.605  1.00  0.00     0.027 C 
HETATM   14  H   UNL     1      39.419 -15.599  -1.098  1.00  0.00     0.163 HD
ENDROOT
BRANCH   1  15
HETATM   15  C   UNL     1      41.531 -13.786   2.078  1.00  0.00     0.146 C 
BRANCH  15  16
HETATM   16  C   UNL     1      41.768 -13.379   3.504  1.00  0.00     0.224 C 
HETATM   17  N   UNL     1      42.313 -14.218   4.421  1.00  0.00    -0.327 N 
HETATM   18  H   UNL     1      42.333 -13.793   5.346  1.00  0.00     0.169 HD
HETATM   19  O   UNL     1      41.484 -12.223   3.849  1.00  0.00    -0.273 OA
BRANCH  17  20
HETATM   20  C   UNL     1      42.857 -15.519   4.368  1.00  0.00     0.035 A 
HETATM   21  C   UNL     1      42.678 -16.443   3.336  1.00  0.00     0.036 A 
HETATM   22  C   UNL     1      43.288 -17.710   3.381  1.00  0.00    -0.060 A 
HETATM   23  C   UNL     1      43.112 -18.692   2.259  1.00  0.00     0.048 C 
HETATM   24  C   UNL     1      44.094 -18.047   4.470  1.00  0.00     0.007 A 
HETATM   25  C   UNL     1      44.287 -17.136   5.502  1.00  0.00     0.003 A 
HETATM   26  C   UNL     1      43.676 -15.882   5.447  1.00  0.00     0.029 A 
ENDBRANCH  17  20
ENDBRANCH  15  16
ENDBRANCH   1  15
TORSDOF 3
ENDMDL
MODEL 9
REMARK VINA RESULT:      -7.2     13.941     16.099
REMARK  3 active torsions:
REMARK  status: ('A' for Active; 'I' for Inactive)
REMARK    1  A    between atoms: C_4  and  N_5 
REMARK       I    between atoms: N_5  and  C_6 
REMARK    2  A    between atoms: C_6  and  C_7 
REMARK    3  A    between atoms: C_7  and  C_8 
ROOT
HETATM    1  C   UNL     1      47.969 -28.999   1.009  1.00  0.00     0.286 C 
HETATM    2  N   UNL     1      48.072 -28.443   2.429  1.00  0.00    -0.056 N 
HETATM    3  H   UNL     1      48.479 -27.502   2.349  1.00  0.00     0.278 HD
HETATM    4  H   UNL     1      47.104 -28.260   2.769  1.00  0.00     0.278 HD
HETATM    5  C   UNL     1      48.875 -29.216   3.433  1.00  0.00     0.209 C 
HETATM    6  C   UNL     1      50.239 -29.598   2.814  1.00  0.00     0.115 C 
HETATM    7  N   UNL     1      50.108 -30.191   1.487  1.00  0.00    -0.353 N 
HETATM    8  C   UNL     1      49.241 -29.721   0.534  1.00  0.00     0.249 C 
HETATM    9  O   UNL     1      49.440 -29.967  -0.651  1.00  0.00    -0.271 OA
HETATM   10  C   UNL     1      48.083 -30.411   3.962  1.00  0.00     0.035 C 
HETATM   11  C   UNL     1      48.927 -31.249   4.918  1.00  0.00     0.002 C 
HETATM   12  C   UNL     1      50.225 -31.702   4.254  1.00  0.00     0.002 C 
HETATM   13  C   UNL     1      51.040 -30.511   3.750  1.00  0.00     0.027 C 
HETATM   14  H   UNL     1      50.937 -30.616   1.071  1.00  0.00     0.163 HD
ENDROOT
BRANCH   1  15
HETATM   15  C   UNL     1      46.776 -29.945   0.796  1.00  0.00     0.146 C 
BRANCH  15  16
HETATM   16  C   UNL     1      45.448 -29.282   1.026  1.00  0.00     0.224 C 
HETATM   17  N   UNL     1      44.652 -28.871   0.007  1.00  0.00    -0.327 N 
HETATM   18  H   UNL     1      43.828 -28.384   0.355  1.00  0.00     0.169 HD
HETATM   19  O   UNL     1      45.050 -29.133   2.190  1.00  0.00    -0.273 OA
BRANCH  17  20
HETATM   20  C   UNL     1      44.712 -28.981  -1.398  1.00  0.00     0.035 A 
HETATM   21  C   UNL     1      44.374 -30.109  -2.149  1.00  0.00     0.036 A 
HETATM   22  C   UNL     1      44.454 -30.098  -3.554  1.00  0.00    -0.060 A 
HETATM   23  C   UNL     1      44.068 -31.306  -4.359  1.00  0.00     0.048 C 
HETATM   24  C   UNL     1      44.870 -28.938  -4.210  1.00  0.00     0.007 A 
HETATM   25  C   UNL     1      45.204 -27.805  -3.476  1.00  0.00     0.003 A 
HETATM   26  C   UNL     1      45.121 -27.828  -2.083  1.00  0.00     0.029 A 
ENDBRANCH  17  20
ENDBRANCH  15  16
ENDBRANCH   1  15
TORSDOF 3
ENDMDL
MODEL 10
REMARK VINA RESULT:      -7.2      1.909      5.886
REMARK  3 active torsions:
REMARK  status: ('A' for Active; 'I' for Inactive)
REMARK    1  A    between atoms: C_4  and  N_5 
REMARK       I    between atoms: N_5  and  C_6 
REMARK    2  A    between atoms: C_6  and  C_7 
REMARK    3  A    between atoms: C_7  and  C_8 
ROOT
HETATM    1  C   UNL     1      41.498 -14.294   6.121  1.00  0.00     0.286 C 
HETATM    2  N   UNL     1      40.643 -15.493   5.715  1.00  0.00    -0.056 N 
HETATM    3  H   UNL     1      40.436 -16.015   6.576  1.00  0.00     0.278 HD
HETATM    4  H   UNL     1      39.710 -15.134   5.420  1.00  0.00     0.278 HD
HETATM    5  C   UNL     1      41.207 -16.455   4.710  1.00  0.00     0.209 C 
HETATM    6  C   UNL     1      42.652 -16.828   5.115  1.00  0.00     0.115 C 
HETATM    7  N   UNL     1      43.468 -15.660   5.430  1.00  0.00    -0.353 N 
HETATM    8  C   UNL     1      43.005 -14.592   6.157  1.00  0.00     0.249 C 
HETATM    9  O   UNL     1      43.798 -13.852   6.730  1.00  0.00    -0.271 OA
HETATM   10  C   UNL     1      41.090 -15.895   3.293  1.00  0.00     0.035 C 
HETATM   11  C   UNL     1      41.741 -16.831   2.278  1.00  0.00     0.002 C 
HETATM   12  C   UNL     1      43.198 -17.107   2.640  1.00  0.00     0.002 C 
HETATM   13  C   UNL     1      43.324 -17.697   4.044  1.00  0.00     0.027 C 
HETATM   14  H   UNL     1      44.471 -15.798   5.552  1.00  0.00     0.163 HD
ENDROOT
BRANCH   1  15
HETATM   15  C   UNL     1      41.279 -13.049   5.245  1.00  0.00     0.146 C 
BRANCH  15  16
HETATM   16  C   UNL     1      39.829 -12.720   5.038  1.00  0.00     0.224 C 
HETATM   17  N   UNL     1      39.305 -12.468   3.811  1.00  0.00    -0.327 N 
HETATM   18  H   UNL     1      38.326 -12.197   3.875  1.00  0.00     0.169 HD
HETATM   19  O   UNL     1      39.074 -12.708   6.021  1.00  0.00    -0.273 OA
BRANCH  17  20
HETATM   20  C   UNL     1      39.811 -12.511   2.495  1.00  0.00     0.035 A 
HETATM   21  C   UNL     1      39.565 -13.512   1.552  1.00  0.00     0.036 A 
HETATM   22  C   UNL     1      40.110 -13.441   0.257  1.00  0.00    -0.060 A 
HETATM   23  C   UNL     1      39.824 -14.508  -0.761  1.00  0.00     0.048 C 
HETATM   24  C   UNL     1      40.902 -12.347  -0.097  1.00  0.00     0.007 A 
HETATM   25  C   UNL     1      41.151 -11.340   0.828  1.00  0.00     0.003 A 
HETATM   26  C   UNL     1      40.606 -11.421   2.111  1.00  0.00     0.029 A 
ENDBRANCH  17  20
ENDBRANCH  15  16
ENDBRANCH   1  15
TORSDOF 3
ENDMDL
