MODEL 1
REMARK VINA RESULT:      -8.8      0.000      0.000
REMARK  7 active torsions:
REMARK  status: ('A' for Active; 'I' for Inactive)
REMARK    1  A    between atoms: C_4  and  C_5 
REMARK    2  A    between atoms: C_5  and  N_6 
REMARK       I    between atoms: N_6  and  C_7 
REMARK    3  A    between atoms: N_6  and  C_22 
REMARK    4  A    between atoms: C_7  and  C_8 
REMARK    5  A    between atoms: C_13  and  C_14 
REMARK    6  A    between atoms: C_15  and  O_16 
REMARK    7  A    between atoms: C_22  and  C_23 
ROOT
HETATM    1  N   UNL     1      43.531 -12.873   6.510  1.00  0.00    -0.343 N 
HETATM    2  C   UNL     1      42.819 -12.667   5.334  1.00  0.00     0.235 C 
HETATM    3  O   UNL     1      43.278 -11.971   4.417  1.00  0.00    -0.272 OA
ENDROOT
BRANCH   2   4
HETATM    4  C   UNL     1      41.466 -13.307   5.142  1.00  0.00     0.195 C 
HETATM    5  C   UNL     1      40.331 -12.400   5.515  1.00  0.00     0.247 C 
HETATM    6  O   UNL     1      40.283 -11.588   6.424  1.00  0.00    -0.271 OA
HETATM    7  N   UNL     1      39.298 -12.661   4.629  1.00  0.00    -0.290 N 
HETATM    8  N   UNL     1      39.680 -13.490   3.569  1.00  0.00    -0.228 NA
HETATM    9  H   UNL     1      38.427 -12.139   4.669  1.00  0.00     0.183 HD
HETATM   10  C   UNL     1      41.164 -13.511   3.647  1.00  0.00     0.134 C 
HETATM   11  H   UNL     1      39.408 -13.073   2.673  1.00  0.00     0.147 HD
BRANCH  10  12
HETATM   12  C   UNL     1      41.798 -14.776   3.107  1.00  0.00    -0.004 A 
HETATM   13  C   UNL     1      41.269 -16.050   3.371  1.00  0.00     0.073 A 
HETATM   14  C   UNL     1      41.862 -17.197   2.838  1.00  0.00     0.037 A 
HETATM   15  C   UNL     1      42.986 -17.097   2.022  1.00  0.00     0.003 A 
HETATM   16  C   UNL     1      43.520 -15.846   1.736  1.00  0.00     0.001 A 
HETATM   17  C   UNL     1      42.929 -14.699   2.269  1.00  0.00     0.012 A 
BRANCH  13  18
HETATM   18  O   UNL     1      40.167 -16.286   4.145  1.00  0.00    -0.360 OA
HETATM   19  H   UNL     1      39.976 -15.564   4.774  1.00  0.00     0.217 HD
ENDBRANCH  13  18
ENDBRANCH  10  12
ENDBRANCH   2   4
BRANCH   1  20
HETATM   20  C   UNL     1      44.831 -12.203   6.631  1.00  0.00     0.164 C 
BRANCH  20  21
HETATM   21  C   UNL     1      44.762 -10.912   7.410  1.00  0.00    -0.040 A 
HETATM   22  C   UNL     1      45.936 -10.221   7.748  1.00  0.00     0.009 A 
HETATM   23  C   UNL     1      45.871  -8.996   8.414  1.00  0.00     0.001 A 
HETATM   24  C   UNL     1      44.634  -8.447   8.748  1.00  0.00     0.000 A 
HETATM   25  C   UNL     1      43.461  -9.119   8.414  1.00  0.00     0.001 A 
HETATM   26  C   UNL     1      43.524 -10.339   7.740  1.00  0.00     0.009 A 
ENDBRANCH  20  21
ENDBRANCH   1  20
BRANCH   1  27
HETATM   27  C   UNL     1      43.316 -14.012   7.411  1.00  0.00     0.164 C 
BRANCH  27  28
HETATM   28  C   UNL     1      43.470 -15.394   6.826  1.00  0.00    -0.040 A 
HETATM   29  C   UNL     1      42.471 -16.357   7.060  1.00  0.00     0.009 A 
HETATM   30  C   UNL     1      42.569 -17.638   6.516  1.00  0.00     0.001 A 
HETATM   31  C   UNL     1      43.659 -17.971   5.718  1.00  0.00     0.000 A 
HETATM   32  C   UNL     1      44.643 -17.021   5.455  1.00  0.00     0.001 A 
HETATM   33  C   UNL     1      44.544 -15.738   5.997  1.00  0.00     0.009 A 
ENDBRANCH  27  28
ENDBRANCH   1  27
TORSDOF 7
ENDMDL
MODEL 2
REMARK VINA RESULT:      -8.6      2.882      6.435
REMARK  7 active torsions:
REMARK  status: ('A' for Active; 'I' for Inactive)
REMARK    1  A    between atoms: C_4  and  C_5 
REMARK    2  A    between atoms: C_5  and  N_6 
REMARK       I    between atoms: N_6  and  C_7 
REMARK    3  A    between atoms: N_6  and  C_22 
REMARK    4  A    between atoms: C_7  and  C_8 
REMARK    5  A    between atoms: C_13  and  C_14 
REMARK    6  A    between atoms: C_15  and  O_16 
REMARK    7  A    between atoms: C_22  and  C_23 
ROOT
HETATM    1  N   UNL     1      41.519 -14.201   1.793  1.00  0.00    -0.343 N 
HETATM    2  C   UNL     1      41.141 -13.332   2.810  1.00  0.00     0.235 C 
HETATM    3  O   UNL     1      39.950 -13.174   3.111  1.00  0.00    -0.272 OA
ENDROOT
BRANCH   2   4
HETATM    4  C   UNL     1      42.187 -12.570   3.587  1.00  0.00     0.195 C 
HETATM    5  C   UNL     1      42.351 -11.156   3.115  1.00  0.00     0.247 C 
HETATM    6  O   UNL     1      42.287 -10.731   1.973  1.00  0.00    -0.271 OA
HETATM    7  N   UNL     1      42.615 -10.385   4.235  1.00  0.00    -0.290 N 
HETATM    8  N   UNL     1      42.439 -11.081   5.435  1.00  0.00    -0.228 NA
HETATM    9  H   UNL     1      42.735  -9.379   4.164  1.00  0.00     0.183 HD
HETATM   10  C   UNL     1      41.718 -12.317   5.031  1.00  0.00     0.134 C 
HETATM   11  H   UNL     1      41.838 -10.549   6.072  1.00  0.00     0.147 HD
BRANCH  10  12
HETATM   12  C   UNL     1      41.974 -13.509   5.929  1.00  0.00    -0.004 A 
HETATM   13  C   UNL     1      40.963 -14.423   6.265  1.00  0.00     0.073 A 
HETATM   14  C   UNL     1      41.235 -15.528   7.075  1.00  0.00     0.037 A 
HETATM   15  C   UNL     1      42.523 -15.751   7.555  1.00  0.00     0.003 A 
HETATM   16  C   UNL     1      43.544 -14.868   7.224  1.00  0.00     0.001 A 
HETATM   17  C   UNL     1      43.272 -13.762   6.416  1.00  0.00     0.012 A 
BRANCH  13  18
HETATM   18  O   UNL     1      39.662 -14.326   5.854  1.00  0.00    -0.360 OA
HETATM   19  H   UNL     1      39.201 -13.544   6.212  1.00  0.00     0.217 HD
ENDBRANCH  13  18
ENDBRANCH  10  12
ENDBRANCH   2   4
BRANCH   1  20
HETATM   20  C   UNL     1      40.446 -14.893   1.070  1.00  0.00     0.164 C 
BRANCH  20  21
HETATM   21  C   UNL     1      40.151 -14.285  -0.279  1.00  0.00    -0.040 A 
HETATM   22  C   UNL     1      40.689 -13.038  -0.631  1.00  0.00     0.009 A 
HETATM   23  C   UNL     1      40.468 -12.503  -1.902  1.00  0.00     0.001 A 
HETATM   24  C   UNL     1      39.709 -13.208  -2.834  1.00  0.00     0.000 A 
HETATM   25  C   UNL     1      39.175 -14.450  -2.501  1.00  0.00     0.001 A 
HETATM   26  C   UNL     1      39.403 -14.990  -1.234  1.00  0.00     0.009 A 
ENDBRANCH  20  21
ENDBRANCH   1  20
BRANCH   1  27
HETATM   27  C   UNL     1      42.853 -14.807   1.684  1.00  0.00     0.164 C 
BRANCH  27  28
HETATM   28  C   UNL     1      43.087 -16.098   2.428  1.00  0.00    -0.040 A 
HETATM   29  C   UNL     1      43.031 -17.316   1.727  1.00  0.00     0.009 A 
HETATM   30  C   UNL     1      43.264 -18.529   2.378  1.00  0.00     0.001 A 
HETATM   31  C   UNL     1      43.572 -18.539   3.736  1.00  0.00     0.000 A 
HETATM   32  C   UNL     1      43.656 -17.339   4.437  1.00  0.00     0.001 A 
HETATM   33  C   UNL     1      43.425 -16.126   3.785  1.00  0.00     0.009 A 
ENDBRANCH  27  28
ENDBRANCH   1  27
TORSDOF 7
ENDMDL
MODEL 3
REMARK VINA RESULT:      -8.3      3.275      7.019
REMARK  7 active torsions:
REMARK  status: ('A' for Active; 'I' for Inactive)
REMARK    1  A    between atoms: C_4  and  C_5 
REMARK    2  A    between atoms: C_5  and  N_6 
REMARK       I    between atoms: N_6  and  C_7 
REMARK    3  A    between atoms: N_6  and  C_22 
REMARK    4  A    between atoms: C_7  and  C_8 
REMARK    5  A    between atoms: C_13  and  C_14 
REMARK    6  A    between atoms: C_15  and  O_16 
REMARK    7  A    between atoms: C_22  and  C_23 
ROOT
HETATM    1  N   UNL     1      41.947 -15.936   2.927  1.00  0.00    -0.343 N 
HETATM    2  C   UNL     1      42.138 -15.009   3.944  1.00  0.00     0.235 C 
HETATM    3  O   UNL     1      43.276 -14.658   4.290  1.00  0.00    -0.272 OA
ENDROOT
BRANCH   2   4
HETATM    4  C   UNL     1      40.953 -14.391   4.643  1.00  0.00     0.195 C 
HETATM    5  C   UNL     1      40.651 -15.036   5.963  1.00  0.00     0.247 C 
HETATM    6  O   UNL     1      40.746 -16.214   6.266  1.00  0.00    -0.271 OA
HETATM    7  N   UNL     1      40.211 -14.032   6.811  1.00  0.00    -0.290 N 
HETATM    8  N   UNL     1      40.382 -12.750   6.280  1.00  0.00    -0.228 NA
HETATM    9  H   UNL     1      39.974 -14.229   7.779  1.00  0.00     0.183 HD
HETATM   10  C   UNL     1      41.278 -12.962   5.113  1.00  0.00     0.134 C 
HETATM   11  H   UNL     1      40.864 -12.146   6.953  1.00  0.00     0.147 HD
BRANCH  10  12
HETATM   12  C   UNL     1      41.105 -11.946   4.002  1.00  0.00    -0.004 A 
HETATM   13  C   UNL     1      42.200 -11.376   3.333  1.00  0.00     0.073 A 
HETATM   14  C   UNL     1      42.008 -10.461   2.295  1.00  0.00     0.037 A 
HETATM   15  C   UNL     1      40.722 -10.106   1.895  1.00  0.00     0.003 A 
HETATM   16  C   UNL     1      39.623 -10.667   2.534  1.00  0.00     0.001 A 
HETATM   17  C   UNL     1      39.813 -11.581   3.573  1.00  0.00     0.012 A 
BRANCH  13  18
HETATM   18  O   UNL     1      43.510 -11.646   3.619  1.00  0.00    -0.360 OA
HETATM   19  H   UNL     1      43.695 -11.682   4.577  1.00  0.00     0.217 HD
ENDBRANCH  13  18
ENDBRANCH  10  12
ENDBRANCH   2   4
BRANCH   1  20
HETATM   20  C   UNL     1      43.148 -16.507   2.307  1.00  0.00     0.164 C 
BRANCH  20  21
HETATM   21  C   UNL     1      43.453 -17.907   2.781  1.00  0.00    -0.040 A 
HETATM   22  C   UNL     1      44.007 -18.124   4.051  1.00  0.00     0.009 A 
HETATM   23  C   UNL     1      44.231 -19.422   4.515  1.00  0.00     0.001 A 
HETATM   24  C   UNL     1      43.904 -20.516   3.716  1.00  0.00     0.000 A 
HETATM   25  C   UNL     1      43.348 -20.315   2.455  1.00  0.00     0.001 A 
HETATM   26  C   UNL     1      43.115 -19.019   1.994  1.00  0.00     0.009 A 
ENDBRANCH  20  21
ENDBRANCH   1  20
BRANCH   1  27
HETATM   27  C   UNL     1      40.711 -16.052   2.143  1.00  0.00     0.164 C 
BRANCH  27  28
HETATM   28  C   UNL     1      40.539 -15.106   0.981  1.00  0.00    -0.040 A 
HETATM   29  C   UNL     1      39.638 -15.435  -0.048  1.00  0.00     0.009 A 
HETATM   30  C   UNL     1      39.437 -14.573  -1.128  1.00  0.00     0.001 A 
HETATM   31  C   UNL     1      40.123 -13.364  -1.187  1.00  0.00     0.000 A 
HETATM   32  C   UNL     1      41.000 -13.013  -0.163  1.00  0.00     0.001 A 
HETATM   33  C   UNL     1      41.199 -13.873   0.919  1.00  0.00     0.009 A 
ENDBRANCH  27  28
ENDBRANCH   1  27
TORSDOF 7
ENDMDL
MODEL 4
REMARK VINA RESULT:      -8.0      2.098      6.435
REMARK  7 active torsions:
REMARK  status: ('A' for Active; 'I' for Inactive)
REMARK    1  A    between atoms: C_4  and  C_5 
REMARK    2  A    between atoms: C_5  and  N_6 
REMARK       I    between atoms: N_6  and  C_7 
REMARK    3  A    between atoms: N_6  and  C_22 
REMARK    4  A    between atoms: C_7  and  C_8 
REMARK    5  A    between atoms: C_13  and  C_14 
REMARK    6  A    between atoms: C_15  and  O_16 
REMARK    7  A    between atoms: C_22  and  C_23 
ROOT
HETATM    1  N   UNL     1      42.374 -14.792   3.968  1.00  0.00    -0.343 N 
HETATM    2  C   UNL     1      41.029 -14.680   3.636  1.00  0.00     0.235 C 
HETATM    3  O   UNL     1      40.182 -15.446   4.116  1.00  0.00    -0.272 OA
ENDROOT
BRANCH   2   4
HETATM    4  C   UNL     1      40.568 -13.601   2.687  1.00  0.00     0.195 C 
HETATM    5  C   UNL     1      40.220 -14.128   1.327  1.00  0.00     0.247 C 
HETATM    6  O   UNL     1      40.764 -15.026   0.705  1.00  0.00    -0.271 OA
HETATM    7  N   UNL     1      39.146 -13.383   0.868  1.00  0.00    -0.290 N 
HETATM    8  N   UNL     1      38.593 -12.555   1.850  1.00  0.00    -0.228 NA
HETATM    9  H   UNL     1      38.714 -13.582  -0.030  1.00  0.00     0.183 HD
HETATM   10  C   UNL     1      39.199 -13.045   3.116  1.00  0.00     0.134 C 
HETATM   11  H   UNL     1      37.579 -12.690   1.902  1.00  0.00     0.147 HD
BRANCH  10  12
HETATM   12  C   UNL     1      39.327 -11.989   4.194  1.00  0.00    -0.004 A 
HETATM   13  C   UNL     1      39.346 -12.313   5.560  1.00  0.00     0.073 A 
HETATM   14  C   UNL     1      39.491 -11.320   6.531  1.00  0.00     0.037 A 
HETATM   15  C   UNL     1      39.634  -9.985   6.160  1.00  0.00     0.003 A 
HETATM   16  C   UNL     1      39.632  -9.641   4.814  1.00  0.00     0.001 A 
HETATM   17  C   UNL     1      39.486 -10.634   3.842  1.00  0.00     0.012 A 
BRANCH  13  18
HETATM   18  O   UNL     1      39.226 -13.582   6.058  1.00  0.00    -0.360 OA
HETATM   19  H   UNL     1      39.087 -14.256   5.365  1.00  0.00     0.217 HD
ENDBRANCH  13  18
ENDBRANCH  10  12
ENDBRANCH   2   4
BRANCH   1  20
HETATM   20  C   UNL     1      42.749 -15.878   4.882  1.00  0.00     0.164 C 
BRANCH  20  21
HETATM   21  C   UNL     1      43.185 -17.133   4.166  1.00  0.00    -0.040 A 
HETATM   22  C   UNL     1      43.943 -18.107   4.834  1.00  0.00     0.009 A 
HETATM   23  C   UNL     1      44.294 -19.296   4.192  1.00  0.00     0.001 A 
HETATM   24  C   UNL     1      43.891 -19.525   2.877  1.00  0.00     0.000 A 
HETATM   25  C   UNL     1      43.134 -18.569   2.204  1.00  0.00     0.001 A 
HETATM   26  C   UNL     1      42.775 -17.384   2.848  1.00  0.00     0.009 A 
ENDBRANCH  20  21
ENDBRANCH   1  20
BRANCH   1  27
HETATM   27  C   UNL     1      43.344 -13.695   3.852  1.00  0.00     0.164 C 
BRANCH  27  28
HETATM   28  C   UNL     1      43.422 -12.720   4.999  1.00  0.00    -0.040 A 
HETATM   29  C   UNL     1      43.026 -11.385   4.797  1.00  0.00     0.009 A 
HETATM   30  C   UNL     1      43.064 -10.460   5.841  1.00  0.00     0.001 A 
HETATM   31  C   UNL     1      43.485 -10.859   7.106  1.00  0.00     0.000 A 
HETATM   32  C   UNL     1      43.857 -12.182   7.328  1.00  0.00     0.001 A 
HETATM   33  C   UNL     1      43.816 -13.109   6.284  1.00  0.00     0.009 A 
ENDBRANCH  27  28
ENDBRANCH   1  27
TORSDOF 7
ENDMDL
MODEL 5
REMARK VINA RESULT:      -7.9      2.251      6.813
REMARK  7 active torsions:
REMARK  status: ('A' for Active; 'I' for Inactive)
REMARK    1  A    between atoms: C_4  and  C_5 
REMARK    2  A    between atoms: C_5  and  N_6 
REMARK       I    between atoms: N_6  and  C_7 
REMARK    3  A    between atoms: N_6  and  C_22 
REMARK    4  A    between atoms: C_7  and  C_8 
REMARK    5  A    between atoms: C_13  and  C_14 
REMARK    6  A    between atoms: C_15  and  O_16 
REMARK    7  A    between atoms: C_22  and  C_23 
ROOT
HETATM    1  N   UNL     1      42.869 -12.822   6.411  1.00  0.00    -0.343 N 
HETATM    2  C   UNL     1      43.363 -11.528   6.526  1.00  0.00     0.235 C 
HETATM    3  O   UNL     1      42.833 -10.581   5.927  1.00  0.00    -0.272 OA
ENDROOT
BRANCH   2   4
HETATM    4  C   UNL     1      44.557 -11.245   7.404  1.00  0.00     0.195 C 
HETATM    5  C   UNL     1      45.828 -11.074   6.626  1.00  0.00     0.247 C 
HETATM    6  O   UNL     1      46.181 -11.667   5.620  1.00  0.00    -0.271 OA
HETATM    7  N   UNL     1      46.572 -10.103   7.277  1.00  0.00    -0.290 N 
HETATM    8  N   UNL     1      45.858  -9.448   8.285  1.00  0.00    -0.228 NA
HETATM    9  H   UNL     1      47.469  -9.796   6.912  1.00  0.00     0.183 HD
HETATM   10  C   UNL     1      44.447  -9.850   8.045  1.00  0.00     0.134 C 
HETATM   11  H   UNL     1      45.929  -8.432   8.171  1.00  0.00     0.147 HD
BRANCH  10  12
HETATM   12  C   UNL     1      43.582  -9.862   9.288  1.00  0.00    -0.004 A 
HETATM   13  C   UNL     1      44.044 -10.361  10.516  1.00  0.00     0.073 A 
HETATM   14  C   UNL     1      43.232 -10.336  11.652  1.00  0.00     0.037 A 
HETATM   15  C   UNL     1      41.947  -9.802  11.589  1.00  0.00     0.003 A 
HETATM   16  C   UNL     1      41.472  -9.290  10.388  1.00  0.00     0.001 A 
HETATM   17  C   UNL     1      42.283  -9.316   9.251  1.00  0.00     0.012 A 
BRANCH  13  18
HETATM   18  O   UNL     1      45.285 -10.902  10.716  1.00  0.00    -0.360 OA
HETATM   19  H   UNL     1      45.387 -11.320  11.592  1.00  0.00     0.217 HD
ENDBRANCH  13  18
ENDBRANCH  10  12
ENDBRANCH   2   4
BRANCH   1  20
HETATM   20  C   UNL     1      41.717 -13.022   5.524  1.00  0.00     0.164 C 
BRANCH  20  21
HETATM   21  C   UNL     1      42.035 -13.878   4.323  1.00  0.00    -0.040 A 
HETATM   22  C   UNL     1      41.261 -15.011   4.031  1.00  0.00     0.009 A 
HETATM   23  C   UNL     1      41.515 -15.768   2.886  1.00  0.00     0.001 A 
HETATM   24  C   UNL     1      42.544 -15.401   2.020  1.00  0.00     0.000 A 
HETATM   25  C   UNL     1      43.316 -14.275   2.294  1.00  0.00     0.001 A 
HETATM   26  C   UNL     1      43.057 -13.512   3.433  1.00  0.00     0.009 A 
ENDBRANCH  20  21
ENDBRANCH   1  20
BRANCH   1  27
HETATM   27  C   UNL     1      43.100 -13.880   7.403  1.00  0.00     0.164 C 
BRANCH  27  28
HETATM   28  C   UNL     1      43.370 -15.268   6.880  1.00  0.00    -0.040 A 
HETATM   29  C   UNL     1      42.435 -16.291   7.124  1.00  0.00     0.009 A 
HETATM   30  C   UNL     1      42.642 -17.582   6.636  1.00  0.00     0.001 A 
HETATM   31  C   UNL     1      43.779 -17.867   5.887  1.00  0.00     0.000 A 
HETATM   32  C   UNL     1      44.702 -16.859   5.616  1.00  0.00     0.001 A 
HETATM   33  C   UNL     1      44.494 -15.566   6.101  1.00  0.00     0.009 A 
ENDBRANCH  27  28
ENDBRANCH   1  27
TORSDOF 7
ENDMDL
MODEL 6
REMARK VINA RESULT:      -7.9      2.242      3.111
REMARK  7 active torsions:
REMARK  status: ('A' for Active; 'I' for Inactive)
REMARK    1  A    between atoms: C_4  and  C_5 
REMARK    2  A    between atoms: C_5  and  N_6 
REMARK       I    between atoms: N_6  and  C_7 
REMARK    3  A    between atoms: N_6  and  C_22 
REMARK    4  A    between atoms: C_7  and  C_8 
REMARK    5  A    between atoms: C_13  and  C_14 
REMARK    6  A    between atoms: C_15  and  O_16 
REMARK    7  A    between atoms: C_22  and  C_23 
ROOT
HETATM    1  N   UNL     1      42.541 -12.274   4.824  1.00  0.00    -0.343 N 
HETATM    2  C   UNL     1      41.723 -11.317   4.234  1.00  0.00     0.235 C 
HETATM    3  O   UNL     1      42.198 -10.299   3.710  1.00  0.00    -0.272 OA
ENDROOT
BRANCH   2   4
HETATM    4  C   UNL     1      40.227 -11.508   4.206  1.00  0.00     0.195 C 
HETATM    5  C   UNL     1      39.481 -10.391   4.873  1.00  0.00     0.247 C 
HETATM    6  O   UNL     1      39.802  -9.759   5.866  1.00  0.00    -0.271 OA
HETATM    7  N   UNL     1      38.312 -10.202   4.155  1.00  0.00    -0.290 N 
HETATM    8  N   UNL     1      38.281 -10.919   2.955  1.00  0.00    -0.228 NA
HETATM    9  H   UNL     1      37.654  -9.469   4.406  1.00  0.00     0.183 HD
HETATM   10  C   UNL     1      39.685 -11.372   2.772  1.00  0.00     0.134 C 
HETATM   11  H   UNL     1      38.035 -10.302   2.175  1.00  0.00     0.147 HD
BRANCH  10  12
HETATM   12  C   UNL     1      39.828 -12.658   1.986  1.00  0.00    -0.004 A 
HETATM   13  C   UNL     1      40.380 -12.690   0.695  1.00  0.00     0.073 A 
HETATM   14  C   UNL     1      40.522 -13.896   0.005  1.00  0.00     0.037 A 
HETATM   15  C   UNL     1      40.128 -15.096   0.592  1.00  0.00     0.003 A 
HETATM   16  C   UNL     1      39.591 -15.091   1.874  1.00  0.00     0.001 A 
HETATM   17  C   UNL     1      39.447 -13.886   2.564  1.00  0.00     0.012 A 
BRANCH  13  18
HETATM   18  O   UNL     1      40.815 -11.588   0.011  1.00  0.00    -0.360 OA
HETATM   19  H   UNL     1      40.087 -11.038  -0.336  1.00  0.00     0.217 HD
ENDBRANCH  13  18
ENDBRANCH  10  12
ENDBRANCH   2   4
BRANCH   1  20
HETATM   20  C   UNL     1      43.984 -12.009   4.830  1.00  0.00     0.164 C 
BRANCH  20  21
HETATM   21  C   UNL     1      44.494 -11.525   6.166  1.00  0.00    -0.040 A 
HETATM   22  C   UNL     1      45.850 -11.212   6.339  1.00  0.00     0.009 A 
HETATM   23  C   UNL     1      46.311 -10.705   7.556  1.00  0.00     0.001 A 
HETATM   24  C   UNL     1      45.422 -10.506   8.611  1.00  0.00     0.000 A 
HETATM   25  C   UNL     1      44.072 -10.807   8.451  1.00  0.00     0.001 A 
HETATM   26  C   UNL     1      43.608 -11.304   7.232  1.00  0.00     0.009 A 
ENDBRANCH  20  21
ENDBRANCH   1  20
BRANCH   1  27
HETATM   27  C   UNL     1      42.150 -13.675   5.028  1.00  0.00     0.164 C 
BRANCH  27  28
HETATM   28  C   UNL     1      42.569 -14.668   3.973  1.00  0.00    -0.040 A 
HETATM   29  C   UNL     1      42.327 -16.038   4.182  1.00  0.00     0.009 A 
HETATM   30  C   UNL     1      42.681 -16.984   3.219  1.00  0.00     0.001 A 
HETATM   31  C   UNL     1      43.269 -16.573   2.026  1.00  0.00     0.000 A 
HETATM   32  C   UNL     1      43.492 -15.217   1.794  1.00  0.00     0.001 A 
HETATM   33  C   UNL     1      43.136 -14.271   2.757  1.00  0.00     0.009 A 
ENDBRANCH  27  28
ENDBRANCH   1  27
TORSDOF 7
ENDMDL
MODEL 7
REMARK VINA RESULT:      -7.8      2.035      6.917
REMARK  7 active torsions:
REMARK  status: ('A' for Active; 'I' for Inactive)
REMARK    1  A    between atoms: C_4  and  C_5 
REMARK    2  A    between atoms: C_5  and  N_6 
REMARK       I    between atoms: N_6  and  C_7 
REMARK    3  A    between atoms: N_6  and  C_22 
REMARK    4  A    between atoms: C_7  and  C_8 
REMARK    5  A    between atoms: C_13  and  C_14 
REMARK    6  A    between atoms: C_15  and  O_16 
REMARK    7  A    between atoms: C_22  and  C_23 
ROOT
HETATM    1  N   UNL     1      43.389 -12.621   6.244  1.00  0.00    -0.343 N 
HETATM    2  C   UNL     1      42.287 -11.842   5.912  1.00  0.00     0.235 C 
HETATM    3  O   UNL     1      41.133 -12.231   6.138  1.00  0.00    -0.272 OA
ENDROOT
BRANCH   2   4
HETATM    4  C   UNL     1      42.478 -10.486   5.278  1.00  0.00     0.195 C 
HETATM    5  C   UNL     1      42.342 -10.514   3.784  1.00  0.00     0.247 C 
HETATM    6  O   UNL     1      42.696 -11.389   3.012  1.00  0.00    -0.271 OA
HETATM    7  N   UNL     1      41.737  -9.324   3.412  1.00  0.00    -0.290 N 
HETATM    8  N   UNL     1      41.257  -8.588   4.500  1.00  0.00    -0.228 NA
HETATM    9  H   UNL     1      41.514  -9.130   2.440  1.00  0.00     0.183 HD
HETATM   10  C   UNL     1      41.312  -9.547   5.635  1.00  0.00     0.134 C 
HETATM   11  H   UNL     1      40.280  -8.321   4.348  1.00  0.00     0.147 HD
BRANCH  10  12
HETATM   12  C   UNL     1      41.499  -8.898   6.990  1.00  0.00    -0.004 A 
HETATM   13  C   UNL     1      40.816  -9.343   8.133  1.00  0.00     0.073 A 
HETATM   14  C   UNL     1      41.029  -8.741   9.375  1.00  0.00     0.037 A 
HETATM   15  C   UNL     1      41.936  -7.692   9.506  1.00  0.00     0.003 A 
HETATM   16  C   UNL     1      42.635  -7.244   8.391  1.00  0.00     0.001 A 
HETATM   17  C   UNL     1      42.421  -7.844   7.148  1.00  0.00     0.012 A 
BRANCH  13  18
HETATM   18  O   UNL     1      39.908 -10.366   8.145  1.00  0.00    -0.360 OA
HETATM   19  H   UNL     1      39.817 -10.790   9.020  1.00  0.00     0.217 HD
ENDBRANCH  13  18
ENDBRANCH  10  12
ENDBRANCH   2   4
BRANCH   1  20
HETATM   20  C   UNL     1      43.125 -13.936   6.840  1.00  0.00     0.164 C 
BRANCH  20  21
HETATM   21  C   UNL     1      43.389 -15.081   5.893  1.00  0.00    -0.040 A 
HETATM   22  C   UNL     1      44.158 -16.180   6.303  1.00  0.00     0.009 A 
HETATM   23  C   UNL     1      44.352 -17.268   5.449  1.00  0.00     0.001 A 
HETATM   24  C   UNL     1      43.780 -17.269   4.178  1.00  0.00     0.000 A 
HETATM   25  C   UNL     1      43.009 -16.187   3.761  1.00  0.00     0.001 A 
HETATM   26  C   UNL     1      42.807 -15.103   4.616  1.00  0.00     0.009 A 
ENDBRANCH  20  21
ENDBRANCH   1  20
BRANCH   1  27
HETATM   27  C   UNL     1      44.739 -12.084   6.461  1.00  0.00     0.164 C 
BRANCH  27  28
HETATM   28  C   UNL     1      44.928 -11.143   7.624  1.00  0.00    -0.040 A 
HETATM   29  C   UNL     1      45.862 -10.096   7.519  1.00  0.00     0.009 A 
HETATM   30  C   UNL     1      46.047  -9.192   8.566  1.00  0.00     0.001 A 
HETATM   31  C   UNL     1      45.292  -9.313   9.729  1.00  0.00     0.000 A 
HETATM   32  C   UNL     1      44.346 -10.329   9.838  1.00  0.00     0.001 A 
HETATM   33  C   UNL     1      44.158 -11.232   8.789  1.00  0.00     0.009 A 
ENDBRANCH  27  28
ENDBRANCH   1  27
TORSDOF 7
ENDMDL
MODEL 8
REMARK VINA RESULT:      -7.7      3.223      4.977
REMARK  7 active torsions:
REMARK  status: ('A' for Active; 'I' for Inactive)
REMARK    1  A    between atoms: C_4  and  C_5 
REMARK    2  A    between atoms: C_5  and  N_6 
REMARK       I    between atoms: N_6  and  C_7 
REMARK    3  A    between atoms: N_6  and  C_22 
REMARK    4  A    between atoms: C_7  and  C_8 
REMARK    5  A    between atoms: C_13  and  C_14 
REMARK    6  A    between atoms: C_15  and  O_16 
REMARK    7  A    between atoms: C_22  and  C_23 
ROOT
HETATM    1  N   UNL     1      41.343 -14.277   3.450  1.00  0.00    -0.343 N 
HETATM    2  C   UNL     1      40.369 -13.750   2.610  1.00  0.00     0.235 C 
HETATM    3  O   UNL     1      39.430 -13.075   3.056  1.00  0.00    -0.272 OA
ENDROOT
BRANCH   2   4
HETATM    4  C   UNL     1      40.446 -13.978   1.120  1.00  0.00     0.195 C 
HETATM    5  C   UNL     1      39.807 -15.265   0.691  1.00  0.00     0.247 C 
HETATM    6  O   UNL     1      39.801 -16.335   1.277  1.00  0.00    -0.271 OA
HETATM    7  N   UNL     1      39.215 -15.031  -0.539  1.00  0.00    -0.290 N 
HETATM    8  N   UNL     1      39.199 -13.678  -0.893  1.00  0.00    -0.228 NA
HETATM    9  H   UNL     1      38.691 -15.759  -1.017  1.00  0.00     0.183 HD
HETATM   10  C   UNL     1      39.555 -12.974   0.367  1.00  0.00     0.134 C 
HETATM   11  H   UNL     1      38.255 -13.392  -1.168  1.00  0.00     0.147 HD
BRANCH  10  12
HETATM   12  C   UNL     1      40.248 -11.643   0.162  1.00  0.00    -0.004 A 
HETATM   13  C   UNL     1      41.135 -11.417  -0.903  1.00  0.00     0.073 A 
HETATM   14  C   UNL     1      41.739 -10.170  -1.080  1.00  0.00     0.037 A 
HETATM   15  C   UNL     1      41.462  -9.120  -0.208  1.00  0.00     0.003 A 
HETATM   16  C   UNL     1      40.577  -9.316   0.845  1.00  0.00     0.001 A 
HETATM   17  C   UNL     1      39.973 -10.563   1.025  1.00  0.00     0.012 A 
BRANCH  13  18
HETATM   18  O   UNL     1      41.484 -12.356  -1.833  1.00  0.00    -0.360 OA
HETATM   19  H   UNL     1      42.393 -12.694  -1.718  1.00  0.00     0.217 HD
ENDBRANCH  13  18
ENDBRANCH  10  12
ENDBRANCH   2   4
BRANCH   1  20
HETATM   20  C   UNL     1      41.190 -14.029   4.889  1.00  0.00     0.164 C 
BRANCH  20  21
HETATM   21  C   UNL     1      42.227 -13.082   5.441  1.00  0.00    -0.040 A 
HETATM   22  C   UNL     1      43.190 -13.534   6.355  1.00  0.00     0.009 A 
HETATM   23  C   UNL     1      44.187 -12.674   6.819  1.00  0.00     0.001 A 
HETATM   24  C   UNL     1      44.234 -11.354   6.374  1.00  0.00     0.000 A 
HETATM   25  C   UNL     1      43.288 -10.893   5.461  1.00  0.00     0.001 A 
HETATM   26  C   UNL     1      42.297 -11.755   4.990  1.00  0.00     0.009 A 
ENDBRANCH  20  21
ENDBRANCH   1  20
BRANCH   1  27
HETATM   27  C   UNL     1      42.692 -14.654   3.009  1.00  0.00     0.164 C 
BRANCH  27  28
HETATM   28  C   UNL     1      43.104 -16.092   3.202  1.00  0.00    -0.040 A 
HETATM   29  C   UNL     1      42.985 -16.992   2.127  1.00  0.00     0.009 A 
HETATM   30  C   UNL     1      43.378 -18.325   2.262  1.00  0.00     0.001 A 
HETATM   31  C   UNL     1      43.907 -18.774   3.468  1.00  0.00     0.000 A 
HETATM   32  C   UNL     1      44.054 -17.888   4.533  1.00  0.00     0.001 A 
HETATM   33  C   UNL     1      43.664 -16.554   4.397  1.00  0.00     0.009 A 
ENDBRANCH  27  28
ENDBRANCH   1  27
TORSDOF 7
ENDMDL
MODEL 9
REMARK VINA RESULT:      -7.7      2.327      6.763
REMARK  7 active torsions:
REMARK  status: ('A' for Active; 'I' for Inactive)
REMARK    1  A    between atoms: C_4  and  C_5 
REMARK    2  A    between atoms: C_5  and  N_6 
REMARK       I    between atoms: N_6  and  C_7 
REMARK    3  A    between atoms: N_6  and  C_22 
REMARK    4  A    between atoms: C_7  and  C_8 
REMARK    5  A    between atoms: C_13  and  C_14 
REMARK    6  A    between atoms: C_15  and  O_16 
REMARK    7  A    between atoms: C_22  and  C_23 
ROOT
HETATM    1  N   UNL     1      41.461 -12.815   5.281  1.00  0.00    -0.343 N 
HETATM    2  C   UNL     1      40.170 -12.318   5.418  1.00  0.00     0.235 C 
HETATM    3  O   UNL     1      39.314 -12.925   6.077  1.00  0.00    -0.272 OA
ENDROOT
BRANCH   2   4
HETATM    4  C   UNL     1      39.787 -11.009   4.773  1.00  0.00     0.195 C 
HETATM    5  C   UNL     1      39.032 -11.187   3.490  1.00  0.00     0.247 C 
HETATM    6  O   UNL     1      39.190 -12.043   2.635  1.00  0.00    -0.271 OA
HETATM    7  N   UNL     1      38.096 -10.167   3.428  1.00  0.00    -0.290 N 
HETATM    8  N   UNL     1      37.991  -9.445   4.621  1.00  0.00    -0.228 NA
HETATM    9  H   UNL     1      37.442 -10.101   2.653  1.00  0.00     0.183 HD
HETATM   10  C   UNL     1      38.723 -10.278   5.611  1.00  0.00     0.134 C 
HETATM   11  H   UNL     1      37.012  -9.379   4.914  1.00  0.00     0.147 HD
BRANCH  10  12
HETATM   12  C   UNL     1      39.338  -9.494   6.752  1.00  0.00    -0.004 A 
HETATM   13  C   UNL     1      39.305  -9.953   8.078  1.00  0.00     0.073 A 
HETATM   14  C   UNL     1      39.904  -9.220   9.105  1.00  0.00     0.037 A 
HETATM   15  C   UNL     1      40.558  -8.021   8.829  1.00  0.00     0.003 A 
HETATM   16  C   UNL     1      40.615  -7.554   7.522  1.00  0.00     0.001 A 
HETATM   17  C   UNL     1      40.016  -8.285   6.494  1.00  0.00     0.012 A 
BRANCH  13  18
HETATM   18  O   UNL     1      38.707 -11.114   8.482  1.00  0.00    -0.360 OA
HETATM   19  H   UNL     1      39.274 -11.660   9.060  1.00  0.00     0.217 HD
ENDBRANCH  13  18
ENDBRANCH  10  12
ENDBRANCH   2   4
BRANCH   1  20
HETATM   20  C   UNL     1      41.753 -14.104   5.921  1.00  0.00     0.164 C 
BRANCH  20  21
HETATM   21  C   UNL     1      42.135 -15.182   4.936  1.00  0.00    -0.040 A 
HETATM   22  C   UNL     1      43.335 -15.893   5.089  1.00  0.00     0.009 A 
HETATM   23  C   UNL     1      43.659 -16.932   4.215  1.00  0.00     0.001 A 
HETATM   24  C   UNL     1      42.789 -17.273   3.180  1.00  0.00     0.000 A 
HETATM   25  C   UNL     1      41.593 -16.579   3.021  1.00  0.00     0.001 A 
HETATM   26  C   UNL     1      41.263 -15.546   3.899  1.00  0.00     0.009 A 
ENDBRANCH  20  21
ENDBRANCH   1  20
BRANCH   1  27
HETATM   27  C   UNL     1      42.629 -11.988   4.955  1.00  0.00     0.164 C 
BRANCH  27  28
HETATM   28  C   UNL     1      43.431 -11.439   6.109  1.00  0.00    -0.040 A 
HETATM   29  C   UNL     1      44.812 -11.698   6.173  1.00  0.00     0.009 A 
HETATM   30  C   UNL     1      45.589 -11.188   7.214  1.00  0.00     0.001 A 
HETATM   31  C   UNL     1      44.999 -10.399   8.198  1.00  0.00     0.000 A 
HETATM   32  C   UNL     1      43.638 -10.113   8.134  1.00  0.00     0.001 A 
HETATM   33  C   UNL     1      42.861 -10.621   7.090  1.00  0.00     0.009 A 
ENDBRANCH  27  28
ENDBRANCH   1  27
TORSDOF 7
ENDMDL
MODEL 10
REMARK VINA RESULT:      -7.6      2.490      4.550
REMARK  7 active torsions:
REMARK  status: ('A' for Active; 'I' for Inactive)
REMARK    1  A    between atoms: C_4  and  C_5 
REMARK    2  A    between atoms: C_5  and  N_6 
REMARK       I    between atoms: N_6  and  C_7 
REMARK    3  A    between atoms: N_6  and  C_22 
REMARK    4  A    between atoms: C_7  and  C_8 
REMARK    5  A    between atoms: C_13  and  C_14 
REMARK    6  A    between atoms: C_15  and  O_16 
REMARK    7  A    between atoms: C_22  and  C_23 
ROOT
HETATM    1  N   UNL     1      43.071 -13.262   5.477  1.00  0.00    -0.343 N 
HETATM    2  C   UNL     1      43.013 -14.606   5.826  1.00  0.00     0.235 C 
HETATM    3  O   UNL     1      42.484 -14.974   6.884  1.00  0.00    -0.272 OA
ENDROOT
BRANCH   2   4
HETATM    4  C   UNL     1      43.586 -15.655   4.906  1.00  0.00     0.195 C 
HETATM    5  C   UNL     1      44.499 -16.616   5.609  1.00  0.00     0.247 C 
HETATM    6  O   UNL     1      45.281 -16.385   6.516  1.00  0.00    -0.271 OA
HETATM    7  N   UNL     1      44.309 -17.856   5.021  1.00  0.00    -0.290 N 
HETATM    8  N   UNL     1      43.221 -17.888   4.144  1.00  0.00    -0.228 NA
HETATM    9  H   UNL     1      44.805 -18.677   5.356  1.00  0.00     0.183 HD
HETATM   10  C   UNL     1      42.489 -16.627   4.434  1.00  0.00     0.134 C 
HETATM   11  H   UNL     1      42.606 -18.677   4.365  1.00  0.00     0.147 HD
BRANCH  10  12
HETATM   12  C   UNL     1      41.709 -16.075   3.259  1.00  0.00    -0.004 A 
HETATM   13  C   UNL     1      42.322 -15.759   2.036  1.00  0.00     0.073 A 
HETATM   14  C   UNL     1      41.571 -15.275   0.962  1.00  0.00     0.037 A 
HETATM   15  C   UNL     1      40.193 -15.108   1.081  1.00  0.00     0.003 A 
HETATM   16  C   UNL     1      39.563 -15.427   2.277  1.00  0.00     0.001 A 
HETATM   17  C   UNL     1      40.312 -15.910   3.353  1.00  0.00     0.012 A 
BRANCH  13  18
HETATM   18  O   UNL     1      43.660 -15.885   1.784  1.00  0.00    -0.360 OA
HETATM   19  H   UNL     1      43.853 -16.250   0.899  1.00  0.00     0.217 HD
ENDBRANCH  13  18
ENDBRANCH  10  12
ENDBRANCH   2   4
BRANCH   1  20
HETATM   20  C   UNL     1      42.510 -12.298   6.432  1.00  0.00     0.164 C 
BRANCH  20  21
HETATM   21  C   UNL     1      43.542 -11.354   6.997  1.00  0.00    -0.040 A 
HETATM   22  C   UNL     1      43.153 -10.131   7.564  1.00  0.00     0.009 A 
HETATM   23  C   UNL     1      44.101  -9.284   8.143  1.00  0.00     0.001 A 
HETATM   24  C   UNL     1      45.445  -9.651   8.164  1.00  0.00     0.000 A 
HETATM   25  C   UNL     1      45.844 -10.865   7.610  1.00  0.00     0.001 A 
HETATM   26  C   UNL     1      44.897 -11.716   7.039  1.00  0.00     0.009 A 
ENDBRANCH  20  21
ENDBRANCH   1  20
BRANCH   1  27
HETATM   27  C   UNL     1      43.225 -12.777   4.100  1.00  0.00     0.164 C 
BRANCH  27  28
HETATM   28  C   UNL     1      41.980 -12.305   3.391  1.00  0.00    -0.040 A 
HETATM   29  C   UNL     1      42.077 -11.827   2.072  1.00  0.00     0.009 A 
HETATM   30  C   UNL     1      40.943 -11.403   1.377  1.00  0.00     0.001 A 
HETATM   31  C   UNL     1      39.693 -11.463   1.987  1.00  0.00     0.000 A 
HETATM   32  C   UNL     1      39.578 -11.957   3.284  1.00  0.00     0.001 A 
HETATM   33  C   UNL     1      40.712 -12.384   3.978  1.00  0.00     0.009 A 
ENDBRANCH  27  28
ENDBRANCH   1  27
TORSDOF 7
ENDMDL
