MODEL 1
REMARK VINA RESULT:      -8.0      0.000      0.000
REMARK  7 active torsions:
REMARK  status: ('A' for Active; 'I' for Inactive)
REMARK    1  A    between atoms: C_2  and  O_3 
REMARK    2  A    between atoms: O_3  and  C_4 
REMARK    3  A    between atoms: C_4  and  C_5 
REMARK    4  A    between atoms: C_6  and  C_7 
REMARK    5  A    between atoms: C_18  and  S_19 
REMARK    6  A    between atoms: S_19  and  C_20 
REMARK    7  A    between atoms: C_20  and  C_21 
ROOT
HETATM    1  C   UNL     1      40.995 -12.346   4.674  1.00  0.00     0.070 C 
HETATM    2  C   UNL     1      40.649 -12.872   3.277  1.00  0.00     0.203 C 
HETATM    3  N   UNL     1      41.055 -11.916   2.244  1.00  0.00    -0.082 N 
HETATM    4  C   UNL     1      41.944 -10.901   2.455  1.00  0.00     0.726 A 
HETATM    5  N   UNL     1      42.433 -10.711   3.697  1.00  0.00    -0.192 N 
HETATM    6  N   UNL     1      40.560 -11.888   0.994  1.00  0.00    -0.128 NA
HETATM    7  C   UNL     1      41.248 -10.863   0.480  1.00  0.00     0.226 A 
HETATM    8  N   UNL     1      42.126 -10.244   1.338  1.00  0.00    -0.035 NA
HETATM    9  C   UNL     1      41.897 -11.339   4.824  1.00  0.00     0.037 C 
HETATM   10  C   UNL     1      42.401 -10.821   6.149  1.00  0.00     0.070 C 
HETATM   11  H   UNL     1      43.008  -9.886   3.860  1.00  0.00     0.184 HD
ENDROOT
BRANCH   7  12
HETATM   12  S   UNL     1      40.992 -10.348  -1.159  1.00  0.00    -0.083 SA
BRANCH  12  13
HETATM   13  C   UNL     1      41.356 -11.907  -2.004  1.00  0.00     0.121 C 
BRANCH  13  14
HETATM   14  C   UNL     1      40.086 -12.632  -2.379  1.00  0.00    -0.047 A 
HETATM   15  C   UNL     1      38.878 -11.931  -2.520  1.00  0.00     0.031 A 
HETATM   16  C   UNL     1      37.703 -12.614  -2.836  1.00  0.00     0.034 A 
HETATM   17 CL   UNL     1      36.229 -11.743  -3.010  1.00  0.00    -0.084 Cl
HETATM   18  C   UNL     1      37.712 -13.997  -3.011  1.00  0.00     0.024 A 
HETATM   19  C   UNL     1      38.906 -14.703  -2.866  1.00  0.00     0.002 A 
HETATM   20  C   UNL     1      40.085 -14.025  -2.551  1.00  0.00     0.008 A 
ENDBRANCH  13  14
ENDBRANCH  12  13
ENDBRANCH   7  12
BRANCH   2  21
HETATM   21  C   UNL     1      41.290 -14.232   2.985  1.00  0.00    -0.028 A 
HETATM   22  C   UNL     1      40.484 -15.313   2.593  1.00  0.00     0.011 A 
HETATM   23  C   UNL     1      41.046 -16.565   2.329  1.00  0.00     0.024 A 
HETATM   24  C   UNL     1      42.420 -16.748   2.451  1.00  0.00     0.034 A 
HETATM   25 CL   UNL     1      43.111 -18.290   2.130  1.00  0.00    -0.084 Cl
HETATM   26  C   UNL     1      43.238 -15.690   2.836  1.00  0.00     0.024 A 
HETATM   27  C   UNL     1      42.679 -14.438   3.101  1.00  0.00     0.011 A 
ENDBRANCH   2  21
BRANCH   1  28
HETATM   28  C   UNL     1      40.198 -13.013   5.737  1.00  0.00     0.293 C 
HETATM   29  O   UNL     1      39.056 -12.677   6.016  1.00  0.00    -0.259 OA
BRANCH  28  30
HETATM   30  O   UNL     1      40.917 -13.940   6.412  1.00  0.00    -0.318 OA
BRANCH  30  31
HETATM   31  C   UNL     1      40.381 -15.273   6.414  1.00  0.00     0.174 C 
HETATM   32  C   UNL     1      41.473 -16.289   6.142  1.00  0.00     0.034 C 
ENDBRANCH  30  31
ENDBRANCH  28  30
ENDBRANCH   1  28
TORSDOF 7
ENDMDL
MODEL 2
REMARK VINA RESULT:      -7.7      4.453      8.286
REMARK  7 active torsions:
REMARK  status: ('A' for Active; 'I' for Inactive)
REMARK    1  A    between atoms: C_2  and  O_3 
REMARK    2  A    between atoms: O_3  and  C_4 
REMARK    3  A    between atoms: C_4  and  C_5 
REMARK    4  A    between atoms: C_6  and  C_7 
REMARK    5  A    between atoms: C_18  and  S_19 
REMARK    6  A    between atoms: S_19  and  C_20 
REMARK    7  A    between atoms: C_20  and  C_21 
ROOT
HETATM    1  C   UNL     1      41.632 -10.956   2.856  1.00  0.00     0.070 C 
HETATM    2  C   UNL     1      42.948 -11.652   3.214  1.00  0.00     0.203 C 
HETATM    3  N   UNL     1      43.355 -11.328   4.583  1.00  0.00    -0.082 N 
HETATM    4  C   UNL     1      42.512 -10.808   5.523  1.00  0.00     0.726 A 
HETATM    5  N   UNL     1      41.247 -10.505   5.167  1.00  0.00    -0.192 N 
HETATM    6  N   UNL     1      44.610 -11.447   5.055  1.00  0.00    -0.128 NA
HETATM    7  C   UNL     1      44.437 -11.039   6.317  1.00  0.00     0.226 A 
HETATM    8  N   UNL     1      43.158 -10.660   6.652  1.00  0.00    -0.035 NA
HETATM    9  C   UNL     1      40.826 -10.466   3.836  1.00  0.00     0.037 C 
HETATM   10  C   UNL     1      39.459  -9.868   3.612  1.00  0.00     0.070 C 
HETATM   11  H   UNL     1      40.667 -10.018   5.848  1.00  0.00     0.184 HD
ENDROOT
BRANCH   7  12
HETATM   12  S   UNL     1      45.773 -10.967   7.423  1.00  0.00    -0.083 SA
BRANCH  12  13
HETATM   13  C   UNL     1      45.761  -9.189   7.763  1.00  0.00     0.121 C 
BRANCH  13  14
HETATM   14  C   UNL     1      44.899  -8.870   8.960  1.00  0.00    -0.047 A 
HETATM   15  C   UNL     1      44.060  -7.745   8.957  1.00  0.00     0.031 A 
HETATM   16  C   UNL     1      43.289  -7.441  10.080  1.00  0.00     0.034 A 
HETATM   17 CL   UNL     1      42.261  -6.061  10.063  1.00  0.00    -0.084 Cl
HETATM   18  C   UNL     1      43.346  -8.245  11.217  1.00  0.00     0.024 A 
HETATM   19  C   UNL     1      44.182  -9.361  11.232  1.00  0.00     0.002 A 
HETATM   20  C   UNL     1      44.954  -9.672  10.112  1.00  0.00     0.008 A 
ENDBRANCH  13  14
ENDBRANCH  12  13
ENDBRANCH   7  12
BRANCH   2  21
HETATM   21  C   UNL     1      42.871 -13.174   3.058  1.00  0.00    -0.028 A 
HETATM   22  C   UNL     1      42.124 -13.932   3.976  1.00  0.00     0.011 A 
HETATM   23  C   UNL     1      42.047 -15.322   3.858  1.00  0.00     0.024 A 
HETATM   24  C   UNL     1      42.713 -15.968   2.821  1.00  0.00     0.034 A 
HETATM   25 CL   UNL     1      42.621 -17.680   2.679  1.00  0.00    -0.084 Cl
HETATM   26  C   UNL     1      43.457 -15.237   1.900  1.00  0.00     0.024 A 
HETATM   27  C   UNL     1      43.537 -13.848   2.016  1.00  0.00     0.011 A 
ENDBRANCH   2  21
BRANCH   1  28
HETATM   28  C   UNL     1      41.435 -10.851   1.385  1.00  0.00     0.293 C 
HETATM   29  O   UNL     1      42.046 -10.052   0.692  1.00  0.00    -0.259 OA
BRANCH  28  30
HETATM   30  O   UNL     1      40.439 -11.655   0.944  1.00  0.00    -0.318 OA
BRANCH  30  31
HETATM   31  C   UNL     1      40.806 -12.618  -0.058  1.00  0.00     0.174 C 
HETATM   32  C   UNL     1      40.239 -13.984   0.280  1.00  0.00     0.034 C 
ENDBRANCH  30  31
ENDBRANCH  28  30
ENDBRANCH   1  28
TORSDOF 7
ENDMDL
MODEL 3
REMARK VINA RESULT:      -7.7      3.357      6.625
REMARK  7 active torsions:
REMARK  status: ('A' for Active; 'I' for Inactive)
REMARK    1  A    between atoms: C_2  and  O_3 
REMARK    2  A    between atoms: O_3  and  C_4 
REMARK    3  A    between atoms: C_4  and  C_5 
REMARK    4  A    between atoms: C_6  and  C_7 
REMARK    5  A    between atoms: C_18  and  S_19 
REMARK    6  A    between atoms: S_19  and  C_20 
REMARK    7  A    between atoms: C_20  and  C_21 
ROOT
HETATM    1  C   UNL     1      40.675 -12.669   1.232  1.00  0.00     0.070 C 
HETATM    2  C   UNL     1      42.006 -13.097   1.857  1.00  0.00     0.203 C 
HETATM    3  N   UNL     1      42.179 -12.495   3.181  1.00  0.00    -0.082 N 
HETATM    4  C   UNL     1      41.157 -11.956   3.910  1.00  0.00     0.726 A 
HETATM    5  N   UNL     1      39.925 -11.903   3.364  1.00  0.00    -0.192 N 
HETATM    6  N   UNL     1      43.362 -12.350   3.805  1.00  0.00    -0.128 NA
HETATM    7  C   UNL     1      42.969 -11.769   4.944  1.00  0.00     0.226 A 
HETATM    8  N   UNL     1      41.620 -11.531   5.058  1.00  0.00    -0.035 NA
HETATM    9  C   UNL     1      39.688 -12.147   2.009  1.00  0.00     0.037 C 
HETATM   10  C   UNL     1      38.301 -11.801   1.527  1.00  0.00     0.070 C 
HETATM   11  H   UNL     1      39.201 -11.402   3.875  1.00  0.00     0.184 HD
ENDROOT
BRANCH   7  12
HETATM   12  S   UNL     1      44.123 -11.321   6.162  1.00  0.00    -0.083 SA
BRANCH  12  13
HETATM   13  C   UNL     1      43.668 -12.524   7.437  1.00  0.00     0.121 C 
BRANCH  13  14
HETATM   14  C   UNL     1      43.382 -13.876   6.831  1.00  0.00    -0.047 A 
HETATM   15  C   UNL     1      42.065 -14.352   6.736  1.00  0.00     0.031 A 
HETATM   16  C   UNL     1      41.813 -15.617   6.202  1.00  0.00     0.034 A 
HETATM   17 CL   UNL     1      40.194 -16.188   6.088  1.00  0.00    -0.084 Cl
HETATM   18  C   UNL     1      42.862 -16.423   5.763  1.00  0.00     0.024 A 
HETATM   19  C   UNL     1      44.174 -15.962   5.860  1.00  0.00     0.002 A 
HETATM   20  C   UNL     1      44.433 -14.697   6.391  1.00  0.00     0.008 A 
ENDBRANCH  13  14
ENDBRANCH  12  13
ENDBRANCH   7  12
BRANCH   2  21
HETATM   21  C   UNL     1      42.140 -14.618   1.974  1.00  0.00    -0.028 A 
HETATM   22  C   UNL     1      43.365 -15.236   1.668  1.00  0.00     0.011 A 
HETATM   23  C   UNL     1      43.507 -16.623   1.760  1.00  0.00     0.024 A 
HETATM   24  C   UNL     1      42.429 -17.406   2.161  1.00  0.00     0.034 A 
HETATM   25 CL   UNL     1      42.604 -19.114   2.269  1.00  0.00    -0.084 Cl
HETATM   26  C   UNL     1      41.208 -16.815   2.470  1.00  0.00     0.024 A 
HETATM   27  C   UNL     1      41.062 -15.429   2.379  1.00  0.00     0.011 A 
ENDBRANCH   2  21
BRANCH   1  28
HETATM   28  C   UNL     1      40.669 -12.839  -0.246  1.00  0.00     0.293 C 
HETATM   29  O   UNL     1      41.158 -12.017  -1.007  1.00  0.00    -0.259 OA
BRANCH  28  30
HETATM   30  O   UNL     1      39.974 -13.935  -0.632  1.00  0.00    -0.318 OA
BRANCH  30  31
HETATM   31  C   UNL     1      38.942 -13.713  -1.607  1.00  0.00     0.174 C 
HETATM   32  C   UNL     1      38.967 -14.797  -2.668  1.00  0.00     0.034 C 
ENDBRANCH  30  31
ENDBRANCH  28  30
ENDBRANCH   1  28
TORSDOF 7
ENDMDL
MODEL 4
REMARK VINA RESULT:      -7.6      3.550      6.412
REMARK  7 active torsions:
REMARK  status: ('A' for Active; 'I' for Inactive)
REMARK    1  A    between atoms: C_2  and  O_3 
REMARK    2  A    between atoms: O_3  and  C_4 
REMARK    3  A    between atoms: C_4  and  C_5 
REMARK    4  A    between atoms: C_6  and  C_7 
REMARK    5  A    between atoms: C_18  and  S_19 
REMARK    6  A    between atoms: S_19  and  C_20 
REMARK    7  A    between atoms: C_20  and  C_21 
ROOT
HETATM    1  C   UNL     1      40.704 -11.450   4.960  1.00  0.00     0.070 C 
HETATM    2  C   UNL     1      41.732 -12.375   4.302  1.00  0.00     0.203 C 
HETATM    3  N   UNL     1      42.171 -13.416   5.234  1.00  0.00    -0.082 N 
HETATM    4  C   UNL     1      41.495 -13.751   6.372  1.00  0.00     0.726 A 
HETATM    5  N   UNL     1      40.396 -13.046   6.708  1.00  0.00    -0.192 N 
HETATM    6  N   UNL     1      43.312 -14.118   5.112  1.00  0.00    -0.128 NA
HETATM    7  C   UNL     1      43.229 -14.911   6.185  1.00  0.00     0.226 A 
HETATM    8  N   UNL     1      42.116 -14.734   6.973  1.00  0.00    -0.035 NA
HETATM    9  C   UNL     1      40.053 -11.842   6.088  1.00  0.00     0.037 C 
HETATM   10  C   UNL     1      38.941 -11.070   6.756  1.00  0.00     0.070 C 
HETATM   11  H   UNL     1      39.968 -13.236   7.612  1.00  0.00     0.184 HD
ENDROOT
BRANCH   7  12
HETATM   12  S   UNL     1      44.485 -16.053   6.552  1.00  0.00    -0.083 SA
BRANCH  12  13
HETATM   13  C   UNL     1      43.552 -17.585   6.310  1.00  0.00     0.121 C 
BRANCH  13  14
HETATM   14  C   UNL     1      43.594 -18.025   4.866  1.00  0.00    -0.047 A 
HETATM   15  C   UNL     1      43.327 -17.113   3.833  1.00  0.00     0.031 A 
HETATM   16  C   UNL     1      43.338 -17.537   2.504  1.00  0.00     0.034 A 
HETATM   17 CL   UNL     1      43.013 -16.408   1.246  1.00  0.00    -0.084 Cl
HETATM   18  C   UNL     1      43.608 -18.867   2.186  1.00  0.00     0.024 A 
HETATM   19  C   UNL     1      43.868 -19.781   3.205  1.00  0.00     0.002 A 
HETATM   20  C   UNL     1      43.860 -19.364   4.537  1.00  0.00     0.008 A 
ENDBRANCH  13  14
ENDBRANCH  12  13
ENDBRANCH   7  12
BRANCH   2  21
HETATM   21  C   UNL     1      41.200 -13.033   3.025  1.00  0.00    -0.028 A 
HETATM   22  C   UNL     1      40.224 -14.040   3.115  1.00  0.00     0.011 A 
HETATM   23  C   UNL     1      39.731 -14.660   1.964  1.00  0.00     0.024 A 
HETATM   24  C   UNL     1      40.206 -14.279   0.713  1.00  0.00     0.034 A 
HETATM   25 CL   UNL     1      39.601 -15.046  -0.703  1.00  0.00    -0.084 Cl
HETATM   26  C   UNL     1      41.170 -13.282   0.601  1.00  0.00     0.024 A 
HETATM   27  C   UNL     1      41.666 -12.661   1.749  1.00  0.00     0.011 A 
ENDBRANCH   2  21
BRANCH   1  28
HETATM   28  C   UNL     1      40.599 -10.141   4.263  1.00  0.00     0.293 C 
HETATM   29  O   UNL     1      41.494  -9.310   4.279  1.00  0.00    -0.259 OA
BRANCH  28  30
HETATM   30  O   UNL     1      39.375  -9.949   3.715  1.00  0.00    -0.318 OA
BRANCH  30  31
HETATM   31  C   UNL     1      39.332  -9.883   2.281  1.00  0.00     0.174 C 
HETATM   32  C   UNL     1      38.348 -10.897   1.729  1.00  0.00     0.034 C 
ENDBRANCH  30  31
ENDBRANCH  28  30
ENDBRANCH   1  28
TORSDOF 7
ENDMDL
MODEL 5
REMARK VINA RESULT:      -7.5      3.244      7.476
REMARK  7 active torsions:
REMARK  status: ('A' for Active; 'I' for Inactive)
REMARK    1  A    between atoms: C_2  and  O_3 
REMARK    2  A    between atoms: O_3  and  C_4 
REMARK    3  A    between atoms: C_4  and  C_5 
REMARK    4  A    between atoms: C_6  and  C_7 
REMARK    5  A    between atoms: C_18  and  S_19 
REMARK    6  A    between atoms: S_19  and  C_20 
REMARK    7  A    between atoms: C_20  and  C_21 
ROOT
HETATM    1  C   UNL     1      39.052 -10.107   0.429  1.00  0.00     0.070 C 
HETATM    2  C   UNL     1      39.873 -11.393   0.291  1.00  0.00     0.203 C 
HETATM    3  N   UNL     1      39.858 -12.159   1.539  1.00  0.00    -0.082 N 
HETATM    4  C   UNL     1      38.948 -11.964   2.540  1.00  0.00     0.726 A 
HETATM    5  N   UNL     1      38.049 -10.967   2.417  1.00  0.00    -0.192 N 
HETATM    6  N   UNL     1      40.765 -13.095   1.871  1.00  0.00    -0.128 NA
HETATM    7  C   UNL     1      40.301 -13.474   3.067  1.00  0.00     0.226 A 
HETATM    8  N   UNL     1      39.173 -12.819   3.504  1.00  0.00    -0.035 NA
HETATM    9  C   UNL     1      38.152  -9.973   1.440  1.00  0.00     0.037 C 
HETATM   10  C   UNL     1      37.208  -8.808   1.608  1.00  0.00     0.070 C 
HETATM   11  H   UNL     1      37.452 -10.766   3.216  1.00  0.00     0.184 HD
ENDROOT
BRANCH   7  12
HETATM   12  S   UNL     1      41.121 -14.688   3.999  1.00  0.00    -0.083 SA
BRANCH  12  13
HETATM   13  C   UNL     1      42.299 -15.256   2.748  1.00  0.00     0.121 C 
BRANCH  13  14
HETATM   14  C   UNL     1      42.981 -16.531   3.181  1.00  0.00    -0.047 A 
HETATM   15  C   UNL     1      42.944 -17.674   2.367  1.00  0.00     0.031 A 
HETATM   16  C   UNL     1      43.551 -18.856   2.791  1.00  0.00     0.034 A 
HETATM   17 CL   UNL     1      43.501 -20.250   1.782  1.00  0.00    -0.084 Cl
HETATM   18  C   UNL     1      44.195 -18.920   4.025  1.00  0.00     0.024 A 
HETATM   19  C   UNL     1      44.232 -17.792   4.843  1.00  0.00     0.002 A 
HETATM   20  C   UNL     1      43.628 -16.605   4.425  1.00  0.00     0.008 A 
ENDBRANCH  13  14
ENDBRANCH  12  13
ENDBRANCH   7  12
BRANCH   2  21
HETATM   21  C   UNL     1      39.383 -12.285  -0.853  1.00  0.00    -0.028 A 
HETATM   22  C   UNL     1      40.313 -12.984  -1.641  1.00  0.00     0.011 A 
HETATM   23  C   UNL     1      39.889 -13.797  -2.695  1.00  0.00     0.024 A 
HETATM   24  C   UNL     1      38.530 -13.922  -2.971  1.00  0.00     0.034 A 
HETATM   25 CL   UNL     1      38.009 -14.920  -4.272  1.00  0.00    -0.084 Cl
HETATM   26  C   UNL     1      37.591 -13.241  -2.202  1.00  0.00     0.024 A 
HETATM   27  C   UNL     1      38.013 -12.427  -1.149  1.00  0.00     0.011 A 
ENDBRANCH   2  21
BRANCH   1  28
HETATM   28  C   UNL     1      39.421  -9.093  -0.594  1.00  0.00     0.293 C 
HETATM   29  O   UNL     1      40.434  -8.414  -0.515  1.00  0.00    -0.259 OA
BRANCH  28  30
HETATM   30  O   UNL     1      38.463  -8.947  -1.539  1.00  0.00    -0.318 OA
BRANCH  30  31
HETATM   31  C   UNL     1      38.927  -8.623  -2.860  1.00  0.00     0.174 C 
HETATM   32  C   UNL     1      39.375  -9.874  -3.591  1.00  0.00     0.034 C 
ENDBRANCH  30  31
ENDBRANCH  28  30
ENDBRANCH   1  28
TORSDOF 7
ENDMDL
MODEL 6
REMARK VINA RESULT:      -7.4      3.883      7.950
REMARK  7 active torsions:
REMARK  status: ('A' for Active; 'I' for Inactive)
REMARK    1  A    between atoms: C_2  and  O_3 
REMARK    2  A    between atoms: O_3  and  C_4 
REMARK    3  A    between atoms: C_4  and  C_5 
REMARK    4  A    between atoms: C_6  and  C_7 
REMARK    5  A    between atoms: C_18  and  S_19 
REMARK    6  A    between atoms: S_19  and  C_20 
REMARK    7  A    between atoms: C_20  and  C_21 
ROOT
HETATM    1  C   UNL     1      40.248 -12.242   0.563  1.00  0.00     0.070 C 
HETATM    2  C   UNL     1      41.323 -12.470   1.629  1.00  0.00     0.203 C 
HETATM    3  N   UNL     1      40.911 -11.906   2.916  1.00  0.00    -0.082 N 
HETATM    4  C   UNL     1      39.621 -11.576   3.223  1.00  0.00     0.726 A 
HETATM    5  N   UNL     1      38.672 -11.705   2.273  1.00  0.00    -0.192 N 
HETATM    6  N   UNL     1      41.753 -11.594   3.918  1.00  0.00    -0.128 NA
HETATM    7  C   UNL     1      40.889 -11.137   4.831  1.00  0.00     0.226 A 
HETATM    8  N   UNL     1      39.567 -11.131   4.452  1.00  0.00    -0.035 NA
HETATM    9  C   UNL     1      38.976 -11.926   0.928  1.00  0.00     0.037 C 
HETATM   10  C   UNL     1      37.812 -11.794  -0.023  1.00  0.00     0.070 C 
HETATM   11  H   UNL     1      37.740 -11.353   2.483  1.00  0.00     0.184 HD
ENDROOT
BRANCH   7  12
HETATM   12  S   UNL     1      41.442 -10.556   6.372  1.00  0.00    -0.083 SA
BRANCH  12  13
HETATM   13  C   UNL     1      42.977 -11.509   6.497  1.00  0.00     0.121 C 
BRANCH  13  14
HETATM   14  C   UNL     1      43.969 -10.825   7.405  1.00  0.00    -0.047 A 
HETATM   15  C   UNL     1      43.548 -10.229   8.604  1.00  0.00     0.031 A 
HETATM   16  C   UNL     1      44.468  -9.573   9.422  1.00  0.00     0.034 A 
HETATM   17 CL   UNL     1      43.939  -8.848  10.892  1.00  0.00    -0.084 Cl
HETATM   18  C   UNL     1      45.811  -9.496   9.059  1.00  0.00     0.024 A 
HETATM   19  C   UNL     1      46.238 -10.079   7.867  1.00  0.00     0.002 A 
HETATM   20  C   UNL     1      45.323 -10.739   7.045  1.00  0.00     0.008 A 
ENDBRANCH  13  14
ENDBRANCH  12  13
ENDBRANCH   7  12
BRANCH   2  21
HETATM   21  C   UNL     1      41.665 -13.952   1.815  1.00  0.00    -0.028 A 
HETATM   22  C   UNL     1      43.009 -14.359   1.849  1.00  0.00     0.011 A 
HETATM   23  C   UNL     1      43.344 -15.706   2.009  1.00  0.00     0.024 A 
HETATM   24  C   UNL     1      42.338 -16.659   2.139  1.00  0.00     0.034 A 
HETATM   25 CL   UNL     1      42.751 -18.318   2.332  1.00  0.00    -0.084 Cl
HETATM   26  C   UNL     1      41.000 -16.278   2.111  1.00  0.00     0.024 A 
HETATM   27  C   UNL     1      40.663 -14.933   1.950  1.00  0.00     0.011 A 
ENDBRANCH   2  21
BRANCH   1  28
HETATM   28  C   UNL     1      40.794 -12.347  -0.816  1.00  0.00     0.293 C 
HETATM   29  O   UNL     1      41.361 -11.419  -1.374  1.00  0.00    -0.259 OA
BRANCH  28  30
HETATM   30  O   UNL     1      40.494 -13.531  -1.399  1.00  0.00    -0.318 OA
BRANCH  30  31
HETATM   31  C   UNL     1      39.848 -13.456  -2.680  1.00  0.00     0.174 C 
HETATM   32  C   UNL     1      38.953 -14.661  -2.899  1.00  0.00     0.034 C 
ENDBRANCH  30  31
ENDBRANCH  28  30
ENDBRANCH   1  28
TORSDOF 7
ENDMDL
MODEL 7
REMARK VINA RESULT:      -7.4      2.861      4.542
REMARK  7 active torsions:
REMARK  status: ('A' for Active; 'I' for Inactive)
REMARK    1  A    between atoms: C_2  and  O_3 
REMARK    2  A    between atoms: O_3  and  C_4 
REMARK    3  A    between atoms: C_4  and  C_5 
REMARK    4  A    between atoms: C_6  and  C_7 
REMARK    5  A    between atoms: C_18  and  S_19 
REMARK    6  A    between atoms: S_19  and  C_20 
REMARK    7  A    between atoms: C_20  and  C_21 
ROOT
HETATM    1  C   UNL     1      42.195 -14.728   5.983  1.00  0.00     0.070 C 
HETATM    2  C   UNL     1      42.866 -13.624   5.160  1.00  0.00     0.203 C 
HETATM    3  N   UNL     1      41.991 -13.177   4.075  1.00  0.00    -0.082 N 
HETATM    4  C   UNL     1      40.647 -13.421   4.032  1.00  0.00     0.726 A 
HETATM    5  N   UNL     1      40.091 -14.175   5.001  1.00  0.00    -0.192 N 
HETATM    6  N   UNL     1      42.411 -12.530   2.973  1.00  0.00    -0.128 NA
HETATM    7  C   UNL     1      41.250 -12.356   2.332  1.00  0.00     0.226 A 
HETATM    8  N   UNL     1      40.139 -12.868   2.960  1.00  0.00    -0.035 NA
HETATM    9  C   UNL     1      40.850 -14.919   5.909  1.00  0.00     0.037 C 
HETATM   10  C   UNL     1      40.067 -15.892   6.755  1.00  0.00     0.070 C 
HETATM   11  H   UNL     1      39.113 -14.438   4.896  1.00  0.00     0.184 HD
ENDROOT
BRANCH   7  12
HETATM   12  S   UNL     1      41.193 -11.565   0.787  1.00  0.00    -0.083 SA
BRANCH  12  13
HETATM   13  C   UNL     1      39.400 -11.572   0.534  1.00  0.00     0.121 C 
BRANCH  13  14
HETATM   14  C   UNL     1      39.015 -12.479  -0.609  1.00  0.00    -0.047 A 
HETATM   15  C   UNL     1      37.862 -12.224  -1.367  1.00  0.00     0.031 A 
HETATM   16  C   UNL     1      37.498 -13.086  -2.402  1.00  0.00     0.034 A 
HETATM   17 CL   UNL     1      36.084 -12.760  -3.328  1.00  0.00    -0.084 Cl
HETATM   18  C   UNL     1      38.269 -14.211  -2.692  1.00  0.00     0.024 A 
HETATM   19  C   UNL     1      39.412 -14.477  -1.940  1.00  0.00     0.002 A 
HETATM   20  C   UNL     1      39.783 -13.617  -0.904  1.00  0.00     0.008 A 
ENDBRANCH  13  14
ENDBRANCH  12  13
ENDBRANCH   7  12
BRANCH   2  21
HETATM   21  C   UNL     1      43.269 -12.417   6.013  1.00  0.00    -0.028 A 
HETATM   22  C   UNL     1      44.600 -12.278   6.441  1.00  0.00     0.011 A 
HETATM   23  C   UNL     1      44.987 -11.189   7.226  1.00  0.00     0.024 A 
HETATM   24  C   UNL     1      44.050 -10.226   7.588  1.00  0.00     0.034 A 
HETATM   25 CL   UNL     1      44.527  -8.888   8.558  1.00  0.00    -0.084 Cl
HETATM   26  C   UNL     1      42.727 -10.342   7.173  1.00  0.00     0.024 A 
HETATM   27  C   UNL     1      42.336 -11.430   6.389  1.00  0.00     0.011 A 
ENDBRANCH   2  21
BRANCH   1  28
HETATM   28  C   UNL     1      43.182 -15.531   6.754  1.00  0.00     0.293 C 
HETATM   29  O   UNL     1      43.207 -15.549   7.976  1.00  0.00    -0.259 OA
BRANCH  28  30
HETATM   30  O   UNL     1      44.090 -16.135   5.952  1.00  0.00    -0.318 OA
BRANCH  30  31
HETATM   31  C   UNL     1      43.674 -17.372   5.352  1.00  0.00     0.174 C 
HETATM   32  C   UNL     1      43.485 -17.204   3.856  1.00  0.00     0.034 C 
ENDBRANCH  30  31
ENDBRANCH  28  30
ENDBRANCH   1  28
TORSDOF 7
ENDMDL
MODEL 8
REMARK VINA RESULT:      -7.4      2.829      3.716
REMARK  7 active torsions:
REMARK  status: ('A' for Active; 'I' for Inactive)
REMARK    1  A    between atoms: C_2  and  O_3 
REMARK    2  A    between atoms: O_3  and  C_4 
REMARK    3  A    between atoms: C_4  and  C_5 
REMARK    4  A    between atoms: C_6  and  C_7 
REMARK    5  A    between atoms: C_18  and  S_19 
REMARK    6  A    between atoms: S_19  and  C_20 
REMARK    7  A    between atoms: C_20  and  C_21 
ROOT
HETATM    1  C   UNL     1      41.095 -12.469   4.639  1.00  0.00     0.070 C 
HETATM    2  C   UNL     1      40.706 -13.075   3.288  1.00  0.00     0.203 C 
HETATM    3  N   UNL     1      41.038 -12.164   2.191  1.00  0.00    -0.082 N 
HETATM    4  C   UNL     1      41.905 -11.115   2.311  1.00  0.00     0.726 A 
HETATM    5  N   UNL     1      42.442 -10.848   3.518  1.00  0.00    -0.192 N 
HETATM    6  N   UNL     1      40.489 -12.214   0.964  1.00  0.00    -0.128 NA
HETATM    7  C   UNL     1      41.124 -11.198   0.369  1.00  0.00     0.226 A 
HETATM    8  N   UNL     1      42.019 -10.512   1.154  1.00  0.00    -0.035 NA
HETATM    9  C   UNL     1      41.973 -11.432   4.698  1.00  0.00     0.037 C 
HETATM   10  C   UNL     1      42.518 -10.832   5.971  1.00  0.00     0.070 C 
HETATM   11  H   UNL     1      42.998 -10.001   3.613  1.00  0.00     0.184 HD
ENDROOT
BRANCH   7  12
HETATM   12  S   UNL     1      40.783 -10.775  -1.281  1.00  0.00    -0.083 SA
BRANCH  12  13
HETATM   13  C   UNL     1      40.508  -8.999  -1.064  1.00  0.00     0.121 C 
BRANCH  13  14
HETATM   14  C   UNL     1      41.456  -8.194  -1.919  1.00  0.00    -0.047 A 
HETATM   15  C   UNL     1      42.383  -7.320  -1.331  1.00  0.00     0.031 A 
HETATM   16  C   UNL     1      43.234  -6.557  -2.131  1.00  0.00     0.034 A 
HETATM   17 CL   UNL     1      44.369  -5.491  -1.397  1.00  0.00    -0.084 Cl
HETATM   18  C   UNL     1      43.172  -6.649  -3.520  1.00  0.00     0.024 A 
HETATM   19  C   UNL     1      42.250  -7.509  -4.115  1.00  0.00     0.002 A 
HETATM   20  C   UNL     1      41.397  -8.276  -3.320  1.00  0.00     0.008 A 
ENDBRANCH  13  14
ENDBRANCH  12  13
ENDBRANCH   7  12
BRANCH   2  21
HETATM   21  C   UNL     1      41.373 -14.431   3.036  1.00  0.00    -0.028 A 
HETATM   22  C   UNL     1      40.592 -15.531   2.643  1.00  0.00     0.011 A 
HETATM   23  C   UNL     1      41.179 -16.778   2.416  1.00  0.00     0.024 A 
HETATM   24  C   UNL     1      42.552 -16.939   2.576  1.00  0.00     0.034 A 
HETATM   25 CL   UNL     1      43.272 -18.476   2.300  1.00  0.00    -0.084 Cl
HETATM   26  C   UNL     1      43.345 -15.862   2.961  1.00  0.00     0.024 A 
HETATM   27  C   UNL     1      42.761 -14.615   3.190  1.00  0.00     0.011 A 
ENDBRANCH   2  21
BRANCH   1  28
HETATM   28  C   UNL     1      40.365 -13.102   5.770  1.00  0.00     0.293 C 
HETATM   29  O   UNL     1      39.246 -12.750   6.111  1.00  0.00    -0.259 OA
BRANCH  28  30
HETATM   30  O   UNL     1      41.122 -14.015   6.422  1.00  0.00    -0.318 OA
BRANCH  30  31
HETATM   31  C   UNL     1      40.599 -15.353   6.460  1.00  0.00     0.174 C 
HETATM   32  C   UNL     1      41.719 -16.369   6.347  1.00  0.00     0.034 C 
ENDBRANCH  30  31
ENDBRANCH  28  30
ENDBRANCH   1  28
TORSDOF 7
ENDMDL
MODEL 9
REMARK VINA RESULT:      -7.2      5.141      9.358
REMARK  7 active torsions:
REMARK  status: ('A' for Active; 'I' for Inactive)
REMARK    1  A    between atoms: C_2  and  O_3 
REMARK    2  A    between atoms: O_3  and  C_4 
REMARK    3  A    between atoms: C_4  and  C_5 
REMARK    4  A    between atoms: C_6  and  C_7 
REMARK    5  A    between atoms: C_18  and  S_19 
REMARK    6  A    between atoms: S_19  and  C_20 
REMARK    7  A    between atoms: C_20  and  C_21 
ROOT
HETATM    1  C   UNL     1      41.978 -13.703   6.084  1.00  0.00     0.070 C 
HETATM    2  C   UNL     1      41.843 -12.178   6.116  1.00  0.00     0.203 C 
HETATM    3  N   UNL     1      42.961 -11.570   6.839  1.00  0.00    -0.082 N 
HETATM    4  C   UNL     1      44.135 -12.216   7.106  1.00  0.00     0.726 A 
HETATM    5  N   UNL     1      44.261 -13.510   6.751  1.00  0.00    -0.192 N 
HETATM    6  N   UNL     1      42.944 -10.335   7.373  1.00  0.00    -0.128 NA
HETATM    7  C   UNL     1      44.174 -10.276   7.895  1.00  0.00     0.226 A 
HETATM    8  N   UNL     1      44.946 -11.402   7.733  1.00  0.00    -0.035 NA
HETATM    9  C   UNL     1      43.176 -14.292   6.347  1.00  0.00     0.037 C 
HETATM   10  C   UNL     1      43.456 -15.770   6.232  1.00  0.00     0.070 C 
HETATM   11  H   UNL     1      45.097 -14.006   7.053  1.00  0.00     0.184 HD
ENDROOT
BRANCH   7  12
HETATM   12  S   UNL     1      44.713  -8.866   8.754  1.00  0.00    -0.083 SA
BRANCH  12  13
HETATM   13  C   UNL     1      43.108  -8.255   9.327  1.00  0.00     0.121 C 
BRANCH  13  14
HETATM   14  C   UNL     1      42.870  -8.622  10.772  1.00  0.00    -0.047 A 
HETATM   15  C   UNL     1      43.144  -7.703  11.797  1.00  0.00     0.031 A 
HETATM   16  C   UNL     1      42.949  -8.063  13.131  1.00  0.00     0.034 A 
HETATM   17 CL   UNL     1      43.286  -6.927  14.379  1.00  0.00    -0.084 Cl
HETATM   18  C   UNL     1      42.488  -9.336  13.462  1.00  0.00     0.024 A 
HETATM   19  C   UNL     1      42.220 -10.258  12.452  1.00  0.00     0.002 A 
HETATM   20  C   UNL     1      42.410  -9.904  11.114  1.00  0.00     0.008 A 
ENDBRANCH  13  14
ENDBRANCH  12  13
ENDBRANCH   7  12
BRANCH   2  21
HETATM   21  C   UNL     1      41.755 -11.565   4.715  1.00  0.00    -0.028 A 
HETATM   22  C   UNL     1      42.656 -11.972   3.718  1.00  0.00     0.011 A 
HETATM   23  C   UNL     1      42.599 -11.420   2.435  1.00  0.00     0.024 A 
HETATM   24  C   UNL     1      41.640 -10.457   2.137  1.00  0.00     0.034 A 
HETATM   25 CL   UNL     1      41.574  -9.774   0.559  1.00  0.00    -0.084 Cl
HETATM   26  C   UNL     1      40.736 -10.040   3.109  1.00  0.00     0.024 A 
HETATM   27  C   UNL     1      40.791 -10.590   4.392  1.00  0.00     0.011 A 
ENDBRANCH   2  21
BRANCH   1  28
HETATM   28  C   UNL     1      40.680 -14.376   5.810  1.00  0.00     0.293 C 
HETATM   29  O   UNL     1      39.891 -14.674   6.695  1.00  0.00    -0.259 OA
BRANCH  28  30
HETATM   30  O   UNL     1      40.539 -14.705   4.505  1.00  0.00    -0.318 OA
BRANCH  30  31
HETATM   31  C   UNL     1      40.579 -16.110   4.203  1.00  0.00     0.174 C 
HETATM   32  C   UNL     1      41.502 -16.378   3.030  1.00  0.00     0.034 C 
ENDBRANCH  30  31
ENDBRANCH  28  30
ENDBRANCH   1  28
TORSDOF 7
ENDMDL
MODEL 10
REMARK VINA RESULT:      -6.9      4.660      7.105
REMARK  7 active torsions:
REMARK  status: ('A' for Active; 'I' for Inactive)
REMARK    1  A    between atoms: C_2  and  O_3 
REMARK    2  A    between atoms: O_3  and  C_4 
REMARK    3  A    between atoms: C_4  and  C_5 
REMARK    4  A    between atoms: C_6  and  C_7 
REMARK    5  A    between atoms: C_18  and  S_19 
REMARK    6  A    between atoms: S_19  and  C_20 
REMARK    7  A    between atoms: C_20  and  C_21 
ROOT
HETATM    1  C   UNL     1      40.012 -10.729   5.529  1.00  0.00     0.070 C 
HETATM    2  C   UNL     1      41.104 -11.770   5.792  1.00  0.00     0.203 C 
HETATM    3  N   UNL     1      41.549 -12.388   4.542  1.00  0.00    -0.082 N 
HETATM    4  C   UNL     1      41.314 -11.856   3.305  1.00  0.00     0.726 A 
HETATM    5  N   UNL     1      40.573 -10.734   3.209  1.00  0.00    -0.192 N 
HETATM    6  N   UNL     1      42.183 -13.572   4.458  1.00  0.00    -0.128 NA
HETATM    7  C   UNL     1      42.361 -13.663   3.136  1.00  0.00     0.226 A 
HETATM    8  N   UNL     1      41.862 -12.619   2.393  1.00  0.00    -0.035 NA
HETATM    9  C   UNL     1      39.831 -10.225   4.278  1.00  0.00     0.037 C 
HETATM   10  C   UNL     1      38.871  -9.117   3.923  1.00  0.00     0.070 C 
HETATM   11  H   UNL     1      40.317 -10.413   2.277  1.00  0.00     0.184 HD
ENDROOT
BRANCH   7  12
HETATM   12  S   UNL     1      43.139 -15.047   2.433  1.00  0.00    -0.083 SA
BRANCH  12  13
HETATM   13  C   UNL     1      43.332 -16.051   3.928  1.00  0.00     0.121 C 
BRANCH  13  14
HETATM   14  C   UNL     1      43.431 -17.518   3.589  1.00  0.00    -0.047 A 
HETATM   15  C   UNL     1      43.914 -18.439   4.532  1.00  0.00     0.031 A 
HETATM   16  C   UNL     1      44.030 -19.788   4.198  1.00  0.00     0.034 A 
HETATM   17 CL   UNL     1      44.620 -20.908   5.365  1.00  0.00    -0.084 Cl
HETATM   18  C   UNL     1      43.675 -20.238   2.928  1.00  0.00     0.024 A 
HETATM   19  C   UNL     1      43.202 -19.330   1.982  1.00  0.00     0.002 A 
HETATM   20  C   UNL     1      43.081 -17.979   2.309  1.00  0.00     0.008 A 
ENDBRANCH  13  14
ENDBRANCH  12  13
ENDBRANCH   7  12
BRANCH   2  21
HETATM   21  C   UNL     1      42.316 -11.181   6.522  1.00  0.00    -0.028 A 
HETATM   22  C   UNL     1      43.383 -12.018   6.888  1.00  0.00     0.011 A 
HETATM   23  C   UNL     1      44.495 -11.504   7.561  1.00  0.00     0.024 A 
HETATM   24  C   UNL     1      44.551 -10.149   7.873  1.00  0.00     0.034 A 
HETATM   25 CL   UNL     1      45.918  -9.518   8.706  1.00  0.00    -0.084 Cl
HETATM   26  C   UNL     1      43.506  -9.301   7.517  1.00  0.00     0.024 A 
HETATM   27  C   UNL     1      42.394  -9.812   6.845  1.00  0.00     0.011 A 
ENDBRANCH   2  21
BRANCH   1  28
HETATM   28  C   UNL     1      39.208 -10.439   6.746  1.00  0.00     0.293 C 
HETATM   29  O   UNL     1      38.431 -11.247   7.232  1.00  0.00    -0.259 OA
BRANCH  28  30
HETATM   30  O   UNL     1      39.361  -9.162   7.168  1.00  0.00    -0.318 OA
BRANCH  30  31
HETATM   31  C   UNL     1      39.349  -8.965   8.592  1.00  0.00     0.174 C 
HETATM   32  C   UNL     1      38.979  -7.533   8.930  1.00  0.00     0.034 C 
ENDBRANCH  30  31
ENDBRANCH  28  30
ENDBRANCH   1  28
TORSDOF 7
ENDMDL
