MODEL 1
REMARK VINA RESULT:      -9.5      0.000      0.000
REMARK  4 active torsions:
REMARK  status: ('A' for Active; 'I' for Inactive)
REMARK    1  A    between atoms: O_2  and  C_3 
REMARK    2  A    between atoms: C_4  and  N_5 
REMARK    3  A    between atoms: C_14  and  C_15 
REMARK       I    between atoms: C_15  and  N_16 
REMARK    4  A    between atoms: N_16  and  C_17 
ROOT
HETATM    1  N   UNL     1      42.085 -13.819   3.851  1.00  0.00    -0.221 NA
HETATM    2  C   UNL     1      42.335 -15.015   3.407  1.00  0.00     0.186 C 
HETATM    3  O   UNL     1      43.342 -15.792   3.967  1.00  0.00    -0.290 OA
HETATM    4  C   UNL     1      43.490 -17.149   3.631  1.00  0.00     0.088 A 
HETATM    5  C   UNL     1      42.705 -17.721   2.639  1.00  0.00    -0.001 A 
HETATM    6  C   UNL     1      44.433 -17.889   4.339  1.00  0.00     0.038 A 
HETATM    7  C   UNL     1      44.587 -19.243   4.048  1.00  0.00     0.003 A 
HETATM    8  C   UNL     1      43.806 -19.837   3.054  1.00  0.00     0.001 A 
HETATM    9  C   UNL     1      42.867 -19.077   2.348  1.00  0.00     0.014 A 
HETATM   10  C   UNL     1      41.564 -15.599   2.279  1.00  0.00     0.086 C 
HETATM   11  C   UNL     1      41.749 -16.886   1.933  1.00  0.00     0.035 C 
ENDROOT
BRANCH  10  12
HETATM   12  C   UNL     1      40.562 -14.823   1.461  1.00  0.00     0.260 C 
HETATM   13  N   UNL     1      40.930 -14.606   0.152  1.00  0.00    -0.323 N 
HETATM   14  H   UNL     1      41.848 -14.964  -0.124  1.00  0.00     0.169 HD
HETATM   15  O   UNL     1      39.511 -14.445   1.976  1.00  0.00    -0.267 OA
BRANCH  13  16
HETATM   16  C   UNL     1      40.220 -13.931  -0.860  1.00  0.00     0.035 A 
HETATM   17  C   UNL     1      40.428 -12.597  -1.210  1.00  0.00     0.029 A 
HETATM   18  C   UNL     1      39.676 -12.008  -2.233  1.00  0.00     0.002 A 
HETATM   19  C   UNL     1      38.712 -12.750  -2.913  1.00  0.00     0.000 A 
HETATM   20  C   UNL     1      38.495 -14.081  -2.569  1.00  0.00     0.002 A 
HETATM   21  C   UNL     1      39.245 -14.668  -1.546  1.00  0.00     0.029 A 
ENDBRANCH  13  16
ENDBRANCH  10  12
BRANCH   1  22
HETATM   22  C   UNL     1      42.879 -13.272   4.877  1.00  0.00     0.093 A 
HETATM   23  C   UNL     1      43.632 -12.107   4.632  1.00  0.00     0.097 A 
HETATM   24  C   UNL     1      44.411 -11.553   5.655  1.00  0.00     0.039 A 
HETATM   25  C   UNL     1      44.410 -12.127   6.928  1.00  0.00     0.003 A 
HETATM   26  C   UNL     1      43.630 -13.252   7.188  1.00  0.00     0.002 A 
HETATM   27  C   UNL     1      42.863 -13.815   6.169  1.00  0.00     0.034 A 
BRANCH  23  28
HETATM   28  O   UNL     1      43.568 -11.599   3.356  1.00  0.00    -0.354 OA
HETATM   29  C   UNL     1      42.472 -10.735   3.084  1.00  0.00     0.210 C 
ENDBRANCH  23  28
ENDBRANCH   1  22
TORSDOF 4
ENDMDL
MODEL 2
REMARK VINA RESULT:      -9.5      2.332      6.757
REMARK  4 active torsions:
REMARK  status: ('A' for Active; 'I' for Inactive)
REMARK    1  A    between atoms: O_2  and  C_3 
REMARK    2  A    between atoms: C_4  and  N_5 
REMARK    3  A    between atoms: C_14  and  C_15 
REMARK       I    between atoms: C_15  and  N_16 
REMARK    4  A    between atoms: N_16  and  C_17 
ROOT
HETATM    1  N   UNL     1      42.067 -13.245   4.241  1.00  0.00    -0.221 NA
HETATM    2  C   UNL     1      42.505 -14.463   4.364  1.00  0.00     0.186 C 
HETATM    3  O   UNL     1      42.173 -15.442   3.435  1.00  0.00    -0.290 OA
HETATM    4  C   UNL     1      42.794 -16.703   3.449  1.00  0.00     0.088 A 
HETATM    5  C   UNL     1      43.676 -17.045   4.465  1.00  0.00    -0.001 A 
HETATM    6  C   UNL     1      42.507 -17.574   2.402  1.00  0.00     0.038 A 
HETATM    7  C   UNL     1      43.126 -18.822   2.371  1.00  0.00     0.003 A 
HETATM    8  C   UNL     1      44.017 -19.184   3.384  1.00  0.00     0.001 A 
HETATM    9  C   UNL     1      44.290 -18.299   4.432  1.00  0.00     0.014 A 
HETATM   10  C   UNL     1      43.370 -14.863   5.503  1.00  0.00     0.086 C 
HETATM   11  C   UNL     1      43.921 -16.089   5.531  1.00  0.00     0.035 C 
ENDROOT
BRANCH  10  12
HETATM   12  C   UNL     1      43.677 -13.964   6.676  1.00  0.00     0.260 C 
HETATM   13  N   UNL     1      44.194 -12.733   6.339  1.00  0.00    -0.323 N 
HETATM   14  H   UNL     1      44.343 -12.563   5.341  1.00  0.00     0.169 HD
HETATM   15  O   UNL     1      43.454 -14.352   7.821  1.00  0.00    -0.267 OA
BRANCH  13  16
HETATM   16  C   UNL     1      44.570 -11.676   7.190  1.00  0.00     0.035 A 
HETATM   17  C   UNL     1      43.746 -11.125   8.172  1.00  0.00     0.029 A 
HETATM   18  C   UNL     1      44.206 -10.078   8.977  1.00  0.00     0.002 A 
HETATM   19  C   UNL     1      45.494  -9.574   8.807  1.00  0.00     0.000 A 
HETATM   20  C   UNL     1      46.323 -10.114   7.828  1.00  0.00     0.002 A 
HETATM   21  C   UNL     1      45.863 -11.160   7.024  1.00  0.00     0.029 A 
ENDBRANCH  13  16
ENDBRANCH  10  12
BRANCH   1  22
HETATM   22  C   UNL     1      41.196 -12.917   3.184  1.00  0.00     0.093 A 
HETATM   23  C   UNL     1      39.835 -12.669   3.453  1.00  0.00     0.097 A 
HETATM   24  C   UNL     1      38.969 -12.329   2.406  1.00  0.00     0.039 A 
HETATM   25  C   UNL     1      39.460 -12.192   1.106  1.00  0.00     0.003 A 
HETATM   26  C   UNL     1      40.813 -12.390   0.843  1.00  0.00     0.002 A 
HETATM   27  C   UNL     1      41.677 -12.742   1.880  1.00  0.00     0.034 A 
BRANCH  23  28
HETATM   28  O   UNL     1      39.437 -12.813   4.761  1.00  0.00    -0.354 OA
HETATM   29  C   UNL     1      39.141 -11.610   5.458  1.00  0.00     0.210 C 
ENDBRANCH  23  28
ENDBRANCH   1  22
TORSDOF 4
ENDMDL
MODEL 3
REMARK VINA RESULT:      -9.2      1.693      6.170
REMARK  4 active torsions:
REMARK  status: ('A' for Active; 'I' for Inactive)
REMARK    1  A    between atoms: O_2  and  C_3 
REMARK    2  A    between atoms: C_4  and  N_5 
REMARK    3  A    between atoms: C_14  and  C_15 
REMARK       I    between atoms: C_15  and  N_16 
REMARK    4  A    between atoms: N_16  and  C_17 
ROOT
HETATM    1  N   UNL     1      41.958 -14.281   3.282  1.00  0.00    -0.221 NA
HETATM    2  C   UNL     1      42.404 -15.446   3.648  1.00  0.00     0.186 C 
HETATM    3  O   UNL     1      42.292 -16.552   2.813  1.00  0.00    -0.290 OA
HETATM    4  C   UNL     1      42.941 -17.762   3.113  1.00  0.00     0.088 A 
HETATM    5  C   UNL     1      43.618 -17.923   4.314  1.00  0.00    -0.001 A 
HETATM    6  C   UNL     1      42.892 -18.773   2.156  1.00  0.00     0.038 A 
HETATM    7  C   UNL     1      43.547 -19.977   2.411  1.00  0.00     0.003 A 
HETATM    8  C   UNL     1      44.234 -20.157   3.614  1.00  0.00     0.001 A 
HETATM    9  C   UNL     1      44.268 -19.133   4.566  1.00  0.00     0.014 A 
HETATM   10  C   UNL     1      43.043 -15.650   4.974  1.00  0.00     0.086 C 
HETATM   11  C   UNL     1      43.618 -16.829   5.270  1.00  0.00     0.035 C 
ENDROOT
BRANCH  10  12
HETATM   12  C   UNL     1      43.084 -14.595   6.052  1.00  0.00     0.260 C 
HETATM   13  N   UNL     1      43.430 -13.336   5.614  1.00  0.00    -0.323 N 
HETATM   14  H   UNL     1      43.650 -13.248   4.619  1.00  0.00     0.169 HD
HETATM   15  O   UNL     1      42.812 -14.894   7.214  1.00  0.00    -0.267 OA
BRANCH  13  16
HETATM   16  C   UNL     1      43.547 -12.148   6.362  1.00  0.00     0.035 A 
HETATM   17  C   UNL     1      42.551 -11.175   6.453  1.00  0.00     0.029 A 
HETATM   18  C   UNL     1      42.753 -10.025   7.224  1.00  0.00     0.002 A 
HETATM   19  C   UNL     1      43.952  -9.840   7.910  1.00  0.00     0.000 A 
HETATM   20  C   UNL     1      44.953 -10.804   7.823  1.00  0.00     0.002 A 
HETATM   21  C   UNL     1      44.752 -11.951   7.051  1.00  0.00     0.029 A 
ENDBRANCH  13  16
ENDBRANCH  10  12
BRANCH   1  22
HETATM   22  C   UNL     1      41.300 -14.139   2.046  1.00  0.00     0.093 A 
HETATM   23  C   UNL     1      41.467 -12.957   1.297  1.00  0.00     0.097 A 
HETATM   24  C   UNL     1      40.825 -12.819   0.061  1.00  0.00     0.039 A 
HETATM   25  C   UNL     1      40.055 -13.866  -0.451  1.00  0.00     0.003 A 
HETATM   26  C   UNL     1      39.924 -15.054   0.263  1.00  0.00     0.002 A 
HETATM   27  C   UNL     1      40.551 -15.192   1.502  1.00  0.00     0.034 A 
BRANCH  23  28
HETATM   28  O   UNL     1      42.251 -11.982   1.868  1.00  0.00    -0.354 OA
HETATM   29  C   UNL     1      41.741 -10.657   1.805  1.00  0.00     0.210 C 
ENDBRANCH  23  28
ENDBRANCH   1  22
TORSDOF 4
ENDMDL
MODEL 4
REMARK VINA RESULT:      -9.0      1.793      6.392
REMARK  4 active torsions:
REMARK  status: ('A' for Active; 'I' for Inactive)
REMARK    1  A    between atoms: O_2  and  C_3 
REMARK    2  A    between atoms: C_4  and  N_5 
REMARK    3  A    between atoms: C_14  and  C_15 
REMARK       I    between atoms: C_15  and  N_16 
REMARK    4  A    between atoms: N_16  and  C_17 
ROOT
HETATM    1  N   UNL     1      40.790 -12.942   3.070  1.00  0.00    -0.221 NA
HETATM    2  C   UNL     1      40.311 -13.365   1.938  1.00  0.00     0.186 C 
HETATM    3  O   UNL     1      39.677 -12.496   1.057  1.00  0.00    -0.290 OA
HETATM    4  C   UNL     1      39.333 -12.898  -0.245  1.00  0.00     0.088 A 
HETATM    5  C   UNL     1      39.513 -14.214  -0.649  1.00  0.00    -0.001 A 
HETATM    6  C   UNL     1      38.830 -11.928  -1.107  1.00  0.00     0.038 A 
HETATM    7  C   UNL     1      38.503 -12.287  -2.413  1.00  0.00     0.003 A 
HETATM    8  C   UNL     1      38.677 -13.607  -2.838  1.00  0.00     0.001 A 
HETATM    9  C   UNL     1      39.179 -14.570  -1.957  1.00  0.00     0.014 A 
HETATM   10  C   UNL     1      40.411 -14.793   1.540  1.00  0.00     0.086 C 
HETATM   11  C   UNL     1      40.033 -15.176   0.308  1.00  0.00     0.035 C 
ENDROOT
BRANCH  10  12
HETATM   12  C   UNL     1      40.914 -15.882   2.456  1.00  0.00     0.260 C 
HETATM   13  N   UNL     1      42.153 -16.386   2.126  1.00  0.00    -0.323 N 
HETATM   14  H   UNL     1      42.590 -15.996   1.287  1.00  0.00     0.169 HD
HETATM   15  O   UNL     1      40.230 -16.245   3.411  1.00  0.00    -0.267 OA
BRANCH  13  16
HETATM   16  C   UNL     1      42.894 -17.390   2.778  1.00  0.00     0.035 A 
HETATM   17  C   UNL     1      43.061 -18.687   2.290  1.00  0.00     0.029 A 
HETATM   18  C   UNL     1      43.819 -19.620   3.004  1.00  0.00     0.002 A 
HETATM   19  C   UNL     1      44.416 -19.264   4.212  1.00  0.00     0.000 A 
HETATM   20  C   UNL     1      44.252 -17.974   4.710  1.00  0.00     0.002 A 
HETATM   21  C   UNL     1      43.494 -17.043   3.996  1.00  0.00     0.029 A 
ENDBRANCH  13  16
ENDBRANCH  10  12
BRANCH   1  22
HETATM   22  C   UNL     1      40.619 -11.595   3.444  1.00  0.00     0.093 A 
HETATM   23  C   UNL     1      41.671 -10.678   3.251  1.00  0.00     0.097 A 
HETATM   24  C   UNL     1      41.499  -9.335   3.609  1.00  0.00     0.039 A 
HETATM   25  C   UNL     1      40.275  -8.895   4.115  1.00  0.00     0.003 A 
HETATM   26  C   UNL     1      39.216  -9.788   4.264  1.00  0.00     0.002 A 
HETATM   27  C   UNL     1      39.386 -11.129   3.922  1.00  0.00     0.034 A 
BRANCH  23  28
HETATM   28  O   UNL     1      42.838 -11.191   2.736  1.00  0.00    -0.354 OA
HETATM   29  C   UNL     1      43.834 -11.548   3.685  1.00  0.00     0.210 C 
ENDBRANCH  23  28
ENDBRANCH   1  22
TORSDOF 4
ENDMDL
MODEL 5
REMARK VINA RESULT:      -9.0      1.536      2.065
REMARK  4 active torsions:
REMARK  status: ('A' for Active; 'I' for Inactive)
REMARK    1  A    between atoms: O_2  and  C_3 
REMARK    2  A    between atoms: C_4  and  N_5 
REMARK    3  A    between atoms: C_14  and  C_15 
REMARK       I    between atoms: C_15  and  N_16 
REMARK    4  A    between atoms: N_16  and  C_17 
ROOT
HETATM    1  N   UNL     1      41.824 -13.268   3.077  1.00  0.00    -0.221 NA
HETATM    2  C   UNL     1      42.189 -14.490   2.825  1.00  0.00     0.186 C 
HETATM    3  O   UNL     1      43.082 -15.157   3.655  1.00  0.00    -0.290 OA
HETATM    4  C   UNL     1      43.331 -16.532   3.506  1.00  0.00     0.088 A 
HETATM    5  C   UNL     1      42.776 -17.240   2.448  1.00  0.00    -0.001 A 
HETATM    6  C   UNL     1      44.130 -17.151   4.464  1.00  0.00     0.038 A 
HETATM    7  C   UNL     1      44.375 -18.519   4.360  1.00  0.00     0.003 A 
HETATM    8  C   UNL     1      43.825 -19.248   3.303  1.00  0.00     0.001 A 
HETATM    9  C   UNL     1      43.029 -18.610   2.346  1.00  0.00     0.014 A 
HETATM   10  C   UNL     1      41.676 -15.223   1.639  1.00  0.00     0.086 C 
HETATM   11  C   UNL     1      41.960 -16.528   1.480  1.00  0.00     0.035 C 
ENDROOT
BRANCH  10  12
HETATM   12  C   UNL     1      40.840 -14.582   0.559  1.00  0.00     0.260 C 
HETATM   13  N   UNL     1      41.283 -13.346   0.143  1.00  0.00    -0.323 N 
HETATM   14  H   UNL     1      42.108 -12.977   0.623  1.00  0.00     0.169 HD
HETATM   15  O   UNL     1      39.854 -15.170   0.117  1.00  0.00    -0.267 OA
BRANCH  13  16
HETATM   16  C   UNL     1      40.734 -12.504  -0.843  1.00  0.00     0.035 A 
HETATM   17  C   UNL     1      41.131 -12.497  -2.181  1.00  0.00     0.029 A 
HETATM   18  C   UNL     1      40.527 -11.627  -3.094  1.00  0.00     0.002 A 
HETATM   19  C   UNL     1      39.521 -10.758  -2.678  1.00  0.00     0.000 A 
HETATM   20  C   UNL     1      39.120 -10.754  -1.344  1.00  0.00     0.002 A 
HETATM   21  C   UNL     1      39.724 -11.623  -0.432  1.00  0.00     0.029 A 
ENDBRANCH  13  16
ENDBRANCH  10  12
BRANCH   1  22
HETATM   22  C   UNL     1      42.380 -12.582   4.173  1.00  0.00     0.093 A 
HETATM   23  C   UNL     1      41.694 -12.558   5.404  1.00  0.00     0.097 A 
HETATM   24  C   UNL     1      42.252 -11.888   6.499  1.00  0.00     0.039 A 
HETATM   25  C   UNL     1      43.505 -11.281   6.388  1.00  0.00     0.003 A 
HETATM   26  C   UNL     1      44.208 -11.342   5.187  1.00  0.00     0.002 A 
HETATM   27  C   UNL     1      43.652 -11.997   4.089  1.00  0.00     0.034 A 
BRANCH  23  28
HETATM   28  O   UNL     1      40.473 -13.189   5.431  1.00  0.00    -0.354 OA
HETATM   29  C   UNL     1      40.396 -14.361   6.232  1.00  0.00     0.210 C 
ENDBRANCH  23  28
ENDBRANCH   1  22
TORSDOF 4
ENDMDL
MODEL 6
REMARK VINA RESULT:      -8.9      1.886      2.154
REMARK  4 active torsions:
REMARK  status: ('A' for Active; 'I' for Inactive)
REMARK    1  A    between atoms: O_2  and  C_3 
REMARK    2  A    between atoms: C_4  and  N_5 
REMARK    3  A    between atoms: C_14  and  C_15 
REMARK       I    between atoms: C_15  and  N_16 
REMARK    4  A    between atoms: N_16  and  C_17 
ROOT
HETATM    1  N   UNL     1      40.240 -13.491   3.470  1.00  0.00    -0.221 NA
HETATM    2  C   UNL     1      41.078 -14.484   3.432  1.00  0.00     0.186 C 
HETATM    3  O   UNL     1      42.044 -14.645   4.418  1.00  0.00    -0.290 OA
HETATM    4  C   UNL     1      42.822 -15.813   4.494  1.00  0.00     0.088 A 
HETATM    5  C   UNL     1      42.726 -16.792   3.514  1.00  0.00    -0.001 A 
HETATM    6  C   UNL     1      43.668 -15.954   5.592  1.00  0.00     0.038 A 
HETATM    7  C   UNL     1      44.434 -17.112   5.712  1.00  0.00     0.003 A 
HETATM    8  C   UNL     1      44.350 -18.108   4.736  1.00  0.00     0.001 A 
HETATM    9  C   UNL     1      43.500 -17.948   3.637  1.00  0.00     0.014 A 
HETATM   10  C   UNL     1      41.046 -15.482   2.332  1.00  0.00     0.086 C 
HETATM   11  C   UNL     1      41.831 -16.573   2.391  1.00  0.00     0.035 C 
ENDROOT
BRANCH  10  12
HETATM   12  C   UNL     1      40.174 -15.350   1.108  1.00  0.00     0.260 C 
HETATM   13  N   UNL     1      40.201 -14.108   0.513  1.00  0.00    -0.323 N 
HETATM   14  H   UNL     1      40.780 -13.399   0.972  1.00  0.00     0.169 HD
HETATM   15  O   UNL     1      39.519 -16.313   0.714  1.00  0.00    -0.267 OA
BRANCH  13  16
HETATM   16  C   UNL     1      39.514 -13.670  -0.636  1.00  0.00     0.035 A 
HETATM   17  C   UNL     1      38.672 -12.558  -0.673  1.00  0.00     0.029 A 
HETATM   18  C   UNL     1      38.032 -12.194  -1.862  1.00  0.00     0.002 A 
HETATM   19  C   UNL     1      38.230 -12.938  -3.024  1.00  0.00     0.000 A 
HETATM   20  C   UNL     1      39.066 -14.051  -2.997  1.00  0.00     0.002 A 
HETATM   21  C   UNL     1      39.704 -14.415  -1.808  1.00  0.00     0.029 A 
ENDBRANCH  13  16
ENDBRANCH  10  12
BRANCH   1  22
HETATM   22  C   UNL     1      40.341 -12.527   4.492  1.00  0.00     0.093 A 
HETATM   23  C   UNL     1      41.248 -11.458   4.355  1.00  0.00     0.097 A 
HETATM   24  C   UNL     1      41.340 -10.490   5.363  1.00  0.00     0.039 A 
HETATM   25  C   UNL     1      40.506 -10.559   6.481  1.00  0.00     0.003 A 
HETATM   26  C   UNL     1      39.574 -11.588   6.598  1.00  0.00     0.002 A 
HETATM   27  C   UNL     1      39.488 -12.562   5.604  1.00  0.00     0.034 A 
BRANCH  23  28
HETATM   28  O   UNL     1      42.022 -11.458   3.219  1.00  0.00    -0.354 OA
HETATM   29  C   UNL     1      43.427 -11.522   3.424  1.00  0.00     0.210 C 
ENDBRANCH  23  28
ENDBRANCH   1  22
TORSDOF 4
ENDMDL
MODEL 7
REMARK VINA RESULT:      -8.8      2.042      6.382
REMARK  4 active torsions:
REMARK  status: ('A' for Active; 'I' for Inactive)
REMARK    1  A    between atoms: O_2  and  C_3 
REMARK    2  A    between atoms: C_4  and  N_5 
REMARK    3  A    between atoms: C_14  and  C_15 
REMARK       I    between atoms: C_15  and  N_16 
REMARK    4  A    between atoms: N_16  and  C_17 
ROOT
HETATM    1  N   UNL     1      41.844 -12.856   3.202  1.00  0.00    -0.221 NA
HETATM    2  C   UNL     1      41.160 -13.219   2.158  1.00  0.00     0.186 C 
HETATM    3  O   UNL     1      40.058 -12.487   1.733  1.00  0.00    -0.290 OA
HETATM    4  C   UNL     1      39.434 -12.754   0.502  1.00  0.00     0.088 A 
HETATM    5  C   UNL     1      39.831 -13.837  -0.271  1.00  0.00    -0.001 A 
HETATM    6  C   UNL     1      38.427 -11.886   0.088  1.00  0.00     0.038 A 
HETATM    7  C   UNL     1      37.805 -12.108  -1.140  1.00  0.00     0.003 A 
HETATM    8  C   UNL     1      38.191 -13.192  -1.932  1.00  0.00     0.001 A 
HETATM    9  C   UNL     1      39.201 -14.057  -1.498  1.00  0.00     0.014 A 
HETATM   10  C   UNL     1      41.518 -14.433   1.381  1.00  0.00     0.086 C 
HETATM   11  C   UNL     1      40.881 -14.707   0.229  1.00  0.00     0.035 C 
ENDROOT
BRANCH  10  12
HETATM   12  C   UNL     1      42.576 -15.419   1.813  1.00  0.00     0.260 C 
HETATM   13  N   UNL     1      42.098 -16.510   2.505  1.00  0.00    -0.323 N 
HETATM   14  H   UNL     1      41.090 -16.529   2.680  1.00  0.00     0.169 HD
HETATM   15  O   UNL     1      43.755 -15.216   1.533  1.00  0.00    -0.267 OA
BRANCH  13  16
HETATM   16  C   UNL     1      42.819 -17.601   3.030  1.00  0.00     0.035 A 
HETATM   17  C   UNL     1      43.415 -17.615   4.292  1.00  0.00     0.029 A 
HETATM   18  C   UNL     1      44.109 -18.746   4.734  1.00  0.00     0.002 A 
HETATM   19  C   UNL     1      44.212 -19.871   3.918  1.00  0.00     0.000 A 
HETATM   20  C   UNL     1      43.624 -19.866   2.657  1.00  0.00     0.002 A 
HETATM   21  C   UNL     1      42.931 -18.735   2.215  1.00  0.00     0.029 A 
ENDBRANCH  13  16
ENDBRANCH  10  12
BRANCH   1  22
HETATM   22  C   UNL     1      41.437 -11.737   3.953  1.00  0.00     0.093 A 
HETATM   23  C   UNL     1      40.462 -11.888   4.960  1.00  0.00     0.097 A 
HETATM   24  C   UNL     1      40.066 -10.779   5.717  1.00  0.00     0.039 A 
HETATM   25  C   UNL     1      40.664  -9.535   5.507  1.00  0.00     0.003 A 
HETATM   26  C   UNL     1      41.661  -9.390   4.545  1.00  0.00     0.002 A 
HETATM   27  C   UNL     1      42.050 -10.488   3.778  1.00  0.00     0.034 A 
BRANCH  23  28
HETATM   28  O   UNL     1      39.934 -13.148   5.110  1.00  0.00    -0.354 OA
HETATM   29  C   UNL     1      40.362 -13.871   6.257  1.00  0.00     0.210 C 
ENDBRANCH  23  28
ENDBRANCH   1  22
TORSDOF 4
ENDMDL
MODEL 8
REMARK VINA RESULT:      -8.7      2.000      6.835
REMARK  4 active torsions:
REMARK  status: ('A' for Active; 'I' for Inactive)
REMARK    1  A    between atoms: O_2  and  C_3 
REMARK    2  A    between atoms: C_4  and  N_5 
REMARK    3  A    between atoms: C_14  and  C_15 
REMARK       I    between atoms: C_15  and  N_16 
REMARK    4  A    between atoms: N_16  and  C_17 
ROOT
HETATM    1  N   UNL     1      40.455 -13.864   3.305  1.00  0.00    -0.221 NA
HETATM    2  C   UNL     1      41.378 -13.550   4.165  1.00  0.00     0.186 C 
HETATM    3  O   UNL     1      41.698 -12.223   4.422  1.00  0.00    -0.290 OA
HETATM    4  C   UNL     1      42.548 -11.868   5.484  1.00  0.00     0.088 A 
HETATM    5  C   UNL     1      43.186 -12.846   6.235  1.00  0.00    -0.001 A 
HETATM    6  C   UNL     1      42.705 -10.512   5.760  1.00  0.00     0.038 A 
HETATM    7  C   UNL     1      43.521 -10.128   6.822  1.00  0.00     0.003 A 
HETATM    8  C   UNL     1      44.171 -11.098   7.589  1.00  0.00     0.001 A 
HETATM    9  C   UNL     1      44.006 -12.455   7.295  1.00  0.00     0.014 A 
HETATM   10  C   UNL     1      42.136 -14.594   4.902  1.00  0.00     0.086 C 
HETATM   11  C   UNL     1      42.985 -14.242   5.884  1.00  0.00     0.035 C 
ENDROOT
BRANCH  10  12
HETATM   12  C   UNL     1      42.025 -16.070   4.610  1.00  0.00     0.260 C 
HETATM   13  N   UNL     1      43.131 -16.623   4.004  1.00  0.00    -0.323 N 
HETATM   14  H   UNL     1      43.897 -15.980   3.788  1.00  0.00     0.169 HD
HETATM   15  O   UNL     1      41.004 -16.682   4.920  1.00  0.00    -0.267 OA
BRANCH  13  16
HETATM   16  C   UNL     1      43.342 -17.960   3.614  1.00  0.00     0.035 A 
HETATM   17  C   UNL     1      43.041 -18.468   2.350  1.00  0.00     0.029 A 
HETATM   18  C   UNL     1      43.288 -19.811   2.050  1.00  0.00     0.002 A 
HETATM   19  C   UNL     1      43.839 -20.657   3.010  1.00  0.00     0.000 A 
HETATM   20  C   UNL     1      44.140 -20.161   4.276  1.00  0.00     0.002 A 
HETATM   21  C   UNL     1      43.892 -18.819   4.576  1.00  0.00     0.029 A 
ENDBRANCH  13  16
ENDBRANCH  10  12
BRANCH   1  22
HETATM   22  C   UNL     1      39.803 -12.851   2.576  1.00  0.00     0.093 A 
HETATM   23  C   UNL     1      39.858 -12.857   1.168  1.00  0.00     0.097 A 
HETATM   24  C   UNL     1      39.198 -11.858   0.441  1.00  0.00     0.039 A 
HETATM   25  C   UNL     1      38.451 -10.884   1.106  1.00  0.00     0.003 A 
HETATM   26  C   UNL     1      38.355 -10.900   2.495  1.00  0.00     0.002 A 
HETATM   27  C   UNL     1      39.021 -11.884   3.225  1.00  0.00     0.034 A 
BRANCH  23  28
HETATM   28  O   UNL     1      40.604 -13.858   0.594  1.00  0.00    -0.354 OA
HETATM   29  C   UNL     1      39.926 -14.676  -0.352  1.00  0.00     0.210 C 
ENDBRANCH  23  28
ENDBRANCH   1  22
TORSDOF 4
ENDMDL
MODEL 9
REMARK VINA RESULT:      -8.4      1.651      7.244
REMARK  4 active torsions:
REMARK  status: ('A' for Active; 'I' for Inactive)
REMARK    1  A    between atoms: O_2  and  C_3 
REMARK    2  A    between atoms: C_4  and  N_5 
REMARK    3  A    between atoms: C_14  and  C_15 
REMARK       I    between atoms: C_15  and  N_16 
REMARK    4  A    between atoms: N_16  and  C_17 
ROOT
HETATM    1  N   UNL     1      43.169 -14.769   3.594  1.00  0.00    -0.221 NA
HETATM    2  C   UNL     1      42.481 -14.111   2.709  1.00  0.00     0.186 C 
HETATM    3  O   UNL     1      41.851 -14.767   1.658  1.00  0.00    -0.290 OA
HETATM    4  C   UNL     1      40.949 -14.097   0.814  1.00  0.00     0.088 A 
HETATM    5  C   UNL     1      40.752 -12.728   0.936  1.00  0.00    -0.001 A 
HETATM    6  C   UNL     1      40.256 -14.857  -0.124  1.00  0.00     0.038 A 
HETATM    7  C   UNL     1      39.336 -14.228  -0.959  1.00  0.00     0.003 A 
HETATM    8  C   UNL     1      39.123 -12.851  -0.851  1.00  0.00     0.001 A 
HETATM    9  C   UNL     1      39.832 -12.101   0.093  1.00  0.00     0.014 A 
HETATM   10  C   UNL     1      42.346 -12.634   2.775  1.00  0.00     0.086 C 
HETATM   11  C   UNL     1      41.517 -11.995   1.930  1.00  0.00     0.035 C 
ENDROOT
BRANCH  10  12
HETATM   12  C   UNL     1      43.106 -11.768   3.749  1.00  0.00     0.260 C 
HETATM   13  N   UNL     1      42.835 -12.018   5.076  1.00  0.00    -0.323 N 
HETATM   14  H   UNL     1      42.132 -12.737   5.266  1.00  0.00     0.169 HD
HETATM   15  O   UNL     1      43.900 -10.926   3.332  1.00  0.00    -0.267 OA
BRANCH  13  16
HETATM   16  C   UNL     1      43.380 -11.395   6.216  1.00  0.00     0.035 A 
HETATM   17  C   UNL     1      42.703 -10.462   7.002  1.00  0.00     0.029 A 
HETATM   18  C   UNL     1      43.322  -9.896   8.121  1.00  0.00     0.002 A 
HETATM   19  C   UNL     1      44.623 -10.260   8.464  1.00  0.00     0.000 A 
HETATM   20  C   UNL     1      45.308 -11.188   7.685  1.00  0.00     0.002 A 
HETATM   21  C   UNL     1      44.690 -11.752   6.566  1.00  0.00     0.029 A 
ENDBRANCH  13  16
ENDBRANCH  10  12
BRANCH   1  22
HETATM   22  C   UNL     1      43.331 -16.162   3.463  1.00  0.00     0.093 A 
HETATM   23  C   UNL     1      43.483 -16.959   4.615  1.00  0.00     0.097 A 
HETATM   24  C   UNL     1      43.630 -18.345   4.488  1.00  0.00     0.039 A 
HETATM   25  C   UNL     1      43.581 -18.944   3.228  1.00  0.00     0.003 A 
HETATM   26  C   UNL     1      43.384 -18.166   2.090  1.00  0.00     0.002 A 
HETATM   27  C   UNL     1      43.251 -16.783   2.209  1.00  0.00     0.034 A 
BRANCH  23  28
HETATM   28  O   UNL     1      43.508 -16.291   5.817  1.00  0.00    -0.354 OA
HETATM   29  C   UNL     1      43.983 -17.034   6.932  1.00  0.00     0.210 C 
ENDBRANCH  23  28
ENDBRANCH   1  22
TORSDOF 4
ENDMDL
MODEL 10
REMARK VINA RESULT:      -8.3      3.112      7.102
REMARK  4 active torsions:
REMARK  status: ('A' for Active; 'I' for Inactive)
REMARK    1  A    between atoms: O_2  and  C_3 
REMARK    2  A    between atoms: C_4  and  N_5 
REMARK    3  A    between atoms: C_14  and  C_15 
REMARK       I    between atoms: C_15  and  N_16 
REMARK    4  A    between atoms: N_16  and  C_17 
ROOT
HETATM    1  N   UNL     1      41.242 -12.072   5.411  1.00  0.00    -0.221 NA
HETATM    2  C   UNL     1      42.265 -11.663   6.100  1.00  0.00     0.186 C 
HETATM    3  O   UNL     1      42.366 -10.341   6.517  1.00  0.00    -0.290 OA
HETATM    4  C   UNL     1      43.361  -9.935   7.423  1.00  0.00     0.088 A 
HETATM    5  C   UNL     1      44.345 -10.823   7.837  1.00  0.00    -0.001 A 
HETATM    6  C   UNL     1      43.307  -8.626   7.896  1.00  0.00     0.038 A 
HETATM    7  C   UNL     1      44.263  -8.199   8.815  1.00  0.00     0.003 A 
HETATM    8  C   UNL     1      45.260  -9.078   9.244  1.00  0.00     0.001 A 
HETATM    9  C   UNL     1      45.304 -10.388   8.755  1.00  0.00     0.014 A 
HETATM   10  C   UNL     1      43.372 -12.584   6.464  1.00  0.00     0.086 C 
HETATM   11  C   UNL     1      44.346 -12.170   7.294  1.00  0.00     0.035 C 
ENDROOT
BRANCH  10  12
HETATM   12  C   UNL     1      43.489 -13.995   5.944  1.00  0.00     0.260 C 
HETATM   13  N   UNL     1      43.120 -14.158   4.627  1.00  0.00    -0.323 N 
HETATM   14  H   UNL     1      42.780 -13.320   4.147  1.00  0.00     0.169 HD
HETATM   15  O   UNL     1      43.897 -14.889   6.684  1.00  0.00    -0.267 OA
BRANCH  13  16
HETATM   16  C   UNL     1      43.124 -15.334   3.853  1.00  0.00     0.035 A 
HETATM   17  C   UNL     1      43.098 -16.625   4.384  1.00  0.00     0.029 A 
HETATM   18  C   UNL     1      43.100 -17.738   3.537  1.00  0.00     0.002 A 
HETATM   19  C   UNL     1      43.127 -17.570   2.155  1.00  0.00     0.000 A 
HETATM   20  C   UNL     1      43.157 -16.287   1.615  1.00  0.00     0.002 A 
HETATM   21  C   UNL     1      43.156 -15.175   2.461  1.00  0.00     0.029 A 
ENDBRANCH  13  16
ENDBRANCH  10  12
BRANCH   1  22
HETATM   22  C   UNL     1      40.243 -11.157   5.027  1.00  0.00     0.093 A 
HETATM   23  C   UNL     1      40.063 -10.849   3.664  1.00  0.00     0.097 A 
HETATM   24  C   UNL     1      39.062  -9.950   3.279  1.00  0.00     0.039 A 
HETATM   25  C   UNL     1      38.214  -9.391   4.237  1.00  0.00     0.003 A 
HETATM   26  C   UNL     1      38.357  -9.728   5.581  1.00  0.00     0.002 A 
HETATM   27  C   UNL     1      39.361 -10.613   5.972  1.00  0.00     0.034 A 
BRANCH  23  28
HETATM   28  O   UNL     1      40.932 -11.452   2.785  1.00  0.00    -0.354 OA
HETATM   29  C   UNL     1      41.868 -10.593   2.147  1.00  0.00     0.210 C 
ENDBRANCH  23  28
ENDBRANCH   1  22
TORSDOF 4
ENDMDL
