MODEL 1
REMARK VINA RESULT:      -9.2      0.000      0.000
REMARK  1 active torsions:
REMARK  status: ('A' for Active; 'I' for Inactive)
REMARK    1  A    between atoms: C_8  and  C_9 
ROOT
HETATM    1  C   UNL     1      44.887 -12.281   6.433  1.00  0.00     0.073 C 
HETATM    2  C   UNL     1      43.908 -12.045   5.339  1.00  0.00     0.062 C 
HETATM    3  N   UNL     1      44.229 -11.206   4.349  1.00  0.00    -0.178 NA
HETATM    4  N   UNL     1      43.179 -11.268   3.526  1.00  0.00    -0.262 N 
HETATM    5  H   UNL     1      43.206 -10.713   2.679  1.00  0.00     0.191 HD
HETATM    6  C   UNL     1      42.138 -12.010   4.015  1.00  0.00     0.134 C 
HETATM    7  C   UNL     1      42.609 -12.631   5.155  1.00  0.00     0.032 C 
HETATM    8  C   UNL     1      42.019 -13.705   6.016  1.00  0.00     0.119 C 
HETATM    9  S   UNL     1      40.222 -13.949   6.102  1.00  0.00    -0.141 SA
HETATM   10  C   UNL     1      39.528 -12.430   5.404  1.00  0.00     0.136 C 
HETATM   11  C   UNL     1      39.840 -11.154   6.176  1.00  0.00     0.031 C 
HETATM   12  C   UNL     1      39.726 -12.336   3.896  1.00  0.00     0.236 C 
HETATM   13  O   UNL     1      38.763 -12.426   3.125  1.00  0.00    -0.272 OA
HETATM   14  N   UNL     1      40.940 -12.038   3.351  1.00  0.00    -0.311 N 
HETATM   15  H   UNL     1      40.888 -11.768   2.376  1.00  0.00     0.170 HD
ENDROOT
BRANCH   8  16
HETATM   16  C   UNL     1      42.688 -14.997   5.543  1.00  0.00    -0.039 A 
HETATM   17  C   UNL     1      42.336 -15.609   4.322  1.00  0.00     0.021 A 
HETATM   18  C   UNL     1      42.936 -16.804   3.893  1.00  0.00    -0.025 A 
HETATM   19  C   UNL     1      43.921 -17.409   4.701  1.00  0.00    -0.026 A 
HETATM   20  C   UNL     1      42.570 -17.410   2.680  1.00  0.00     0.012 A 
HETATM   21  C   UNL     1      44.274 -16.807   5.918  1.00  0.00     0.013 A 
HETATM   22  C   UNL     1      44.520 -18.606   4.270  1.00  0.00     0.012 A 
HETATM   23  C   UNL     1      43.663 -15.620   6.337  1.00  0.00     0.009 A 
HETATM   24  C   UNL     1      44.146 -19.196   3.061  1.00  0.00     0.001 A 
HETATM   25  C   UNL     1      43.171 -18.599   2.268  1.00  0.00     0.001 A 
ENDBRANCH   8  16
TORSDOF 1
ENDMDL
MODEL 2
REMARK VINA RESULT:      -9.0      2.472      3.871
REMARK  1 active torsions:
REMARK  status: ('A' for Active; 'I' for Inactive)
REMARK    1  A    between atoms: C_8  and  C_9 
ROOT
HETATM    1  C   UNL     1      39.321 -13.284   3.233  1.00  0.00     0.073 C 
HETATM    2  C   UNL     1      40.061 -13.214   4.521  1.00  0.00     0.062 C 
HETATM    3  N   UNL     1      39.393 -13.385   5.666  1.00  0.00    -0.178 NA
HETATM    4  N   UNL     1      40.342 -13.320   6.602  1.00  0.00    -0.262 N 
HETATM    5  H   UNL     1      40.064 -13.441   7.569  1.00  0.00     0.191 HD
HETATM    6  C   UNL     1      41.575 -12.980   6.116  1.00  0.00     0.134 C 
HETATM    7  C   UNL     1      41.467 -13.004   4.739  1.00  0.00     0.032 C 
HETATM    8  C   UNL     1      42.501 -12.914   3.660  1.00  0.00     0.119 C 
HETATM    9  S   UNL     1      44.082 -12.071   3.954  1.00  0.00    -0.141 SA
HETATM   10  C   UNL     1      43.805 -11.105   5.459  1.00  0.00     0.136 C 
HETATM   11  C   UNL     1      42.739 -10.022   5.353  1.00  0.00     0.031 C 
HETATM   12  C   UNL     1      43.716 -11.977   6.706  1.00  0.00     0.236 C 
HETATM   13  O   UNL     1      44.608 -11.949   7.562  1.00  0.00    -0.272 OA
HETATM   14  N   UNL     1      42.610 -12.727   6.976  1.00  0.00    -0.311 N 
HETATM   15  H   UNL     1      42.574 -13.061   7.933  1.00  0.00     0.170 HD
ENDROOT
BRANCH   8  16
HETATM   16  C   UNL     1      42.763 -14.363   3.246  1.00  0.00    -0.039 A 
HETATM   17  C   UNL     1      43.122 -15.349   4.188  1.00  0.00     0.021 A 
HETATM   18  C   UNL     1      43.380 -16.676   3.808  1.00  0.00    -0.025 A 
HETATM   19  C   UNL     1      43.273 -17.037   2.449  1.00  0.00    -0.026 A 
HETATM   20  C   UNL     1      43.747 -17.648   4.754  1.00  0.00     0.012 A 
HETATM   21  C   UNL     1      42.918 -16.060   1.506  1.00  0.00     0.013 A 
HETATM   22  C   UNL     1      43.532 -18.366   2.071  1.00  0.00     0.012 A 
HETATM   23  C   UNL     1      42.672 -14.740   1.897  1.00  0.00     0.009 A 
HETATM   24  C   UNL     1      43.896 -19.321   3.023  1.00  0.00     0.001 A 
HETATM   25  C   UNL     1      44.005 -18.961   4.363  1.00  0.00     0.001 A 
ENDBRANCH   8  16
TORSDOF 1
ENDMDL
MODEL 3
REMARK VINA RESULT:      -8.9      2.271      3.161
REMARK  1 active torsions:
REMARK  status: ('A' for Active; 'I' for Inactive)
REMARK    1  A    between atoms: C_8  and  C_9 
ROOT
HETATM    1  C   UNL     1      42.533 -15.363   1.274  1.00  0.00     0.073 C 
HETATM    2  C   UNL     1      41.416 -14.908   2.144  1.00  0.00     0.062 C 
HETATM    3  N   UNL     1      40.161 -15.002   1.694  1.00  0.00    -0.178 NA
HETATM    4  N   UNL     1      39.422 -14.573   2.720  1.00  0.00    -0.262 N 
HETATM    5  H   UNL     1      38.415 -14.569   2.610  1.00  0.00     0.191 HD
HETATM    6  C   UNL     1      40.158 -14.080   3.763  1.00  0.00     0.134 C 
HETATM    7  C   UNL     1      41.477 -14.378   3.478  1.00  0.00     0.032 C 
HETATM    8  C   UNL     1      42.719 -14.275   4.308  1.00  0.00     0.119 C 
HETATM    9  S   UNL     1      42.830 -13.086   5.676  1.00  0.00    -0.141 SA
HETATM   10  C   UNL     1      41.459 -11.939   5.388  1.00  0.00     0.136 C 
HETATM   11  C   UNL     1      41.539 -11.137   4.096  1.00  0.00     0.031 C 
HETATM   12  C   UNL     1      40.100 -12.568   5.673  1.00  0.00     0.236 C 
HETATM   13  O   UNL     1      39.424 -12.201   6.641  1.00  0.00    -0.272 OA
HETATM   14  N   UNL     1      39.536 -13.468   4.818  1.00  0.00    -0.311 N 
HETATM   15  H   UNL     1      38.548 -13.622   4.989  1.00  0.00     0.170 HD
ENDROOT
BRANCH   8  16
HETATM   16  C   UNL     1      42.952 -15.689   4.841  1.00  0.00    -0.039 A 
HETATM   17  C   UNL     1      43.385 -16.736   4.000  1.00  0.00     0.021 A 
HETATM   18  C   UNL     1      43.583 -18.039   4.482  1.00  0.00    -0.025 A 
HETATM   19  C   UNL     1      43.350 -18.312   5.846  1.00  0.00    -0.026 A 
HETATM   20  C   UNL     1      44.005 -19.076   3.633  1.00  0.00     0.012 A 
HETATM   21  C   UNL     1      42.917 -17.276   6.688  1.00  0.00     0.013 A 
HETATM   22  C   UNL     1      43.549 -19.618   6.327  1.00  0.00     0.012 A 
HETATM   23  C   UNL     1      42.715 -15.984   6.192  1.00  0.00     0.009 A 
HETATM   24  C   UNL     1      43.968 -20.638   5.470  1.00  0.00     0.001 A 
HETATM   25  C   UNL     1      44.194 -20.367   4.125  1.00  0.00     0.001 A 
ENDBRANCH   8  16
TORSDOF 1
ENDMDL
MODEL 4
REMARK VINA RESULT:      -8.4      2.331      3.483
REMARK  1 active torsions:
REMARK  status: ('A' for Active; 'I' for Inactive)
REMARK    1  A    between atoms: C_8  and  C_9 
ROOT
HETATM    1  C   UNL     1      41.366 -13.252   0.254  1.00  0.00     0.073 C 
HETATM    2  C   UNL     1      40.511 -13.279   1.471  1.00  0.00     0.062 C 
HETATM    3  N   UNL     1      39.185 -13.360   1.332  1.00  0.00    -0.178 NA
HETATM    4  N   UNL     1      38.736 -13.421   2.588  1.00  0.00    -0.262 N 
HETATM    5  H   UNL     1      37.736 -13.503   2.732  1.00  0.00     0.191 HD
HETATM    6  C   UNL     1      39.711 -13.247   3.532  1.00  0.00     0.134 C 
HETATM    7  C   UNL     1      40.913 -13.258   2.851  1.00  0.00     0.032 C 
HETATM    8  C   UNL     1      42.329 -13.306   3.336  1.00  0.00     0.119 C 
HETATM    9  S   UNL     1      42.771 -12.680   4.982  1.00  0.00    -0.141 SA
HETATM   10  C   UNL     1      41.345 -11.685   5.483  1.00  0.00     0.136 C 
HETATM   11  C   UNL     1      41.057 -10.470   4.610  1.00  0.00     0.031 C 
HETATM   12  C   UNL     1      40.128 -12.536   5.825  1.00  0.00     0.236 C 
HETATM   13  O   UNL     1      39.726 -12.625   6.991  1.00  0.00    -0.272 OA
HETATM   14  N   UNL     1      39.378 -13.133   4.856  1.00  0.00    -0.311 N 
HETATM   15  H   UNL     1      38.477 -13.459   5.186  1.00  0.00     0.170 HD
ENDROOT
BRANCH   8  16
HETATM   16  C   UNL     1      42.732 -14.777   3.224  1.00  0.00    -0.039 A 
HETATM   17  C   UNL     1      42.911 -15.586   4.365  1.00  0.00     0.021 A 
HETATM   18  C   UNL     1      43.297 -16.932   4.266  1.00  0.00    -0.025 A 
HETATM   19  C   UNL     1      43.509 -17.495   2.990  1.00  0.00    -0.026 A 
HETATM   20  C   UNL     1      43.482 -17.725   5.410  1.00  0.00     0.012 A 
HETATM   21  C   UNL     1      43.335 -16.696   1.850  1.00  0.00     0.013 A 
HETATM   22  C   UNL     1      43.896 -18.843   2.893  1.00  0.00     0.012 A 
HETATM   23  C   UNL     1      42.958 -15.353   1.964  1.00  0.00     0.009 A 
HETATM   24  C   UNL     1      44.076 -19.619   4.040  1.00  0.00     0.001 A 
HETATM   25  C   UNL     1      43.870 -19.060   5.297  1.00  0.00     0.001 A 
ENDBRANCH   8  16
TORSDOF 1
ENDMDL
MODEL 5
REMARK VINA RESULT:      -8.3      1.672      2.321
REMARK  1 active torsions:
REMARK  status: ('A' for Active; 'I' for Inactive)
REMARK    1  A    between atoms: C_8  and  C_9 
ROOT
HETATM    1  C   UNL     1      43.193 -13.430   6.678  1.00  0.00     0.073 C 
HETATM    2  C   UNL     1      43.220 -12.735   5.364  1.00  0.00     0.062 C 
HETATM    3  N   UNL     1      44.173 -11.828   5.127  1.00  0.00    -0.178 NA
HETATM    4  N   UNL     1      43.947 -11.449   3.867  1.00  0.00    -0.262 N 
HETATM    5  H   UNL     1      44.570 -10.762   3.458  1.00  0.00     0.191 HD
HETATM    6  C   UNL     1      42.805 -11.978   3.328  1.00  0.00     0.134 C 
HETATM    7  C   UNL     1      42.349 -12.915   4.235  1.00  0.00     0.032 C 
HETATM    8  C   UNL     1      41.271 -13.949   4.136  1.00  0.00     0.119 C 
HETATM    9  S   UNL     1      39.872 -13.730   2.999  1.00  0.00    -0.141 SA
HETATM   10  C   UNL     1      39.920 -11.976   2.558  1.00  0.00     0.136 C 
HETATM   11  C   UNL     1      39.709 -11.005   3.713  1.00  0.00     0.031 C 
HETATM   12  C   UNL     1      41.085 -11.637   1.636  1.00  0.00     0.236 C 
HETATM   13  O   UNL     1      40.888 -11.318   0.457  1.00  0.00    -0.272 OA
HETATM   14  N   UNL     1      42.365 -11.562   2.100  1.00  0.00    -0.311 N 
HETATM   15  H   UNL     1      43.000 -11.098   1.459  1.00  0.00     0.170 HD
ENDROOT
BRANCH   8  16
HETATM   16  C   UNL     1      42.004 -15.248   3.799  1.00  0.00    -0.039 A 
HETATM   17  C   UNL     1      42.344 -16.187   4.795  1.00  0.00     0.021 A 
HETATM   18  C   UNL     1      43.032 -17.372   4.492  1.00  0.00    -0.025 A 
HETATM   19  C   UNL     1      43.392 -17.637   3.154  1.00  0.00    -0.026 A 
HETATM   20  C   UNL     1      43.374 -18.295   5.494  1.00  0.00     0.012 A 
HETATM   21  C   UNL     1      43.059 -16.707   2.158  1.00  0.00     0.013 A 
HETATM   22  C   UNL     1      44.081 -18.825   2.852  1.00  0.00     0.012 A 
HETATM   23  C   UNL     1      42.380 -15.525   2.476  1.00  0.00     0.009 A 
HETATM   24  C   UNL     1      44.414 -19.733   3.860  1.00  0.00     0.001 A 
HETATM   25  C   UNL     1      44.062 -19.467   5.179  1.00  0.00     0.001 A 
ENDBRANCH   8  16
TORSDOF 1
ENDMDL
MODEL 6
REMARK VINA RESULT:      -8.2      2.685      6.135
REMARK  1 active torsions:
REMARK  status: ('A' for Active; 'I' for Inactive)
REMARK    1  A    between atoms: C_8  and  C_9 
ROOT
HETATM    1  C   UNL     1      43.068 -15.701   7.653  1.00  0.00     0.073 C 
HETATM    2  C   UNL     1      41.903 -15.380   6.786  1.00  0.00     0.062 C 
HETATM    3  N   UNL     1      40.686 -15.795   7.153  1.00  0.00    -0.178 NA
HETATM    4  N   UNL     1      39.883 -15.301   6.207  1.00  0.00    -0.262 N 
HETATM    5  H   UNL     1      38.889 -15.480   6.287  1.00  0.00     0.191 HD
HETATM    6  C   UNL     1      40.551 -14.700   5.174  1.00  0.00     0.134 C 
HETATM    7  C   UNL     1      41.875 -14.631   5.560  1.00  0.00     0.032 C 
HETATM    8  C   UNL     1      43.049 -13.921   4.958  1.00  0.00     0.119 C 
HETATM    9  S   UNL     1      43.094 -13.535   3.184  1.00  0.00    -0.141 SA
HETATM   10  C   UNL     1      41.799 -14.574   2.465  1.00  0.00     0.136 C 
HETATM   11  C   UNL     1      42.016 -16.076   2.597  1.00  0.00     0.031 C 
HETATM   12  C   UNL     1      40.397 -14.092   2.820  1.00  0.00     0.236 C 
HETATM   13  O   UNL     1      39.659 -13.602   1.957  1.00  0.00    -0.272 OA
HETATM   14  N   UNL     1      39.869 -14.284   4.062  1.00  0.00    -0.311 N 
HETATM   15  H   UNL     1      38.866 -14.143   4.099  1.00  0.00     0.170 HD
ENDROOT
BRANCH   8  16
HETATM   16  C   UNL     1      43.181 -12.629   5.766  1.00  0.00    -0.039 A 
HETATM   17  C   UNL     1      44.374 -12.296   6.441  1.00  0.00     0.021 A 
HETATM   18  C   UNL     1      44.493 -11.120   7.197  1.00  0.00    -0.025 A 
HETATM   19  C   UNL     1      43.393 -10.241   7.282  1.00  0.00    -0.026 A 
HETATM   20  C   UNL     1      45.683 -10.804   7.873  1.00  0.00     0.012 A 
HETATM   21  C   UNL     1      42.202 -10.567   6.615  1.00  0.00     0.013 A 
HETATM   22  C   UNL     1      43.514  -9.063   8.040  1.00  0.00     0.012 A 
HETATM   23  C   UNL     1      42.095 -11.747   5.872  1.00  0.00     0.009 A 
HETATM   24  C   UNL     1      44.704  -8.763   8.707  1.00  0.00     0.001 A 
HETATM   25  C   UNL     1      45.786  -9.633   8.625  1.00  0.00     0.001 A 
ENDBRANCH   8  16
TORSDOF 1
ENDMDL
MODEL 7
REMARK VINA RESULT:      -7.9      6.112      8.233
REMARK  1 active torsions:
REMARK  status: ('A' for Active; 'I' for Inactive)
REMARK    1  A    between atoms: C_8  and  C_9 
ROOT
HETATM    1  C   UNL     1      41.077  -6.307   9.042  1.00  0.00     0.073 C 
HETATM    2  C   UNL     1      40.351  -7.485   9.585  1.00  0.00     0.062 C 
HETATM    3  N   UNL     1      39.187  -7.843   9.034  1.00  0.00    -0.178 NA
HETATM    4  N   UNL     1      38.842  -8.944   9.705  1.00  0.00    -0.262 N 
HETATM    5  H   UNL     1      37.981  -9.409   9.443  1.00  0.00     0.191 HD
HETATM    6  C   UNL     1      39.669  -9.232  10.756  1.00  0.00     0.134 C 
HETATM    7  C   UNL     1      40.739  -8.364  10.654  1.00  0.00     0.032 C 
HETATM    8  C   UNL     1      42.047  -8.311  11.381  1.00  0.00     0.119 C 
HETATM    9  S   UNL     1      42.216  -9.011  13.048  1.00  0.00    -0.141 SA
HETATM   10  C   UNL     1      40.513  -9.225  13.621  1.00  0.00     0.136 C 
HETATM   11  C   UNL     1      39.704  -7.941  13.759  1.00  0.00     0.031 C 
HETATM   12  C   UNL     1      39.796 -10.366  12.909  1.00  0.00     0.236 C 
HETATM   13  O   UNL     1      39.502 -11.404  13.515  1.00  0.00    -0.272 OA
HETATM   14  N   UNL     1      39.354 -10.243  11.625  1.00  0.00    -0.311 N 
HETATM   15  H   UNL     1      38.692 -10.962  11.356  1.00  0.00     0.170 HD
ENDROOT
BRANCH   8  16
HETATM   16  C   UNL     1      43.045  -8.986  10.439  1.00  0.00    -0.039 A 
HETATM   17  C   UNL     1      42.651  -9.504   9.188  1.00  0.00     0.021 A 
HETATM   18  C   UNL     1      43.561 -10.140   8.330  1.00  0.00    -0.025 A 
HETATM   19  C   UNL     1      44.910 -10.262   8.724  1.00  0.00    -0.026 A 
HETATM   20  C   UNL     1      43.155 -10.660   7.090  1.00  0.00     0.012 A 
HETATM   21  C   UNL     1      45.309  -9.752   9.968  1.00  0.00     0.013 A 
HETATM   22  C   UNL     1      45.820 -10.899   7.862  1.00  0.00     0.012 A 
HETATM   23  C   UNL     1      44.389  -9.127  10.818  1.00  0.00     0.009 A 
HETATM   24  C   UNL     1      45.401 -11.412   6.633  1.00  0.00     0.001 A 
HETATM   25  C   UNL     1      44.069 -11.293   6.248  1.00  0.00     0.001 A 
ENDBRANCH   8  16
TORSDOF 1
ENDMDL
MODEL 8
REMARK VINA RESULT:      -7.9      3.734      4.958
REMARK  1 active torsions:
REMARK  status: ('A' for Active; 'I' for Inactive)
REMARK    1  A    between atoms: C_8  and  C_9 
ROOT
HETATM    1  C   UNL     1      39.488 -12.072   3.251  1.00  0.00     0.073 C 
HETATM    2  C   UNL     1      40.165 -11.895   1.939  1.00  0.00     0.062 C 
HETATM    3  N   UNL     1      40.788 -10.742   1.678  1.00  0.00    -0.178 NA
HETATM    4  N   UNL     1      41.324 -10.934   0.471  1.00  0.00    -0.262 N 
HETATM    5  H   UNL     1      41.868 -10.181   0.067  1.00  0.00     0.191 HD
HETATM    6  C   UNL     1      40.958 -12.117  -0.113  1.00  0.00     0.134 C 
HETATM    7  C   UNL     1      40.284 -12.833   0.856  1.00  0.00     0.032 C 
HETATM    8  C   UNL     1      39.813 -14.254   0.893  1.00  0.00     0.119 C 
HETATM    9  S   UNL     1      39.449 -15.155  -0.641  1.00  0.00    -0.141 SA
HETATM   10  C   UNL     1      39.326 -13.864  -1.903  1.00  0.00     0.136 C 
HETATM   11  C   UNL     1      38.200 -12.858  -1.702  1.00  0.00     0.031 C 
HETATM   12  C   UNL     1      40.680 -13.255  -2.250  1.00  0.00     0.236 C 
HETATM   13  O   UNL     1      41.200 -13.456  -3.354  1.00  0.00    -0.272 OA
HETATM   14  N   UNL     1      41.308 -12.383  -1.411  1.00  0.00    -0.311 N 
HETATM   15  H   UNL     1      42.062 -11.871  -1.853  1.00  0.00     0.170 HD
ENDROOT
BRANCH   8  16
HETATM   16  C   UNL     1      40.887 -15.003   1.683  1.00  0.00    -0.039 A 
HETATM   17  C   UNL     1      40.682 -15.401   3.020  1.00  0.00     0.021 A 
HETATM   18  C   UNL     1      41.673 -16.073   3.753  1.00  0.00    -0.025 A 
HETATM   19  C   UNL     1      42.908 -16.364   3.137  1.00  0.00    -0.026 A 
HETATM   20  C   UNL     1      41.461 -16.455   5.088  1.00  0.00     0.012 A 
HETATM   21  C   UNL     1      43.120 -15.969   1.807  1.00  0.00     0.013 A 
HETATM   22  C   UNL     1      43.899 -17.037   3.873  1.00  0.00     0.012 A 
HETATM   23  C   UNL     1      42.126 -15.293   1.091  1.00  0.00     0.009 A 
HETATM   24  C   UNL     1      43.673 -17.411   5.199  1.00  0.00     0.001 A 
HETATM   25  C   UNL     1      42.456 -17.119   5.806  1.00  0.00     0.001 A 
ENDBRANCH   8  16
TORSDOF 1
ENDMDL
MODEL 9
REMARK VINA RESULT:      -7.8      3.765      5.232
REMARK  1 active torsions:
REMARK  status: ('A' for Active; 'I' for Inactive)
REMARK    1  A    between atoms: C_8  and  C_9 
ROOT
HETATM    1  C   UNL     1      41.666  -9.374   4.974  1.00  0.00     0.073 C 
HETATM    2  C   UNL     1      41.798  -9.606   6.437  1.00  0.00     0.062 C 
HETATM    3  N   UNL     1      40.783  -9.278   7.242  1.00  0.00    -0.178 NA
HETATM    4  N   UNL     1      41.199  -9.661   8.452  1.00  0.00    -0.262 N 
HETATM    5  H   UNL     1      40.573  -9.521   9.236  1.00  0.00     0.191 HD
HETATM    6  C   UNL     1      42.496 -10.099   8.477  1.00  0.00     0.134 C 
HETATM    7  C   UNL     1      42.899 -10.184   7.158  1.00  0.00     0.032 C 
HETATM    8  C   UNL     1      44.124 -10.775   6.531  1.00  0.00     0.119 C 
HETATM    9  S   UNL     1      45.673 -10.917   7.467  1.00  0.00    -0.141 SA
HETATM   10  C   UNL     1      45.440  -9.826   8.892  1.00  0.00     0.136 C 
HETATM   11  C   UNL     1      45.256  -8.350   8.563  1.00  0.00     0.031 C 
HETATM   12  C   UNL     1      44.449 -10.390   9.904  1.00  0.00     0.236 C 
HETATM   13  O   UNL     1      44.830 -10.778  11.015  1.00  0.00    -0.272 OA
HETATM   14  N   UNL     1      43.106 -10.381   9.670  1.00  0.00    -0.311 N 
HETATM   15  H   UNL     1      42.551 -10.552  10.501  1.00  0.00     0.170 HD
ENDROOT
BRANCH   8  16
HETATM   16  C   UNL     1      43.689 -12.159   6.050  1.00  0.00    -0.039 A 
HETATM   17  C   UNL     1      43.603 -13.257   6.931  1.00  0.00     0.021 A 
HETATM   18  C   UNL     1      43.220 -14.534   6.489  1.00  0.00    -0.025 A 
HETATM   19  C   UNL     1      42.908 -14.726   5.126  1.00  0.00    -0.026 A 
HETATM   20  C   UNL     1      43.148 -15.622   7.374  1.00  0.00     0.012 A 
HETATM   21  C   UNL     1      42.993 -13.639   4.244  1.00  0.00     0.013 A 
HETATM   22  C   UNL     1      42.525 -16.005   4.686  1.00  0.00     0.012 A 
HETATM   23  C   UNL     1      43.384 -12.374   4.697  1.00  0.00     0.009 A 
HETATM   24  C   UNL     1      42.458 -17.077   5.578  1.00  0.00     0.001 A 
HETATM   25  C   UNL     1      42.770 -16.885   6.920  1.00  0.00     0.001 A 
ENDBRANCH   8  16
TORSDOF 1
ENDMDL
MODEL 10
REMARK VINA RESULT:      -7.7      3.979      5.751
REMARK  1 active torsions:
REMARK  status: ('A' for Active; 'I' for Inactive)
REMARK    1  A    between atoms: C_8  and  C_9 
ROOT
HETATM    1  C   UNL     1      40.651 -10.480   2.947  1.00  0.00     0.073 C 
HETATM    2  C   UNL     1      40.309 -11.650   3.799  1.00  0.00     0.062 C 
HETATM    3  N   UNL     1      39.303 -11.545   4.673  1.00  0.00    -0.178 NA
HETATM    4  N   UNL     1      39.227 -12.762   5.219  1.00  0.00    -0.262 N 
HETATM    5  H   UNL     1      38.510 -12.926   5.915  1.00  0.00     0.191 HD
HETATM    6  C   UNL     1      40.231 -13.606   4.827  1.00  0.00     0.134 C 
HETATM    7  C   UNL     1      40.906 -12.957   3.811  1.00  0.00     0.032 C 
HETATM    8  C   UNL     1      41.961 -13.430   2.860  1.00  0.00     0.119 C 
HETATM    9  S   UNL     1      43.061 -14.808   3.298  1.00  0.00    -0.141 SA
HETATM   10  C   UNL     1      42.866 -14.987   5.088  1.00  0.00     0.136 C 
HETATM   11  C   UNL     1      43.307 -13.787   5.917  1.00  0.00     0.031 C 
HETATM   12  C   UNL     1      41.513 -15.574   5.474  1.00  0.00     0.236 C 
HETATM   13  O   UNL     1      41.430 -16.713   5.948  1.00  0.00    -0.272 OA
HETATM   14  N   UNL     1      40.370 -14.833   5.418  1.00  0.00    -0.311 N 
HETATM   15  H   UNL     1      39.595 -15.250   5.922  1.00  0.00     0.170 HD
ENDROOT
BRANCH   8  16
HETATM   16  C   UNL     1      41.206 -13.768   1.574  1.00  0.00    -0.039 A 
HETATM   17  C   UNL     1      41.183 -12.886   0.474  1.00  0.00     0.021 A 
HETATM   18  C   UNL     1      40.476 -13.185  -0.701  1.00  0.00    -0.025 A 
HETATM   19  C   UNL     1      39.773 -14.405  -0.790  1.00  0.00    -0.026 A 
HETATM   20  C   UNL     1      40.452 -12.294  -1.786  1.00  0.00     0.012 A 
HETATM   21  C   UNL     1      39.790 -15.287   0.301  1.00  0.00     0.013 A 
HETATM   22  C   UNL     1      39.066 -14.703  -1.968  1.00  0.00     0.012 A 
HETATM   23  C   UNL     1      40.492 -14.971   1.469  1.00  0.00     0.009 A 
HETATM   24  C   UNL     1      39.051 -13.806  -3.038  1.00  0.00     0.001 A 
HETATM   25  C   UNL     1      39.742 -12.603  -2.946  1.00  0.00     0.001 A 
ENDBRANCH   8  16
TORSDOF 1
ENDMDL
