MODEL 1
REMARK VINA RESULT:      -8.1      0.000      0.000
REMARK  3 active torsions:
REMARK  status: ('A' for Active; 'I' for Inactive)
REMARK    1  A    between atoms: C_4  and  C_5 
REMARK    2  A    between atoms: C_11  and  C_12 
REMARK    3  A    between atoms: C_21  and  N_22 
ROOT
HETATM    1  C   UNL     1      41.532 -14.169   4.234  1.00  0.00     0.071 A 
HETATM    2  N   UNL     1      40.208 -13.781   4.211  1.00  0.00    -0.274 N 
HETATM    3  H   UNL     1      39.471 -14.144   3.615  1.00  0.00     0.189 HD
HETATM    4  N   UNL     1      39.913 -12.763   5.043  1.00  0.00    -0.148 NA
HETATM    5  C   UNL     1      41.085 -12.524   5.615  1.00  0.00     0.199 A 
HETATM    6  C   UNL     1      42.116 -13.376   5.208  1.00  0.00     0.036 A 
HETATM    7  C   UNL     1      43.489 -13.238   5.777  1.00  0.00     0.081 C 
HETATM    8  C   UNL     1      43.609 -11.870   6.476  1.00  0.00     0.077 C 
HETATM    9  C   UNL     1      44.928 -11.417   6.780  1.00  0.00     0.100 C 
HETATM   10  N   UNL     1      46.006 -11.051   7.002  1.00  0.00    -0.192 NA
HETATM   11  C   UNL     1      42.532 -11.103   6.790  1.00  0.00     0.140 C 
HETATM   12  O   UNL     1      41.226 -11.483   6.454  1.00  0.00    -0.277 OA
ENDROOT
BRANCH   7  13
HETATM   13  C   UNL     1      43.920 -14.400   6.742  1.00  0.00     0.022 C 
HETATM   14  C   UNL     1      44.647 -15.519   6.029  1.00  0.00    -0.025 C 
HETATM   15  C   UNL     1      44.234 -16.795   6.020  1.00  0.00    -0.030 C 
HETATM   16  C   UNL     1      42.977 -17.266   6.687  1.00  0.00     0.027 C 
HETATM   17  C   UNL     1      42.041 -16.127   7.084  1.00  0.00     0.004 C 
HETATM   18  C   UNL     1      42.805 -14.942   7.671  1.00  0.00     0.010 C 
ENDBRANCH   7  13
BRANCH  11  19
HETATM   19  N   UNL     1      42.580  -9.890   7.444  1.00  0.00    -0.282 NA
HETATM   20  H   UNL     1      42.465  -9.926   8.454  1.00  0.00     0.126 HD
HETATM   21  H   UNL     1      43.384  -9.338   7.153  1.00  0.00     0.126 HD
ENDBRANCH  11  19
BRANCH   1  22
HETATM   22  C   UNL     1      42.060 -15.181   3.329  1.00  0.00    -0.007 A 
HETATM   23  C   UNL     1      41.584 -16.498   3.383  1.00  0.00     0.014 A 
HETATM   24  C   UNL     1      42.095 -17.474   2.524  1.00  0.00     0.001 A 
HETATM   25  C   UNL     1      43.090 -17.143   1.606  1.00  0.00     0.000 A 
HETATM   26  C   UNL     1      43.574 -15.838   1.546  1.00  0.00     0.001 A 
HETATM   27  C   UNL     1      43.062 -14.861   2.404  1.00  0.00     0.014 A 
ENDBRANCH   1  22
TORSDOF 3
ENDMDL
MODEL 2
REMARK VINA RESULT:      -7.6      2.473      3.406
REMARK  3 active torsions:
REMARK  status: ('A' for Active; 'I' for Inactive)
REMARK    1  A    between atoms: C_4  and  C_5 
REMARK    2  A    between atoms: C_11  and  C_12 
REMARK    3  A    between atoms: C_21  and  N_22 
ROOT
HETATM    1  C   UNL     1      40.147 -13.084   2.615  1.00  0.00     0.071 A 
HETATM    2  N   UNL     1      38.952 -13.027   3.303  1.00  0.00    -0.274 N 
HETATM    3  H   UNL     1      38.018 -13.130   2.922  1.00  0.00     0.189 HD
HETATM    4  N   UNL     1      39.080 -12.740   4.613  1.00  0.00    -0.148 NA
HETATM    5  C   UNL     1      40.395 -12.635   4.748  1.00  0.00     0.199 A 
HETATM    6  C   UNL     1      41.121 -12.881   3.578  1.00  0.00     0.036 A 
HETATM    7  C   UNL     1      42.613 -12.814   3.578  1.00  0.00     0.081 C 
HETATM    8  C   UNL     1      43.085 -12.088   4.852  1.00  0.00     0.077 C 
HETATM    9  C   UNL     1      44.436 -11.631   4.869  1.00  0.00     0.100 C 
HETATM   10  N   UNL     1      45.530 -11.245   4.861  1.00  0.00    -0.192 NA
HETATM   11  C   UNL     1      42.274 -11.868   5.921  1.00  0.00     0.140 C 
HETATM   12  O   UNL     1      40.925 -12.245   5.921  1.00  0.00    -0.277 OA
ENDROOT
BRANCH   7  13
HETATM   13  C   UNL     1      43.332 -14.202   3.425  1.00  0.00     0.022 C 
HETATM   14  C   UNL     1      43.459 -14.644   1.984  1.00  0.00    -0.025 C 
HETATM   15  C   UNL     1      42.951 -15.788   1.502  1.00  0.00    -0.030 C 
HETATM   16  C   UNL     1      42.159 -16.757   2.327  1.00  0.00     0.027 C 
HETATM   17  C   UNL     1      41.696 -16.176   3.662  1.00  0.00     0.004 C 
HETATM   18  C   UNL     1      42.785 -15.337   4.326  1.00  0.00     0.010 C 
ENDBRANCH   7  13
BRANCH  11  19
HETATM   19  N   UNL     1      42.652 -11.255   7.097  1.00  0.00    -0.282 NA
HETATM   20  H   UNL     1      43.105 -11.853   7.783  1.00  0.00     0.126 HD
HETATM   21  H   UNL     1      43.162 -10.391   6.923  1.00  0.00     0.126 HD
ENDBRANCH  11  19
BRANCH   1  22
HETATM   22  C   UNL     1      40.203 -13.278   1.172  1.00  0.00    -0.007 A 
HETATM   23  C   UNL     1      40.708 -12.271   0.339  1.00  0.00     0.014 A 
HETATM   24  C   UNL     1      40.753 -12.450  -1.045  1.00  0.00     0.001 A 
HETATM   25  C   UNL     1      40.289 -13.636  -1.611  1.00  0.00     0.000 A 
HETATM   26  C   UNL     1      39.781 -14.643  -0.793  1.00  0.00     0.001 A 
HETATM   27  C   UNL     1      39.736 -14.465   0.592  1.00  0.00     0.014 A 
ENDBRANCH   1  22
TORSDOF 3
ENDMDL
MODEL 3
REMARK VINA RESULT:      -7.5      2.385      3.212
REMARK  3 active torsions:
REMARK  status: ('A' for Active; 'I' for Inactive)
REMARK    1  A    between atoms: C_4  and  C_5 
REMARK    2  A    between atoms: C_11  and  C_12 
REMARK    3  A    between atoms: C_21  and  N_22 
ROOT
HETATM    1  C   UNL     1      42.437 -15.875   2.387  1.00  0.00     0.071 A 
HETATM    2  N   UNL     1      41.738 -15.818   1.199  1.00  0.00    -0.274 N 
HETATM    3  H   UNL     1      41.528 -16.588   0.572  1.00  0.00     0.189 HD
HETATM    4  N   UNL     1      41.361 -14.577   0.834  1.00  0.00    -0.148 NA
HETATM    5  C   UNL     1      41.824 -13.841   1.836  1.00  0.00     0.199 A 
HETATM    6  C   UNL     1      42.452 -14.570   2.851  1.00  0.00     0.036 A 
HETATM    7  C   UNL     1      43.010 -13.880   4.052  1.00  0.00     0.081 C 
HETATM    8  C   UNL     1      43.120 -12.371   3.760  1.00  0.00     0.077 C 
HETATM    9  C   UNL     1      43.935 -11.602   4.644  1.00  0.00     0.100 C 
HETATM   10  N   UNL     1      44.617 -10.994   5.357  1.00  0.00    -0.192 NA
HETATM   11  C   UNL     1      42.493 -11.773   2.712  1.00  0.00     0.140 C 
HETATM   12  O   UNL     1      41.735 -12.500   1.786  1.00  0.00    -0.277 OA
ENDROOT
BRANCH   7  13
HETATM   13  C   UNL     1      42.219 -14.136   5.384  1.00  0.00     0.022 C 
HETATM   14  C   UNL     1      42.992 -14.977   6.376  1.00  0.00    -0.025 C 
HETATM   15  C   UNL     1      42.559 -16.148   6.866  1.00  0.00    -0.030 C 
HETATM   16  C   UNL     1      41.266 -16.790   6.462  1.00  0.00     0.027 C 
HETATM   17  C   UNL     1      40.652 -16.172   5.207  1.00  0.00     0.004 C 
HETATM   18  C   UNL     1      40.768 -14.650   5.207  1.00  0.00     0.010 C 
ENDBRANCH   7  13
BRANCH  11  19
HETATM   19  N   UNL     1      42.529 -10.425   2.425  1.00  0.00    -0.282 NA
HETATM   20  H   UNL     1      41.723  -9.885   2.728  1.00  0.00     0.126 HD
HETATM   21  H   UNL     1      43.416 -10.006   2.699  1.00  0.00     0.126 HD
ENDBRANCH  11  19
BRANCH   1  22
HETATM   22  C   UNL     1      43.014 -17.114   2.889  1.00  0.00    -0.007 A 
HETATM   23  C   UNL     1      43.898 -17.095   3.977  1.00  0.00     0.014 A 
HETATM   24  C   UNL     1      44.461 -18.281   4.455  1.00  0.00     0.001 A 
HETATM   25  C   UNL     1      44.150 -19.496   3.847  1.00  0.00     0.000 A 
HETATM   26  C   UNL     1      43.276 -19.526   2.762  1.00  0.00     0.001 A 
HETATM   27  C   UNL     1      42.711 -18.341   2.284  1.00  0.00     0.014 A 
ENDBRANCH   1  22
TORSDOF 3
ENDMDL
MODEL 4
REMARK VINA RESULT:      -7.4      4.746      6.459
REMARK  3 active torsions:
REMARK  status: ('A' for Active; 'I' for Inactive)
REMARK    1  A    between atoms: C_4  and  C_5 
REMARK    2  A    between atoms: C_11  and  C_12 
REMARK    3  A    between atoms: C_21  and  N_22 
ROOT
HETATM    1  C   UNL     1      40.357 -14.385   0.168  1.00  0.00     0.071 A 
HETATM    2  N   UNL     1      39.411 -15.010  -0.619  1.00  0.00    -0.274 N 
HETATM    3  H   UNL     1      39.130 -15.984  -0.585  1.00  0.00     0.189 HD
HETATM    4  N   UNL     1      38.868 -14.221  -1.566  1.00  0.00    -0.148 NA
HETATM    5  C   UNL     1      39.481 -13.064  -1.349  1.00  0.00     0.199 A 
HETATM    6  C   UNL     1      40.371 -13.072  -0.271  1.00  0.00     0.036 A 
HETATM    7  C   UNL     1      41.124 -11.838   0.105  1.00  0.00     0.081 C 
HETATM    8  C   UNL     1      41.048 -10.828  -1.056  1.00  0.00     0.077 C 
HETATM    9  C   UNL     1      41.974  -9.743  -1.027  1.00  0.00     0.100 C 
HETATM   10  N   UNL     1      42.747  -8.879  -1.002  1.00  0.00    -0.192 NA
HETATM   11  C   UNL     1      40.161 -10.944  -2.080  1.00  0.00     0.140 C 
HETATM   12  O   UNL     1      39.277 -12.026  -2.178  1.00  0.00    -0.277 OA
ENDROOT
BRANCH   7  13
HETATM   13  C   UNL     1      40.667 -11.176   1.454  1.00  0.00     0.022 C 
HETATM   14  C   UNL     1      41.466 -11.656   2.646  1.00  0.00    -0.025 C 
HETATM   15  C   UNL     1      40.927 -12.255   3.718  1.00  0.00    -0.030 C 
HETATM   16  C   UNL     1      39.465 -12.557   3.854  1.00  0.00     0.027 C 
HETATM   17  C   UNL     1      38.700 -12.435   2.538  1.00  0.00     0.004 C 
HETATM   18  C   UNL     1      39.144 -11.216   1.732  1.00  0.00     0.010 C 
ENDBRANCH   7  13
BRANCH  11  19
HETATM   19  N   UNL     1      40.027 -10.054  -3.124  1.00  0.00    -0.282 NA
HETATM   20  H   UNL     1      40.526  -9.173  -3.022  1.00  0.00     0.126 HD
HETATM   21  H   UNL     1      40.189 -10.502  -4.023  1.00  0.00     0.126 HD
ENDBRANCH  11  19
BRANCH   1  22
HETATM   22  C   UNL     1      41.126 -15.104   1.175  1.00  0.00    -0.007 A 
HETATM   23  C   UNL     1      40.477 -15.755   2.232  1.00  0.00     0.014 A 
HETATM   24  C   UNL     1      41.212 -16.437   3.205  1.00  0.00     0.001 A 
HETATM   25  C   UNL     1      42.603 -16.471   3.132  1.00  0.00     0.000 A 
HETATM   26  C   UNL     1      43.260 -15.824   2.088  1.00  0.00     0.001 A 
HETATM   27  C   UNL     1      42.526 -15.143   1.113  1.00  0.00     0.014 A 
ENDBRANCH   1  22
TORSDOF 3
ENDMDL
MODEL 5
REMARK VINA RESULT:      -6.7      3.576      4.925
REMARK  3 active torsions:
REMARK  status: ('A' for Active; 'I' for Inactive)
REMARK    1  A    between atoms: C_4  and  C_5 
REMARK    2  A    between atoms: C_11  and  C_12 
REMARK    3  A    between atoms: C_21  and  N_22 
ROOT
HETATM    1  C   UNL     1      40.377 -13.829   2.444  1.00  0.00     0.071 A 
HETATM    2  N   UNL     1      39.041 -14.040   2.716  1.00  0.00    -0.274 N 
HETATM    3  H   UNL     1      38.610 -14.895   3.051  1.00  0.00     0.189 HD
HETATM    4  N   UNL     1      38.244 -12.991   2.432  1.00  0.00    -0.148 NA
HETATM    5  C   UNL     1      39.114 -12.093   1.989  1.00  0.00     0.199 A 
HETATM    6  C   UNL     1      40.447 -12.514   2.013  1.00  0.00     0.036 A 
HETATM    7  C   UNL     1      41.542 -11.606   1.559  1.00  0.00     0.081 C 
HETATM    8  C   UNL     1      40.929 -10.439   0.762  1.00  0.00     0.077 C 
HETATM    9  C   UNL     1      41.826  -9.662  -0.033  1.00  0.00     0.100 C 
HETATM   10  N   UNL     1      42.561  -9.054  -0.690  1.00  0.00    -0.192 NA
HETATM   11  C   UNL     1      39.602 -10.145   0.782  1.00  0.00     0.140 C 
HETATM   12  O   UNL     1      38.681 -10.919   1.499  1.00  0.00    -0.277 OA
ENDROOT
BRANCH   7  13
HETATM   13  C   UNL     1      42.471 -11.073   2.708  1.00  0.00     0.022 C 
HETATM   14  C   UNL     1      43.452 -12.112   3.202  1.00  0.00    -0.025 C 
HETATM   15  C   UNL     1      43.520 -12.536   4.473  1.00  0.00    -0.030 C 
HETATM   16  C   UNL     1      42.603 -12.057   5.558  1.00  0.00     0.027 C 
HETATM   17  C   UNL     1      41.381 -11.309   5.029  1.00  0.00     0.004 C 
HETATM   18  C   UNL     1      41.743 -10.370   3.880  1.00  0.00     0.010 C 
ENDBRANCH   7  13
BRANCH  11  19
HETATM   19  N   UNL     1      39.008  -9.094   0.116  1.00  0.00    -0.282 NA
HETATM   20  H   UNL     1      38.609  -9.315  -0.794  1.00  0.00     0.126 HD
HETATM   21  H   UNL     1      38.367  -8.582   0.719  1.00  0.00     0.126 HD
ENDBRANCH  11  19
BRANCH   1  22
HETATM   22  C   UNL     1      41.374 -14.881   2.588  1.00  0.00    -0.007 A 
HETATM   23  C   UNL     1      42.244 -15.182   1.532  1.00  0.00     0.014 A 
HETATM   24  C   UNL     1      43.195 -16.198   1.663  1.00  0.00     0.001 A 
HETATM   25  C   UNL     1      43.280 -16.925   2.849  1.00  0.00     0.000 A 
HETATM   26  C   UNL     1      42.417 -16.636   3.904  1.00  0.00     0.001 A 
HETATM   27  C   UNL     1      41.468 -15.620   3.775  1.00  0.00     0.014 A 
ENDBRANCH   1  22
TORSDOF 3
ENDMDL
MODEL 6
REMARK VINA RESULT:      -6.7      2.740      5.984
REMARK  3 active torsions:
REMARK  status: ('A' for Active; 'I' for Inactive)
REMARK    1  A    between atoms: C_4  and  C_5 
REMARK    2  A    between atoms: C_11  and  C_12 
REMARK    3  A    between atoms: C_21  and  N_22 
ROOT
HETATM    1  C   UNL     1      42.920 -13.289   6.500  1.00  0.00     0.071 A 
HETATM    2  N   UNL     1      42.604 -14.337   7.341  1.00  0.00    -0.274 N 
HETATM    3  H   UNL     1      43.015 -14.546   8.244  1.00  0.00     0.189 HD
HETATM    4  N   UNL     1      41.685 -15.189   6.844  1.00  0.00    -0.148 NA
HETATM    5  C   UNL     1      41.408 -14.644   5.667  1.00  0.00     0.199 A 
HETATM    6  C   UNL     1      42.088 -13.451   5.405  1.00  0.00     0.036 A 
HETATM    7  C   UNL     1      41.868 -12.713   4.125  1.00  0.00     0.081 C 
HETATM    8  C   UNL     1      41.166 -13.646   3.120  1.00  0.00     0.077 C 
HETATM    9  C   UNL     1      41.177 -13.242   1.752  1.00  0.00     0.100 C 
HETATM   10  N   UNL     1      41.212 -12.913   0.640  1.00  0.00    -0.192 NA
HETATM   11  C   UNL     1      40.569 -14.811   3.486  1.00  0.00     0.140 C 
HETATM   12  O   UNL     1      40.590 -15.275   4.807  1.00  0.00    -0.277 OA
ENDROOT
BRANCH   7  13
HETATM   13  C   UNL     1      41.084 -11.360   4.274  1.00  0.00     0.022 C 
HETATM   14  C   UNL     1      41.971 -10.207   4.689  1.00  0.00    -0.025 C 
HETATM   15  C   UNL     1      41.786  -9.480   5.800  1.00  0.00    -0.030 C 
HETATM   16  C   UNL     1      40.693  -9.742   6.792  1.00  0.00     0.027 C 
HETATM   17  C   UNL     1      40.024 -11.102   6.607  1.00  0.00     0.004 C 
HETATM   18  C   UNL     1      39.796 -11.429   5.133  1.00  0.00     0.010 C 
ENDBRANCH   7  13
BRANCH  11  19
HETATM   19  N   UNL     1      39.899 -15.666   2.635  1.00  0.00    -0.282 NA
HETATM   20  H   UNL     1      40.343 -16.566   2.473  1.00  0.00     0.126 HD
HETATM   21  H   UNL     1      38.914 -15.744   2.880  1.00  0.00     0.126 HD
ENDBRANCH  11  19
BRANCH   1  22
HETATM   22  C   UNL     1      43.966 -12.327   6.820  1.00  0.00    -0.007 A 
HETATM   23  C   UNL     1      45.061 -12.158   5.963  1.00  0.00     0.014 A 
HETATM   24  C   UNL     1      46.071 -11.243   6.272  1.00  0.00     0.001 A 
HETATM   25  C   UNL     1      45.997 -10.492   7.443  1.00  0.00     0.000 A 
HETATM   26  C   UNL     1      44.914 -10.654   8.305  1.00  0.00     0.001 A 
HETATM   27  C   UNL     1      43.903 -11.567   7.996  1.00  0.00     0.014 A 
ENDBRANCH   1  22
TORSDOF 3
ENDMDL
MODEL 7
REMARK VINA RESULT:      -6.6      4.546      7.311
REMARK  3 active torsions:
REMARK  status: ('A' for Active; 'I' for Inactive)
REMARK    1  A    between atoms: C_4  and  C_5 
REMARK    2  A    between atoms: C_11  and  C_12 
REMARK    3  A    between atoms: C_21  and  N_22 
ROOT
HETATM    1  C   UNL     1      41.059 -13.865   2.118  1.00  0.00     0.071 A 
HETATM    2  N   UNL     1      40.621 -15.153   2.348  1.00  0.00    -0.274 N 
HETATM    3  H   UNL     1      40.772 -15.715   3.179  1.00  0.00     0.189 HD
HETATM    4  N   UNL     1      39.977 -15.715   1.306  1.00  0.00    -0.148 NA
HETATM    5  C   UNL     1      39.999 -14.739   0.408  1.00  0.00     0.199 A 
HETATM    6  C   UNL     1      40.601 -13.557   0.848  1.00  0.00     0.036 A 
HETATM    7  C   UNL     1      40.686 -12.365  -0.048  1.00  0.00     0.081 C 
HETATM    8  C   UNL     1      40.404 -12.803  -1.497  1.00  0.00     0.077 C 
HETATM    9  C   UNL     1      40.769 -11.887  -2.529  1.00  0.00     0.100 C 
HETATM   10  N   UNL     1      41.091 -11.143  -3.358  1.00  0.00    -0.192 NA
HETATM   11  C   UNL     1      39.847 -14.003  -1.812  1.00  0.00     0.140 C 
HETATM   12  O   UNL     1      39.532 -14.955  -0.835  1.00  0.00    -0.277 OA
ENDROOT
BRANCH   7  13
HETATM   13  C   UNL     1      39.760 -11.166   0.365  1.00  0.00     0.022 C 
HETATM   14  C   UNL     1      40.423 -10.217   1.340  1.00  0.00    -0.025 C 
HETATM   15  C   UNL     1      39.936  -9.931   2.557  1.00  0.00    -0.030 C 
HETATM   16  C   UNL     1      38.690 -10.546   3.118  1.00  0.00     0.027 C 
HETATM   17  C   UNL     1      38.212 -11.766   2.333  1.00  0.00     0.004 C 
HETATM   18  C   UNL     1      38.333 -11.555   0.826  1.00  0.00     0.010 C 
ENDBRANCH   7  13
BRANCH  11  19
HETATM   19  N   UNL     1      39.543 -14.431  -3.087  1.00  0.00    -0.282 NA
HETATM   20  H   UNL     1      38.960 -15.262  -3.148  1.00  0.00     0.126 HD
HETATM   21  H   UNL     1      39.211 -13.666  -3.671  1.00  0.00     0.126 HD
ENDBRANCH  11  19
BRANCH   1  22
HETATM   22  C   UNL     1      41.864 -13.135   3.088  1.00  0.00    -0.007 A 
HETATM   23  C   UNL     1      41.443 -13.026   4.420  1.00  0.00     0.014 A 
HETATM   24  C   UNL     1      42.208 -12.318   5.351  1.00  0.00     0.001 A 
HETATM   25  C   UNL     1      43.397 -11.708   4.957  1.00  0.00     0.000 A 
HETATM   26  C   UNL     1      43.824 -11.807   3.635  1.00  0.00     0.001 A 
HETATM   27  C   UNL     1      43.061 -12.516   2.703  1.00  0.00     0.014 A 
ENDBRANCH   1  22
TORSDOF 3
ENDMDL
MODEL 8
REMARK VINA RESULT:      -6.5      3.762      4.840
REMARK  3 active torsions:
REMARK  status: ('A' for Active; 'I' for Inactive)
REMARK    1  A    between atoms: C_4  and  C_5 
REMARK    2  A    between atoms: C_11  and  C_12 
REMARK    3  A    between atoms: C_21  and  N_22 
ROOT
HETATM    1  C   UNL     1      39.276 -12.123   0.723  1.00  0.00     0.071 A 
HETATM    2  N   UNL     1      37.961 -11.737   0.879  1.00  0.00    -0.274 N 
HETATM    3  H   UNL     1      37.230 -11.746   0.176  1.00  0.00     0.189 HD
HETATM    4  N   UNL     1      37.668 -11.241   2.097  1.00  0.00    -0.148 NA
HETATM    5  C   UNL     1      38.833 -11.339   2.724  1.00  0.00     0.199 A 
HETATM    6  C   UNL     1      39.855 -11.916   1.964  1.00  0.00     0.036 A 
HETATM    7  C   UNL     1      41.219 -12.107   2.541  1.00  0.00     0.081 C 
HETATM    8  C   UNL     1      41.351 -11.252   3.816  1.00  0.00     0.077 C 
HETATM    9  C   UNL     1      42.672 -11.037   4.313  1.00  0.00     0.100 C 
HETATM   10  N   UNL     1      43.752 -10.853   4.693  1.00  0.00    -0.192 NA
HETATM   11  C   UNL     1      40.282 -10.704   4.452  1.00  0.00     0.140 C 
HETATM   12  O   UNL     1      38.977 -10.838   3.963  1.00  0.00    -0.277 OA
ENDROOT
BRANCH   7  13
HETATM   13  C   UNL     1      41.608 -13.602   2.827  1.00  0.00     0.022 C 
HETATM   14  C   UNL     1      42.229 -14.288   1.630  1.00  0.00    -0.025 C 
HETATM   15  C   UNL     1      41.731 -15.394   1.058  1.00  0.00    -0.030 C 
HETATM   16  C   UNL     1      40.472 -16.069   1.511  1.00  0.00     0.027 C 
HETATM   17  C   UNL     1      39.631 -15.209   2.452  1.00  0.00     0.004 C 
HETATM   18  C   UNL     1      40.495 -14.467   3.470  1.00  0.00     0.010 C 
ENDBRANCH   7  13
BRANCH  11  19
HETATM   19  N   UNL     1      40.340  -9.960   5.612  1.00  0.00    -0.282 NA
HETATM   20  H   UNL     1      40.125  -8.971   5.516  1.00  0.00     0.126 HD
HETATM   21  H   UNL     1      39.829 -10.407   6.371  1.00  0.00     0.126 HD
ENDBRANCH  11  19
BRANCH   1  22
HETATM   22  C   UNL     1      39.803 -12.585  -0.554  1.00  0.00    -0.007 A 
HETATM   23  C   UNL     1      40.797 -11.853  -1.218  1.00  0.00     0.014 A 
HETATM   24  C   UNL     1      41.297 -12.288  -2.447  1.00  0.00     0.001 A 
HETATM   25  C   UNL     1      40.805 -13.455  -3.027  1.00  0.00     0.000 A 
HETATM   26  C   UNL     1      39.814 -14.189  -2.379  1.00  0.00     0.001 A 
HETATM   27  C   UNL     1      39.314 -13.756  -1.148  1.00  0.00     0.014 A 
ENDBRANCH   1  22
TORSDOF 3
ENDMDL
MODEL 9
REMARK VINA RESULT:      -6.5      8.444     12.042
REMARK  3 active torsions:
REMARK  status: ('A' for Active; 'I' for Inactive)
REMARK    1  A    between atoms: C_4  and  C_5 
REMARK    2  A    between atoms: C_11  and  C_12 
REMARK    3  A    between atoms: C_21  and  N_22 
ROOT
HETATM    1  C   UNL     1      41.757  -6.288  13.341  1.00  0.00     0.071 A 
HETATM    2  N   UNL     1      42.251  -6.554  14.601  1.00  0.00    -0.274 N 
HETATM    3  H   UNL     1      42.898  -5.988  15.140  1.00  0.00     0.189 HD
HETATM    4  N   UNL     1      41.855  -7.735  15.115  1.00  0.00    -0.148 NA
HETATM    5  C   UNL     1      41.075  -8.209  14.153  1.00  0.00     0.199 A 
HETATM    6  C   UNL     1      40.925  -7.358  13.054  1.00  0.00     0.036 A 
HETATM    7  C   UNL     1      40.064  -7.749  11.898  1.00  0.00     0.081 C 
HETATM    8  C   UNL     1      39.776  -9.260  11.974  1.00  0.00     0.077 C 
HETATM    9  C   UNL     1      39.263  -9.877  10.794  1.00  0.00     0.100 C 
HETATM   10  N   UNL     1      38.867 -10.370   9.821  1.00  0.00    -0.192 NA
HETATM   11  C   UNL     1      40.000 -10.001  13.092  1.00  0.00     0.140 C 
HETATM   12  O   UNL     1      40.560  -9.447  14.250  1.00  0.00    -0.277 OA
ENDROOT
BRANCH   7  13
HETATM   13  C   UNL     1      38.731  -6.930  11.765  1.00  0.00     0.022 C 
HETATM   14  C   UNL     1      38.917  -5.613  11.045  1.00  0.00    -0.025 C 
HETATM   15  C   UNL     1      38.627  -4.418  11.579  1.00  0.00    -0.030 C 
HETATM   16  C   UNL     1      38.113  -4.235  12.975  1.00  0.00     0.027 C 
HETATM   17  C   UNL     1      38.269  -5.481  13.844  1.00  0.00     0.004 C 
HETATM   18  C   UNL     1      37.924  -6.756  13.077  1.00  0.00     0.010 C 
ENDBRANCH   7  13
BRANCH  11  19
HETATM   19  N   UNL     1      39.729 -11.346  13.225  1.00  0.00    -0.282 NA
HETATM   20  H   UNL     1      40.377 -11.874  13.804  1.00  0.00     0.126 HD
HETATM   21  H   UNL     1      38.753 -11.511  13.466  1.00  0.00     0.126 HD
ENDBRANCH  11  19
BRANCH   1  22
HETATM   22  C   UNL     1      42.157  -5.110  12.583  1.00  0.00    -0.007 A 
HETATM   23  C   UNL     1      42.178  -3.848  13.192  1.00  0.00     0.014 A 
HETATM   24  C   UNL     1      42.552  -2.715  12.465  1.00  0.00     0.001 A 
HETATM   25  C   UNL     1      42.904  -2.832  11.122  1.00  0.00     0.000 A 
HETATM   26  C   UNL     1      42.883  -4.081  10.505  1.00  0.00     0.001 A 
HETATM   27  C   UNL     1      42.511  -5.215  11.231  1.00  0.00     0.014 A 
ENDBRANCH   1  22
TORSDOF 3
ENDMDL
MODEL 10
REMARK VINA RESULT:      -6.4      8.495     11.275
REMARK  3 active torsions:
REMARK  status: ('A' for Active; 'I' for Inactive)
REMARK    1  A    between atoms: C_4  and  C_5 
REMARK    2  A    between atoms: C_11  and  C_12 
REMARK    3  A    between atoms: C_21  and  N_22 
ROOT
HETATM    1  C   UNL     1      39.513  -6.848  11.889  1.00  0.00     0.071 A 
HETATM    2  N   UNL     1      38.207  -7.265  11.734  1.00  0.00    -0.274 N 
HETATM    3  H   UNL     1      37.796  -7.708  10.919  1.00  0.00     0.189 HD
HETATM    4  N   UNL     1      37.405  -6.979  12.778  1.00  0.00    -0.148 NA
HETATM    5  C   UNL     1      38.243  -6.383  13.617  1.00  0.00     0.199 A 
HETATM    6  C   UNL     1      39.564  -6.310  13.164  1.00  0.00     0.036 A 
HETATM    7  C   UNL     1      40.625  -5.680  14.006  1.00  0.00     0.081 C 
HETATM    8  C   UNL     1      39.957  -4.856  15.124  1.00  0.00     0.077 C 
HETATM    9  C   UNL     1      40.784  -3.919  15.813  1.00  0.00     0.100 C 
HETATM   10  N   UNL     1      41.461  -3.146  16.350  1.00  0.00    -0.192 NA
HETATM   11  C   UNL     1      38.645  -4.984  15.453  1.00  0.00     0.140 C 
HETATM   12  O   UNL     1      37.785  -5.846  14.761  1.00  0.00    -0.277 OA
ENDROOT
BRANCH   7  13
HETATM   13  C   UNL     1      41.674  -6.686  14.601  1.00  0.00     0.022 C 
HETATM   14  C   UNL     1      42.874  -6.887  13.702  1.00  0.00    -0.025 C 
HETATM   15  C   UNL     1      43.250  -8.075  13.208  1.00  0.00    -0.030 C 
HETATM   16  C   UNL     1      42.505  -9.352  13.456  1.00  0.00     0.027 C 
HETATM   17  C   UNL     1      41.107  -9.132  14.031  1.00  0.00     0.004 C 
HETATM   18  C   UNL     1      41.095  -8.036  15.094  1.00  0.00     0.010 C 
ENDBRANCH   7  13
BRANCH  11  19
HETATM   19  N   UNL     1      38.006  -4.298  16.464  1.00  0.00    -0.282 NA
HETATM   20  H   UNL     1      37.963  -4.772  17.363  1.00  0.00     0.126 HD
HETATM   21  H   UNL     1      38.337  -3.338  16.535  1.00  0.00     0.126 HD
ENDBRANCH  11  19
BRANCH   1  22
HETATM   22  C   UNL     1      40.500  -6.976  10.825  1.00  0.00    -0.007 A 
HETATM   23  C   UNL     1      40.767  -8.227  10.252  1.00  0.00     0.014 A 
HETATM   24  C   UNL     1      41.720  -8.355   9.239  1.00  0.00     0.001 A 
HETATM   25  C   UNL     1      42.418  -7.235   8.792  1.00  0.00     0.000 A 
HETATM   26  C   UNL     1      42.164  -5.987   9.357  1.00  0.00     0.001 A 
HETATM   27  C   UNL     1      41.210  -5.858  10.369  1.00  0.00     0.014 A 
ENDBRANCH   1  22
TORSDOF 3
ENDMDL
