MODEL 1
REMARK VINA RESULT:      -7.9      0.000      0.000
REMARK  6 active torsions:
REMARK  status: ('A' for Active; 'I' for Inactive)
REMARK    1  A    between atoms: O_2  and  C_3 
REMARK    2  A    between atoms: C_3  and  C_4 
REMARK    3  A    between atoms: C_4  and  N_5 
REMARK       I    between atoms: N_5  and  C_6 
REMARK    4  A    between atoms: C_6  and  C_7 
REMARK    5  A    between atoms: C_12  and  C_13 
REMARK    6  A    between atoms: C_21  and  C_22 
ROOT
HETATM    1  C   UNL     1      42.387 -11.436   6.371  1.00  0.00     0.170 A 
HETATM    2  N   UNL     1      41.171 -11.874   5.953  1.00  0.00    -0.163 NA
HETATM    3  N   UNL     1      41.457 -12.981   5.251  1.00  0.00    -0.238 N 
HETATM    4  C   UNL     1      42.783 -13.313   5.237  1.00  0.00     0.145 A 
HETATM    5  N   UNL     1      43.217 -14.440   4.614  1.00  0.00    -0.365 N 
HETATM    6  C   UNL     1      42.325 -15.197   3.741  1.00  0.00     0.118 C 
HETATM    7  C   UNL     1      40.903 -15.186   4.330  1.00  0.00     0.066 C 
HETATM    8  C   UNL     1      40.417 -13.747   4.587  1.00  0.00     0.221 C 
HETATM    9  C   UNL     1      43.420 -12.322   5.949  1.00  0.00     0.115 A 
HETATM   10 CL   UNL     1      45.086 -12.201   6.247  1.00  0.00    -0.077 Cl
HETATM   11  H   UNL     1      44.215 -14.563   4.438  1.00  0.00     0.162 HD
ENDROOT
BRANCH   1  12
HETATM   12  C   UNL     1      42.513 -10.196   7.154  1.00  0.00     0.273 C 
HETATM   13  N   UNL     1      43.166 -10.379   8.353  1.00  0.00    -0.353 N 
HETATM   14  H   UNL     1      43.611 -11.285   8.483  1.00  0.00     0.162 HD
HETATM   15  O   UNL     1      42.082  -9.108   6.786  1.00  0.00    -0.266 OA
BRANCH  13  16
HETATM   16  C   UNL     1      43.565  -9.281   9.209  1.00  0.00     0.149 C 
BRANCH  16  17
HETATM   17  C   UNL     1      44.888  -8.670   8.750  1.00  0.00     0.186 C 
BRANCH  17  18
HETATM   18  O   UNL     1      44.729  -7.254   8.618  1.00  0.00    -0.394 OA
HETATM   19  C   UNL     1      43.480  -6.819   9.143  1.00  0.00     0.201 C 
ENDBRANCH  17  18
ENDBRANCH  16  17
ENDBRANCH  13  16
ENDBRANCH   1  12
BRANCH   8  20
HETATM   20  C   UNL     1      40.003 -13.050   3.308  1.00  0.00     0.409 C 
HETATM   21  F   UNL     1      39.534 -13.902   2.372  1.00  0.00    -0.169 F 
HETATM   22  F   UNL     1      38.999 -12.171   3.567  1.00  0.00    -0.169 F 
HETATM   23  F   UNL     1      41.003 -12.335   2.753  1.00  0.00    -0.169 F 
ENDBRANCH   8  20
BRANCH   6  24
HETATM   24  C   UNL     1      42.831 -16.619   3.574  1.00  0.00    -0.035 A 
HETATM   25  C   UNL     1      43.590 -17.255   4.570  1.00  0.00     0.011 A 
HETATM   26  C   UNL     1      44.026 -18.572   4.403  1.00  0.00     0.024 A 
HETATM   27  C   UNL     1      43.701 -19.268   3.241  1.00  0.00     0.034 A 
HETATM   28 CL   UNL     1      44.234 -20.890   3.036  1.00  0.00    -0.084 Cl
HETATM   29  C   UNL     1      42.942 -18.658   2.246  1.00  0.00     0.024 A 
HETATM   30  C   UNL     1      42.508 -17.340   2.411  1.00  0.00     0.011 A 
ENDBRANCH   6  24
TORSDOF 6
ENDMDL
MODEL 2
REMARK VINA RESULT:      -7.7      3.504      4.329
REMARK  6 active torsions:
REMARK  status: ('A' for Active; 'I' for Inactive)
REMARK    1  A    between atoms: O_2  and  C_3 
REMARK    2  A    between atoms: C_3  and  C_4 
REMARK    3  A    between atoms: C_4  and  N_5 
REMARK       I    between atoms: N_5  and  C_6 
REMARK    4  A    between atoms: C_6  and  C_7 
REMARK    5  A    between atoms: C_12  and  C_13 
REMARK    6  A    between atoms: C_21  and  C_22 
ROOT
HETATM    1  C   UNL     1      43.844 -12.103   7.221  1.00  0.00     0.170 A 
HETATM    2  N   UNL     1      44.165 -13.417   7.106  1.00  0.00    -0.163 NA
HETATM    3  N   UNL     1      43.359 -13.856   6.127  1.00  0.00    -0.238 N 
HETATM    4  C   UNL     1      42.574 -12.887   5.566  1.00  0.00     0.145 A 
HETATM    5  N   UNL     1      41.749 -13.170   4.525  1.00  0.00    -0.365 N 
HETATM    6  C   UNL     1      41.493 -14.553   4.133  1.00  0.00     0.118 C 
HETATM    7  C   UNL     1      42.785 -15.375   4.288  1.00  0.00     0.066 C 
HETATM    8  C   UNL     1      43.359 -15.248   5.711  1.00  0.00     0.221 C 
HETATM    9  C   UNL     1      42.857 -11.734   6.262  1.00  0.00     0.115 A 
HETATM   10 CL   UNL     1      42.162 -10.206   6.013  1.00  0.00    -0.077 Cl
HETATM   11  H   UNL     1      41.029 -12.496   4.258  1.00  0.00     0.162 HD
ENDROOT
BRANCH   1  12
HETATM   12  C   UNL     1      44.490 -11.255   8.236  1.00  0.00     0.273 C 
HETATM   13  N   UNL     1      43.607 -10.762   9.170  1.00  0.00    -0.353 N 
HETATM   14  H   UNL     1      42.668 -11.155   9.145  1.00  0.00     0.162 HD
HETATM   15  O   UNL     1      45.692 -11.008   8.255  1.00  0.00    -0.266 OA
BRANCH  13  16
HETATM   16  C   UNL     1      44.031 -10.057  10.361  1.00  0.00     0.149 C 
BRANCH  16  17
HETATM   17  C   UNL     1      43.606 -10.797  11.628  1.00  0.00     0.186 C 
BRANCH  17  18
HETATM   18  O   UNL     1      42.923  -9.887  12.497  1.00  0.00    -0.394 OA
HETATM   19  C   UNL     1      43.324  -8.542  12.260  1.00  0.00     0.201 C 
ENDBRANCH  17  18
ENDBRANCH  16  17
ENDBRANCH  13  16
ENDBRANCH   1  12
BRANCH   8  20
HETATM   20  C   UNL     1      42.588 -16.082   6.713  1.00  0.00     0.409 C 
HETATM   21  F   UNL     1      42.041 -17.189   6.166  1.00  0.00    -0.169 F 
HETATM   22  F   UNL     1      43.422 -16.509   7.697  1.00  0.00    -0.169 F 
HETATM   23  F   UNL     1      41.601 -15.391   7.321  1.00  0.00    -0.169 F 
ENDBRANCH   8  20
BRANCH   6  24
HETATM   24  C   UNL     1      40.982 -14.612   2.704  1.00  0.00    -0.035 A 
HETATM   25  C   UNL     1      40.328 -15.748   2.199  1.00  0.00     0.011 A 
HETATM   26  C   UNL     1      39.847 -15.772   0.888  1.00  0.00     0.024 A 
HETATM   27  C   UNL     1      40.009 -14.656   0.071  1.00  0.00     0.034 A 
HETATM   28 CL   UNL     1      39.414 -14.682  -1.543  1.00  0.00    -0.084 Cl
HETATM   29  C   UNL     1      40.647 -13.516   0.555  1.00  0.00     0.024 A 
HETATM   30  C   UNL     1      41.130 -13.493   1.865  1.00  0.00     0.011 A 
ENDBRANCH   6  24
TORSDOF 6
ENDMDL
MODEL 3
REMARK VINA RESULT:      -7.5      4.312      8.024
REMARK  6 active torsions:
REMARK  status: ('A' for Active; 'I' for Inactive)
REMARK    1  A    between atoms: O_2  and  C_3 
REMARK    2  A    between atoms: C_3  and  C_4 
REMARK    3  A    between atoms: C_4  and  N_5 
REMARK       I    between atoms: N_5  and  C_6 
REMARK    4  A    between atoms: C_6  and  C_7 
REMARK    5  A    between atoms: C_12  and  C_13 
REMARK    6  A    between atoms: C_21  and  C_22 
ROOT
HETATM    1  C   UNL     1      40.547 -13.078   1.418  1.00  0.00     0.170 A 
HETATM    2  N   UNL     1      40.630 -14.129   2.273  1.00  0.00    -0.163 NA
HETATM    3  N   UNL     1      41.528 -13.726   3.184  1.00  0.00    -0.238 N 
HETATM    4  C   UNL     1      41.989 -12.453   2.997  1.00  0.00     0.145 A 
HETATM    5  N   UNL     1      42.860 -11.887   3.872  1.00  0.00    -0.365 N 
HETATM    6  C   UNL     1      43.514 -12.694   4.897  1.00  0.00     0.118 C 
HETATM    7  C   UNL     1      42.525 -13.749   5.426  1.00  0.00     0.066 C 
HETATM    8  C   UNL     1      41.941 -14.591   4.276  1.00  0.00     0.221 C 
HETATM    9  C   UNL     1      41.378 -12.005   1.848  1.00  0.00     0.115 A 
HETATM   10 CL   UNL     1      41.587 -10.488   1.117  1.00  0.00    -0.077 Cl
HETATM   11  H   UNL     1      43.346 -11.028   3.612  1.00  0.00     0.162 HD
ENDROOT
BRANCH   1  12
HETATM   12  C   UNL     1      39.679 -13.140   0.230  1.00  0.00     0.273 C 
HETATM   13  N   UNL     1      39.956 -14.215  -0.586  1.00  0.00    -0.353 N 
HETATM   14  H   UNL     1      40.599 -14.907  -0.206  1.00  0.00     0.162 HD
HETATM   15  O   UNL     1      38.798 -12.323  -0.016  1.00  0.00    -0.266 OA
BRANCH  13  16
HETATM   16  C   UNL     1      39.125 -14.587  -1.711  1.00  0.00     0.149 C 
BRANCH  16  17
HETATM   17  C   UNL     1      39.362 -13.666  -2.906  1.00  0.00     0.186 C 
BRANCH  17  18
HETATM   18  O   UNL     1      40.768 -13.578  -3.159  1.00  0.00    -0.394 OA
HETATM   19  C   UNL     1      41.221 -12.230  -3.111  1.00  0.00     0.201 C 
ENDBRANCH  17  18
ENDBRANCH  16  17
ENDBRANCH  13  16
ENDBRANCH   1  12
BRANCH   8  20
HETATM   20  C   UNL     1      42.927 -15.622   3.769  1.00  0.00     0.409 C 
HETATM   21  F   UNL     1      43.809 -16.016   4.713  1.00  0.00    -0.169 F 
HETATM   22  F   UNL     1      42.262 -16.739   3.372  1.00  0.00    -0.169 F 
HETATM   23  F   UNL     1      43.630 -15.195   2.700  1.00  0.00    -0.169 F 
ENDBRANCH   8  20
BRANCH   6  24
HETATM   24  C   UNL     1      44.017 -11.810   6.026  1.00  0.00    -0.035 A 
HETATM   25  C   UNL     1      45.387 -11.681   6.308  1.00  0.00     0.011 A 
HETATM   26  C   UNL     1      45.828 -10.846   7.337  1.00  0.00     0.024 A 
HETATM   27  C   UNL     1      44.904 -10.125   8.089  1.00  0.00     0.034 A 
HETATM   28 CL   UNL     1      45.445  -9.093   9.354  1.00  0.00    -0.084 Cl
HETATM   29  C   UNL     1      43.542 -10.233   7.819  1.00  0.00     0.024 A 
HETATM   30  C   UNL     1      43.100 -11.071   6.792  1.00  0.00     0.011 A 
ENDBRANCH   6  24
TORSDOF 6
ENDMDL
MODEL 4
REMARK VINA RESULT:      -7.2      4.999      9.637
REMARK  6 active torsions:
REMARK  status: ('A' for Active; 'I' for Inactive)
REMARK    1  A    between atoms: O_2  and  C_3 
REMARK    2  A    between atoms: C_3  and  C_4 
REMARK    3  A    between atoms: C_4  and  N_5 
REMARK       I    between atoms: N_5  and  C_6 
REMARK    4  A    between atoms: C_6  and  C_7 
REMARK    5  A    between atoms: C_12  and  C_13 
REMARK    6  A    between atoms: C_21  and  C_22 
ROOT
HETATM    1  C   UNL     1      42.078 -10.020   6.715  1.00  0.00     0.170 A 
HETATM    2  N   UNL     1      43.193 -10.567   7.264  1.00  0.00    -0.163 NA
HETATM    3  N   UNL     1      43.228 -10.042   8.498  1.00  0.00    -0.238 N 
HETATM    4  C   UNL     1      42.170  -9.230   8.797  1.00  0.00     0.145 A 
HETATM    5  N   UNL     1      42.040  -8.673  10.028  1.00  0.00    -0.365 N 
HETATM    6  C   UNL     1      43.139  -8.724  10.988  1.00  0.00     0.118 C 
HETATM    7  C   UNL     1      43.858 -10.080  10.869  1.00  0.00     0.066 C 
HETATM    8  C   UNL     1      44.308 -10.347   9.421  1.00  0.00     0.221 C 
HETATM    9  C   UNL     1      41.406  -9.185   7.653  1.00  0.00     0.115 A 
HETATM   10 CL   UNL     1      39.968  -8.311   7.431  1.00  0.00    -0.077 Cl
HETATM   11  H   UNL     1      41.368  -7.917  10.169  1.00  0.00     0.162 HD
ENDROOT
BRANCH   1  12
HETATM   12  C   UNL     1      41.700 -10.317   5.324  1.00  0.00     0.273 C 
HETATM   13  N   UNL     1      42.781 -10.605   4.520  1.00  0.00    -0.353 N 
HETATM   14  H   UNL     1      43.670 -10.730   5.000  1.00  0.00     0.162 HD
HETATM   15  O   UNL     1      40.544 -10.311   4.913  1.00  0.00    -0.266 OA
BRANCH  13  16
HETATM   16  C   UNL     1      42.648 -11.100   3.166  1.00  0.00     0.149 C 
BRANCH  16  17
HETATM   17  C   UNL     1      42.756 -12.623   3.117  1.00  0.00     0.186 C 
BRANCH  17  18
HETATM   18  O   UNL     1      43.316 -13.094   4.348  1.00  0.00    -0.394 OA
HETATM   19  C   UNL     1      42.605 -14.221   4.845  1.00  0.00     0.201 C 
ENDBRANCH  17  18
ENDBRANCH  16  17
ENDBRANCH  13  16
ENDBRANCH   1  12
BRANCH   8  20
HETATM   20  C   UNL     1      45.540  -9.547   9.052  1.00  0.00     0.409 C 
HETATM   21  F   UNL     1      45.244  -8.359   8.481  1.00  0.00    -0.169 F 
HETATM   22  F   UNL     1      46.262  -9.270  10.169  1.00  0.00    -0.169 F 
HETATM   23  F   UNL     1      46.366 -10.212   8.217  1.00  0.00    -0.169 F 
ENDBRANCH   8  20
BRANCH   6  24
HETATM   24  C   UNL     1      42.620  -8.508  12.399  1.00  0.00    -0.035 A 
HETATM   25  C   UNL     1      41.540  -9.247  12.910  1.00  0.00     0.011 A 
HETATM   26  C   UNL     1      41.093  -9.047  14.218  1.00  0.00     0.024 A 
HETATM   27  C   UNL     1      41.727  -8.110  15.031  1.00  0.00     0.034 A 
HETATM   28 CL   UNL     1      41.181  -7.865  16.643  1.00  0.00    -0.084 Cl
HETATM   29  C   UNL     1      42.804  -7.373  14.546  1.00  0.00     0.024 A 
HETATM   30  C   UNL     1      43.250  -7.571  13.236  1.00  0.00     0.011 A 
ENDBRANCH   6  24
TORSDOF 6
ENDMDL
MODEL 5
REMARK VINA RESULT:      -7.2      1.393      1.897
REMARK  6 active torsions:
REMARK  status: ('A' for Active; 'I' for Inactive)
REMARK    1  A    between atoms: O_2  and  C_3 
REMARK    2  A    between atoms: C_3  and  C_4 
REMARK    3  A    between atoms: C_4  and  N_5 
REMARK       I    between atoms: N_5  and  C_6 
REMARK    4  A    between atoms: C_6  and  C_7 
REMARK    5  A    between atoms: C_12  and  C_13 
REMARK    6  A    between atoms: C_21  and  C_22 
ROOT
HETATM    1  C   UNL     1      42.255 -10.889   6.754  1.00  0.00     0.170 A 
HETATM    2  N   UNL     1      41.044 -11.222   6.241  1.00  0.00    -0.163 NA
HETATM    3  N   UNL     1      41.309 -12.284   5.464  1.00  0.00    -0.238 N 
HETATM    4  C   UNL     1      42.615 -12.689   5.491  1.00  0.00     0.145 A 
HETATM    5  N   UNL     1      43.022 -13.785   4.800  1.00  0.00    -0.365 N 
HETATM    6  C   UNL     1      42.142 -14.418   3.822  1.00  0.00     0.118 C 
HETATM    7  C   UNL     1      40.692 -14.373   4.337  1.00  0.00     0.066 C 
HETATM    8  C   UNL     1      40.269 -12.935   4.687  1.00  0.00     0.221 C 
HETATM    9  C   UNL     1      43.262 -11.796   6.313  1.00  0.00     0.115 A 
HETATM   10 CL   UNL     1      44.913 -11.794   6.705  1.00  0.00    -0.077 Cl
HETATM   11  H   UNL     1      44.021 -13.950   4.665  1.00  0.00     0.162 HD
ENDROOT
BRANCH   1  12
HETATM   12  C   UNL     1      42.402  -9.725   7.643  1.00  0.00     0.273 C 
HETATM   13  N   UNL     1      41.505  -9.727   8.689  1.00  0.00    -0.353 N 
HETATM   14  H   UNL     1      40.969 -10.583   8.812  1.00  0.00     0.162 HD
HETATM   15  O   UNL     1      43.234  -8.839   7.478  1.00  0.00    -0.266 OA
BRANCH  13  16
HETATM   16  C   UNL     1      41.572  -8.787   9.788  1.00  0.00     0.149 C 
BRANCH  16  17
HETATM   17  C   UNL     1      42.510  -9.281  10.887  1.00  0.00     0.186 C 
BRANCH  17  18
HETATM   18  O   UNL     1      43.121  -8.154  11.524  1.00  0.00    -0.394 OA
HETATM   19  C   UNL     1      43.015  -8.236  12.940  1.00  0.00     0.201 C 
ENDBRANCH  17  18
ENDBRANCH  16  17
ENDBRANCH  13  16
ENDBRANCH   1  12
BRANCH   8  20
HETATM   20  C   UNL     1      39.963 -12.115   3.452  1.00  0.00     0.409 C 
HETATM   21  F   UNL     1      39.019 -11.172   3.666  1.00  0.00    -0.169 F 
HETATM   22  F   UNL     1      41.081 -11.457   3.045  1.00  0.00    -0.169 F 
HETATM   23  F   UNL     1      39.563 -12.869   2.407  1.00  0.00    -0.169 F 
ENDBRANCH   8  20
BRANCH   6  24
HETATM   24  C   UNL     1      42.581 -15.849   3.563  1.00  0.00    -0.035 A 
HETATM   25  C   UNL     1      42.247 -16.521   2.376  1.00  0.00     0.011 A 
HETATM   26  C   UNL     1      42.680 -17.829   2.150  1.00  0.00     0.024 A 
HETATM   27  C   UNL     1      43.458 -18.477   3.107  1.00  0.00     0.034 A 
HETATM   28 CL   UNL     1      43.995 -20.087   2.829  1.00  0.00    -0.084 Cl
HETATM   29  C   UNL     1      43.806 -17.825   4.287  1.00  0.00     0.024 A 
HETATM   30  C   UNL     1      43.371 -16.517   4.515  1.00  0.00     0.011 A 
ENDBRANCH   6  24
TORSDOF 6
ENDMDL
MODEL 6
REMARK VINA RESULT:      -6.8      4.417      7.800
REMARK  6 active torsions:
REMARK  status: ('A' for Active; 'I' for Inactive)
REMARK    1  A    between atoms: O_2  and  C_3 
REMARK    2  A    between atoms: C_3  and  C_4 
REMARK    3  A    between atoms: C_4  and  N_5 
REMARK       I    between atoms: N_5  and  C_6 
REMARK    4  A    between atoms: C_6  and  C_7 
REMARK    5  A    between atoms: C_12  and  C_13 
REMARK    6  A    between atoms: C_21  and  C_22 
ROOT
HETATM    1  C   UNL     1      43.270 -15.560   4.345  1.00  0.00     0.170 A 
HETATM    2  N   UNL     1      42.866 -14.414   4.951  1.00  0.00    -0.163 NA
HETATM    3  N   UNL     1      42.384 -13.675   3.940  1.00  0.00    -0.238 N 
HETATM    4  C   UNL     1      42.404 -14.300   2.724  1.00  0.00     0.145 A 
HETATM    5  N   UNL     1      41.896 -13.698   1.618  1.00  0.00    -0.365 N 
HETATM    6  C   UNL     1      41.537 -12.283   1.640  1.00  0.00     0.118 C 
HETATM    7  C   UNL     1      40.930 -11.931   3.010  1.00  0.00     0.066 C 
HETATM    8  C   UNL     1      41.875 -12.332   4.158  1.00  0.00     0.221 C 
HETATM    9  C   UNL     1      42.985 -15.527   2.950  1.00  0.00     0.115 A 
HETATM   10 CL   UNL     1      43.288 -16.732   1.794  1.00  0.00    -0.077 Cl
HETATM   11  H   UNL     1      42.102 -14.086   0.696  1.00  0.00     0.162 HD
ENDROOT
BRANCH   1  12
HETATM   12  C   UNL     1      43.908 -16.637   5.121  1.00  0.00     0.273 C 
HETATM   13  N   UNL     1      43.400 -17.884   4.833  1.00  0.00    -0.353 N 
HETATM   14  H   UNL     1      42.775 -17.935   4.030  1.00  0.00     0.162 HD
HETATM   15  O   UNL     1      44.800 -16.451   5.942  1.00  0.00    -0.266 OA
BRANCH  13  16
HETATM   16  C   UNL     1      43.986 -19.110   5.333  1.00  0.00     0.149 C 
BRANCH  16  17
HETATM   17  C   UNL     1      44.024 -20.190   4.254  1.00  0.00     0.186 C 
BRANCH  17  18
HETATM   18  O   UNL     1      44.051 -19.566   2.966  1.00  0.00    -0.394 OA
HETATM   19  C   UNL     1      43.623 -20.460   1.946  1.00  0.00     0.201 C 
ENDBRANCH  17  18
ENDBRANCH  16  17
ENDBRANCH  13  16
ENDBRANCH   1  12
BRANCH   8  20
HETATM   20  C   UNL     1      43.030 -11.364   4.307  1.00  0.00     0.409 C 
HETATM   21  F   UNL     1      42.707 -10.100   3.959  1.00  0.00    -0.169 F 
HETATM   22  F   UNL     1      43.428 -11.317   5.606  1.00  0.00    -0.169 F 
HETATM   23  F   UNL     1      44.114 -11.725   3.589  1.00  0.00    -0.169 F 
ENDBRANCH   8  20
BRANCH   6  24
HETATM   24  C   UNL     1      40.563 -11.967   0.519  1.00  0.00    -0.035 A 
HETATM   25  C   UNL     1      39.684 -12.937   0.008  1.00  0.00     0.011 A 
HETATM   26  C   UNL     1      38.780 -12.618  -1.008  1.00  0.00     0.024 A 
HETATM   27  C   UNL     1      38.743 -11.323  -1.520  1.00  0.00     0.034 A 
HETATM   28 CL   UNL     1      37.629 -10.927  -2.769  1.00  0.00    -0.084 Cl
HETATM   29  C   UNL     1      39.600 -10.345  -1.022  1.00  0.00     0.024 A 
HETATM   30  C   UNL     1      40.506 -10.665  -0.007  1.00  0.00     0.011 A 
ENDBRANCH   6  24
TORSDOF 6
ENDMDL
MODEL 7
REMARK VINA RESULT:      -6.7     17.435     19.063
REMARK  6 active torsions:
REMARK  status: ('A' for Active; 'I' for Inactive)
REMARK    1  A    between atoms: O_2  and  C_3 
REMARK    2  A    between atoms: C_3  and  C_4 
REMARK    3  A    between atoms: C_4  and  N_5 
REMARK       I    between atoms: N_5  and  C_6 
REMARK    4  A    between atoms: C_6  and  C_7 
REMARK    5  A    between atoms: C_12  and  C_13 
REMARK    6  A    between atoms: C_21  and  C_22 
ROOT
HETATM    1  C   UNL     1      43.724 -30.556   1.415  1.00  0.00     0.170 A 
HETATM    2  N   UNL     1      44.149 -29.344   0.975  1.00  0.00    -0.163 NA
HETATM    3  N   UNL     1      44.522 -29.579  -0.292  1.00  0.00    -0.238 N 
HETATM    4  C   UNL     1      44.311 -30.863  -0.713  1.00  0.00     0.145 A 
HETATM    5  N   UNL     1      44.586 -31.236  -1.989  1.00  0.00    -0.365 N 
HETATM    6  C   UNL     1      45.336 -30.353  -2.877  1.00  0.00     0.118 C 
HETATM    7  C   UNL     1      44.924 -28.893  -2.613  1.00  0.00     0.066 C 
HETATM    8  C   UNL     1      45.083 -28.530  -1.125  1.00  0.00     0.221 C 
HETATM    9  C   UNL     1      43.802 -31.530   0.378  1.00  0.00     0.115 A 
HETATM   10 CL   UNL     1      43.365 -33.168   0.449  1.00  0.00    -0.077 Cl
HETATM   11  H   UNL     1      44.619 -32.229  -2.226  1.00  0.00     0.162 HD
ENDROOT
BRANCH   1  12
HETATM   12  C   UNL     1      43.262 -30.735   2.801  1.00  0.00     0.273 C 
HETATM   13  N   UNL     1      42.041 -30.145   3.044  1.00  0.00    -0.353 N 
HETATM   14  H   UNL     1      41.543 -29.802   2.225  1.00  0.00     0.162 HD
HETATM   15  O   UNL     1      43.893 -31.344   3.659  1.00  0.00    -0.266 OA
BRANCH  13  16
HETATM   16  C   UNL     1      41.303 -30.336   4.274  1.00  0.00     0.149 C 
BRANCH  16  17
HETATM   17  C   UNL     1      40.329 -31.508   4.163  1.00  0.00     0.186 C 
BRANCH  17  18
HETATM   18  O   UNL     1      39.512 -31.552   5.337  1.00  0.00    -0.394 OA
HETATM   19  C   UNL     1      39.316 -32.888   5.784  1.00  0.00     0.201 C 
ENDBRANCH  17  18
ENDBRANCH  16  17
ENDBRANCH  13  16
ENDBRANCH   1  12
BRANCH   8  20
HETATM   20  C   UNL     1      46.531 -28.295  -0.748  1.00  0.00     0.409 C 
HETATM   21  F   UNL     1      47.201 -29.441  -0.496  1.00  0.00    -0.169 F 
HETATM   22  F   UNL     1      47.182 -27.685  -1.773  1.00  0.00    -0.169 F 
HETATM   23  F   UNL     1      46.670 -27.490   0.326  1.00  0.00    -0.169 F 
ENDBRANCH   8  20
BRANCH   6  24
HETATM   24  C   UNL     1      45.092 -30.730  -4.328  1.00  0.00    -0.035 A 
HETATM   25  C   UNL     1      43.934 -30.325  -5.012  1.00  0.00     0.011 A 
HETATM   26  C   UNL     1      43.742 -30.665  -6.353  1.00  0.00     0.024 A 
HETATM   27  C   UNL     1      44.709 -31.408  -7.026  1.00  0.00     0.034 A 
HETATM   28 CL   UNL     1      44.475 -31.825  -8.678  1.00  0.00    -0.084 Cl
HETATM   29  C   UNL     1      45.868 -31.812  -6.367  1.00  0.00     0.024 A 
HETATM   30  C   UNL     1      46.060 -31.474  -5.025  1.00  0.00     0.011 A 
ENDBRANCH   6  24
TORSDOF 6
ENDMDL
MODEL 8
REMARK VINA RESULT:      -6.7     17.281     18.725
REMARK  6 active torsions:
REMARK  status: ('A' for Active; 'I' for Inactive)
REMARK    1  A    between atoms: O_2  and  C_3 
REMARK    2  A    between atoms: C_3  and  C_4 
REMARK    3  A    between atoms: C_4  and  N_5 
REMARK       I    between atoms: N_5  and  C_6 
REMARK    4  A    between atoms: C_6  and  C_7 
REMARK    5  A    between atoms: C_12  and  C_13 
REMARK    6  A    between atoms: C_21  and  C_22 
ROOT
HETATM    1  C   UNL     1      43.766 -30.011   0.863  1.00  0.00     0.170 A 
HETATM    2  N   UNL     1      43.932 -29.730  -0.455  1.00  0.00    -0.163 NA
HETATM    3  N   UNL     1      45.263 -29.771  -0.623  1.00  0.00    -0.238 N 
HETATM    4  C   UNL     1      45.962 -30.118   0.500  1.00  0.00     0.145 A 
HETATM    5  N   UNL     1      47.313 -30.257   0.468  1.00  0.00    -0.365 N 
HETATM    6  C   UNL     1      48.080 -29.809  -0.690  1.00  0.00     0.118 C 
HETATM    7  C   UNL     1      47.284 -30.101  -1.974  1.00  0.00     0.066 C 
HETATM    8  C   UNL     1      45.875 -29.484  -1.909  1.00  0.00     0.221 C 
HETATM    9  C   UNL     1      45.019 -30.271   1.490  1.00  0.00     0.115 A 
HETATM   10 CL   UNL     1      45.310 -30.683   3.110  1.00  0.00    -0.077 Cl
HETATM   11  H   UNL     1      47.832 -30.311   1.346  1.00  0.00     0.162 HD
ENDROOT
BRANCH   1  12
HETATM   12  C   UNL     1      42.424 -30.022   1.467  1.00  0.00     0.273 C 
HETATM   13  N   UNL     1      42.075 -31.250   1.986  1.00  0.00    -0.353 N 
HETATM   14  H   UNL     1      42.821 -31.941   2.032  1.00  0.00     0.162 HD
HETATM   15  O   UNL     1      41.685 -29.044   1.508  1.00  0.00    -0.266 OA
BRANCH  13  16
HETATM   16  C   UNL     1      40.886 -31.460   2.784  1.00  0.00     0.149 C 
BRANCH  16  17
HETATM   17  C   UNL     1      41.102 -31.023   4.231  1.00  0.00     0.186 C 
BRANCH  17  18
HETATM   18  O   UNL     1      39.882 -31.194   4.960  1.00  0.00    -0.394 OA
HETATM   19  C   UNL     1      39.385 -32.521   4.839  1.00  0.00     0.201 C 
ENDBRANCH  17  18
ENDBRANCH  16  17
ENDBRANCH  13  16
ENDBRANCH   1  12
BRANCH   8  20
HETATM   20  C   UNL     1      45.898 -27.988  -2.142  1.00  0.00     0.409 C 
HETATM   21  F   UNL     1      45.266 -27.623  -3.279  1.00  0.00    -0.169 F 
HETATM   22  F   UNL     1      45.259 -27.352  -1.125  1.00  0.00    -0.169 F 
HETATM   23  F   UNL     1      47.148 -27.482  -2.183  1.00  0.00    -0.169 F 
ENDBRANCH   8  20
BRANCH   6  24
HETATM   24  C   UNL     1      49.435 -30.496  -0.725  1.00  0.00    -0.035 A 
HETATM   25  C   UNL     1      49.874 -31.318   0.327  1.00  0.00     0.011 A 
HETATM   26  C   UNL     1      51.114 -31.956   0.263  1.00  0.00     0.024 A 
HETATM   27  C   UNL     1      51.925 -31.785  -0.857  1.00  0.00     0.034 A 
HETATM   28 CL   UNL     1      53.451 -32.574  -0.938  1.00  0.00    -0.084 Cl
HETATM   29  C   UNL     1      51.504 -30.981  -1.912  1.00  0.00     0.024 A 
HETATM   30  C   UNL     1      50.265 -30.340  -1.848  1.00  0.00     0.011 A 
ENDBRANCH   6  24
TORSDOF 6
ENDMDL
MODEL 9
REMARK VINA RESULT:      -6.6      7.971     12.782
REMARK  6 active torsions:
REMARK  status: ('A' for Active; 'I' for Inactive)
REMARK    1  A    between atoms: O_2  and  C_3 
REMARK    2  A    between atoms: C_3  and  C_4 
REMARK    3  A    between atoms: C_4  and  N_5 
REMARK       I    between atoms: N_5  and  C_6 
REMARK    4  A    between atoms: C_6  and  C_7 
REMARK    5  A    between atoms: C_12  and  C_13 
REMARK    6  A    between atoms: C_21  and  C_22 
ROOT
HETATM    1  C   UNL     1      39.519  -8.450  11.366  1.00  0.00     0.170 A 
HETATM    2  N   UNL     1      40.741  -8.918  11.731  1.00  0.00    -0.163 NA
HETATM    3  N   UNL     1      40.936  -8.381  12.945  1.00  0.00    -0.238 N 
HETATM    4  C   UNL     1      39.887  -7.638  13.408  1.00  0.00     0.145 A 
HETATM    5  N   UNL     1      39.916  -7.079  14.646  1.00  0.00    -0.365 N 
HETATM    6  C   UNL     1      41.154  -7.050  15.420  1.00  0.00     0.118 C 
HETATM    7  C   UNL     1      41.932  -8.358  15.187  1.00  0.00     0.066 C 
HETATM    8  C   UNL     1      42.165  -8.607  13.686  1.00  0.00     0.221 C 
HETATM    9  C   UNL     1      38.950  -7.652  12.400  1.00  0.00     0.115 A 
HETATM   10 CL   UNL     1      37.442  -6.875  12.409  1.00  0.00    -0.077 Cl
HETATM   11  H   UNL     1      39.226  -6.367  14.892  1.00  0.00     0.162 HD
ENDROOT
BRANCH   1  12
HETATM   12  C   UNL     1      38.947  -8.783  10.051  1.00  0.00     0.273 C 
HETATM   13  N   UNL     1      39.567  -9.856   9.449  1.00  0.00    -0.353 N 
HETATM   14  H   UNL     1      40.221 -10.375  10.031  1.00  0.00     0.162 HD
HETATM   15  O   UNL     1      38.015  -8.173   9.537  1.00  0.00    -0.266 OA
BRANCH  13  16
HETATM   16  C   UNL     1      39.068 -10.479   8.241  1.00  0.00     0.149 C 
BRANCH  16  17
HETATM   17  C   UNL     1      39.865 -10.035   7.016  1.00  0.00     0.186 C 
BRANCH  17  18
HETATM   18  O   UNL     1      41.236  -9.860   7.386  1.00  0.00    -0.394 OA
HETATM   19  C   UNL     1      41.760  -8.639   6.876  1.00  0.00     0.201 C 
ENDBRANCH  17  18
ENDBRANCH  16  17
ENDBRANCH  13  16
ENDBRANCH   1  12
BRANCH   8  20
HETATM   20  C   UNL     1      43.268  -7.732  13.127  1.00  0.00     0.409 C 
HETATM   21  F   UNL     1      44.094  -8.396  12.289  1.00  0.00    -0.169 F 
HETATM   22  F   UNL     1      42.729  -6.712  12.410  1.00  0.00    -0.169 F 
HETATM   23  F   UNL     1      44.025  -7.165  14.089  1.00  0.00    -0.169 F 
ENDBRANCH   8  20
BRANCH   6  24
HETATM   24  C   UNL     1      40.851  -6.856  16.896  1.00  0.00    -0.035 A 
HETATM   25  C   UNL     1      40.436  -7.922  17.711  1.00  0.00     0.011 A 
HETATM   26  C   UNL     1      40.184  -7.725  19.071  1.00  0.00     0.024 A 
HETATM   27  C   UNL     1      40.351  -6.460  19.630  1.00  0.00     0.034 A 
HETATM   28 CL   UNL     1      40.044  -6.216  21.304  1.00  0.00    -0.084 Cl
HETATM   29  C   UNL     1      40.769  -5.392  18.840  1.00  0.00     0.024 A 
HETATM   30  C   UNL     1      41.019  -5.588  17.479  1.00  0.00     0.011 A 
ENDBRANCH   6  24
TORSDOF 6
ENDMDL
MODEL 10
REMARK VINA RESULT:      -6.5      6.122      9.617
REMARK  6 active torsions:
REMARK  status: ('A' for Active; 'I' for Inactive)
REMARK    1  A    between atoms: O_2  and  C_3 
REMARK    2  A    between atoms: C_3  and  C_4 
REMARK    3  A    between atoms: C_4  and  N_5 
REMARK       I    between atoms: N_5  and  C_6 
REMARK    4  A    between atoms: C_6  and  C_7 
REMARK    5  A    between atoms: C_12  and  C_13 
REMARK    6  A    between atoms: C_21  and  C_22 
ROOT
HETATM    1  C   UNL     1      41.889 -10.192   6.878  1.00  0.00     0.170 A 
HETATM    2  N   UNL     1      43.056 -10.686   7.366  1.00  0.00    -0.163 NA
HETATM    3  N   UNL     1      43.161 -10.114   8.575  1.00  0.00    -0.238 N 
HETATM    4  C   UNL     1      42.101  -9.322   8.918  1.00  0.00     0.145 A 
HETATM    5  N   UNL     1      42.039  -8.722  10.135  1.00  0.00    -0.365 N 
HETATM    6  C   UNL     1      43.203  -8.706  11.016  1.00  0.00     0.118 C 
HETATM    7  C   UNL     1      43.954 -10.045  10.896  1.00  0.00     0.066 C 
HETATM    8  C   UNL     1      44.311 -10.353   9.430  1.00  0.00     0.221 C 
HETATM    9  C   UNL     1      41.258  -9.342   7.830  1.00  0.00     0.115 A 
HETATM   10 CL   UNL     1      39.783  -8.518   7.678  1.00  0.00    -0.077 Cl
HETATM   11  H   UNL     1      41.355  -7.981  10.295  1.00  0.00     0.162 HD
ENDROOT
BRANCH   1  12
HETATM   12  C   UNL     1      41.425 -10.553   5.528  1.00  0.00     0.273 C 
HETATM   13  N   UNL     1      41.662  -9.568   4.595  1.00  0.00    -0.353 N 
HETATM   14  H   UNL     1      42.253  -8.798   4.902  1.00  0.00     0.162 HD
HETATM   15  O   UNL     1      40.882 -11.618   5.253  1.00  0.00    -0.266 OA
BRANCH  13  16
HETATM   16  C   UNL     1      41.459  -9.761   3.174  1.00  0.00     0.149 C 
BRANCH  16  17
HETATM   17  C   UNL     1      40.297  -8.916   2.657  1.00  0.00     0.186 C 
BRANCH  17  18
HETATM   18  O   UNL     1      39.649  -8.283   3.765  1.00  0.00    -0.394 OA
HETATM   19  C   UNL     1      39.452  -6.894   3.528  1.00  0.00     0.201 C 
ENDBRANCH  17  18
ENDBRANCH  16  17
ENDBRANCH  13  16
ENDBRANCH   1  12
BRANCH   8  20
HETATM   20  C   UNL     1      45.489  -9.533   8.946  1.00  0.00     0.409 C 
HETATM   21  F   UNL     1      46.326  -9.175   9.944  1.00  0.00    -0.169 F 
HETATM   22  F   UNL     1      46.226 -10.260   8.065  1.00  0.00    -0.169 F 
HETATM   23  F   UNL     1      45.115  -8.411   8.298  1.00  0.00    -0.169 F 
ENDBRANCH   8  20
BRANCH   6  24
HETATM   24  C   UNL     1      42.777  -8.451  12.451  1.00  0.00    -0.035 A 
HETATM   25  C   UNL     1      43.362  -7.436  13.227  1.00  0.00     0.011 A 
HETATM   26  C   UNL     1      42.938  -7.206  14.538  1.00  0.00     0.024 A 
HETATM   27  C   UNL     1      41.920  -7.984  15.084  1.00  0.00     0.034 A 
HETATM   28 CL   UNL     1      41.395  -7.700  16.697  1.00  0.00    -0.084 Cl
HETATM   29  C   UNL     1      41.322  -8.990  14.329  1.00  0.00     0.024 A 
HETATM   30  C   UNL     1      41.747  -9.222  13.018  1.00  0.00     0.011 A 
ENDBRANCH   6  24
TORSDOF 6
ENDMDL
