MODEL 1
REMARK VINA RESULT:      -8.9      0.000      0.000
REMARK  5 active torsions:
REMARK  status: ('A' for Active; 'I' for Inactive)
REMARK    1  A    between atoms: C_5  and  O_6 
REMARK    2  A    between atoms: O_6  and  C_7 
REMARK    3  A    between atoms: C_7  and  C_8 
REMARK       I    between atoms: C_8  and  N_9 
REMARK    4  A    between atoms: N_9  and  N_10 
REMARK       I    between atoms: N_10  and  C_11 
REMARK    5  A    between atoms: C_11  and  C_12 
ROOT
HETATM    1  N   UNL     1      43.895 -13.596   6.808  1.00  0.00    -0.263 N 
HETATM    2  C   UNL     1      42.809 -14.322   6.358  1.00  0.00     0.276 C 
HETATM    3  O   UNL     1      41.652 -13.925   6.487  1.00  0.00    -0.266 OA
HETATM    4  H   UNL     1      44.838 -13.993   6.793  1.00  0.00     0.190 HD
ENDROOT
BRANCH   1   5
HETATM    5  N   UNL     1      43.688 -12.425   7.539  1.00  0.00    -0.265 N 
HETATM    6  C   UNL     1      44.651 -11.438   7.506  1.00  0.00     0.260 C 
HETATM    7  O   UNL     1      45.655 -11.498   6.797  1.00  0.00    -0.269 OA
HETATM    8  H   UNL     1      42.920 -12.412   8.209  1.00  0.00     0.190 HD
BRANCH   6   9
HETATM    9  C   UNL     1      44.408 -10.297   8.488  1.00  0.00     0.280 C 
BRANCH   9  10
HETATM   10  O   UNL     1      44.873 -10.646   9.788  1.00  0.00    -0.342 OA
BRANCH  10  11
HETATM   11  C   UNL     1      44.181 -10.087  10.829  1.00  0.00     0.069 A 
HETATM   12  C   UNL     1      43.543 -10.994  11.676  1.00  0.00     0.037 A 
HETATM   13  C   UNL     1      42.813 -10.541  12.778  1.00  0.00     0.009 A 
HETATM   14  C   UNL     1      42.717  -9.172  13.048  1.00  0.00    -0.062 A 
HETATM   15  C   UNL     1      41.967  -8.680  14.250  1.00  0.00     0.048 C 
HETATM   16  C   UNL     1      43.388  -8.269  12.216  1.00  0.00     0.009 A 
HETATM   17  C   UNL     1      44.114  -8.723  11.109  1.00  0.00     0.037 A 
ENDBRANCH  10  11
ENDBRANCH   9  10
ENDBRANCH   6   9
ENDBRANCH   1   5
BRANCH   2  18
HETATM   18  C   UNL     1      43.142 -15.584   5.720  1.00  0.00     0.107 A 
HETATM   19  C   UNL     1      42.960 -15.924   4.392  1.00  0.00     0.169 A 
HETATM   20  N   UNL     1      43.409 -17.241   4.248  1.00  0.00    -0.219 N 
HETATM   21  N   UNL     1      42.453 -15.205   3.341  1.00  0.00    -0.233 NA
HETATM   22  C   UNL     1      43.336 -17.889   3.005  1.00  0.00     0.036 A 
HETATM   23  N   UNL     1      43.882 -17.729   5.420  1.00  0.00    -0.170 NA
HETATM   24  C   UNL     1      43.806 -19.306   2.884  1.00  0.00     0.070 C 
HETATM   25  C   UNL     1      42.836 -17.222   1.948  1.00  0.00     0.053 A 
HETATM   26  C   UNL     1      42.398 -15.812   2.191  1.00  0.00     0.035 A 
HETATM   27  C   UNL     1      41.858 -15.042   1.012  1.00  0.00     0.070 C 
HETATM   28  C   UNL     1      43.723 -16.738   6.303  1.00  0.00     0.071 A 
HETATM   29  C   UNL     1      44.144 -16.932   7.716  1.00  0.00     0.073 C 
ENDBRANCH   2  18
TORSDOF 5
ENDMDL
MODEL 2
REMARK VINA RESULT:      -8.8      2.865      9.811
REMARK  5 active torsions:
REMARK  status: ('A' for Active; 'I' for Inactive)
REMARK    1  A    between atoms: C_5  and  O_6 
REMARK    2  A    between atoms: O_6  and  C_7 
REMARK    3  A    between atoms: C_7  and  C_8 
REMARK       I    between atoms: C_8  and  N_9 
REMARK    4  A    between atoms: N_9  and  N_10 
REMARK       I    between atoms: N_10  and  C_11 
REMARK    5  A    between atoms: C_11  and  C_12 
ROOT
HETATM    1  N   UNL     1      42.649 -11.447   6.907  1.00  0.00    -0.263 N 
HETATM    2  C   UNL     1      43.718 -11.133   7.724  1.00  0.00     0.276 C 
HETATM    3  O   UNL     1      44.598 -11.947   7.999  1.00  0.00    -0.266 OA
HETATM    4  H   UNL     1      41.872 -10.793   6.781  1.00  0.00     0.190 HD
ENDROOT
BRANCH   1   5
HETATM    5  N   UNL     1      42.481 -12.759   6.462  1.00  0.00    -0.265 N 
HETATM    6  C   UNL     1      42.915 -13.096   5.198  1.00  0.00     0.260 C 
HETATM    7  O   UNL     1      43.521 -12.318   4.461  1.00  0.00    -0.269 OA
HETATM    8  H   UNL     1      41.887 -13.376   7.016  1.00  0.00     0.190 HD
BRANCH   6   9
HETATM    9  C   UNL     1      42.506 -14.496   4.751  1.00  0.00     0.280 C 
BRANCH   9  10
HETATM   10  O   UNL     1      43.428 -15.467   5.236  1.00  0.00    -0.342 OA
BRANCH  10  11
HETATM   11  C   UNL     1      43.498 -16.626   4.510  1.00  0.00     0.069 A 
HETATM   12  C   UNL     1      42.775 -16.625   3.316  1.00  0.00     0.037 A 
HETATM   13  C   UNL     1      42.778 -17.750   2.486  1.00  0.00     0.009 A 
HETATM   14  C   UNL     1      43.509 -18.888   2.840  1.00  0.00    -0.062 A 
HETATM   15  C   UNL     1      43.546 -20.085   1.936  1.00  0.00     0.048 C 
HETATM   16  C   UNL     1      44.259 -18.871   4.021  1.00  0.00     0.009 A 
HETATM   17  C   UNL     1      44.252 -17.747   4.854  1.00  0.00     0.037 A 
ENDBRANCH  10  11
ENDBRANCH   9  10
ENDBRANCH   6   9
ENDBRANCH   1   5
BRANCH   2  18
HETATM   18  C   UNL     1      43.722  -9.769   8.225  1.00  0.00     0.107 A 
HETATM   19  C   UNL     1      42.643  -9.050   8.704  1.00  0.00     0.169 A 
HETATM   20  N   UNL     1      43.126  -7.784   9.054  1.00  0.00    -0.219 N 
HETATM   21  N   UNL     1      41.326  -9.397   8.853  1.00  0.00    -0.233 NA
HETATM   22  C   UNL     1      42.257  -6.804   9.559  1.00  0.00     0.036 A 
HETATM   23  N   UNL     1      44.459  -7.690   8.834  1.00  0.00    -0.170 NA
HETATM   24  C   UNL     1      42.797  -5.450   9.906  1.00  0.00     0.070 C 
HETATM   25  C   UNL     1      40.954  -7.100   9.712  1.00  0.00     0.053 A 
HETATM   26  C   UNL     1      40.531  -8.483   9.331  1.00  0.00     0.035 A 
HETATM   27  C   UNL     1      39.078  -8.841   9.519  1.00  0.00     0.070 C 
HETATM   28  C   UNL     1      44.819  -8.878   8.338  1.00  0.00     0.071 A 
HETATM   29  C   UNL     1      46.239  -9.129   7.978  1.00  0.00     0.073 C 
ENDBRANCH   2  18
TORSDOF 5
ENDMDL
MODEL 3
REMARK VINA RESULT:      -8.6      1.691      3.045
REMARK  5 active torsions:
REMARK  status: ('A' for Active; 'I' for Inactive)
REMARK    1  A    between atoms: C_5  and  O_6 
REMARK    2  A    between atoms: O_6  and  C_7 
REMARK    3  A    between atoms: C_7  and  C_8 
REMARK       I    between atoms: C_8  and  N_9 
REMARK    4  A    between atoms: N_9  and  N_10 
REMARK       I    between atoms: N_10  and  C_11 
REMARK    5  A    between atoms: C_11  and  C_12 
ROOT
HETATM    1  N   UNL     1      43.675 -12.131   7.042  1.00  0.00    -0.263 N 
HETATM    2  C   UNL     1      42.668 -12.002   6.105  1.00  0.00     0.276 C 
HETATM    3  O   UNL     1      41.756 -11.186   6.227  1.00  0.00    -0.266 OA
HETATM    4  H   UNL     1      44.359 -12.888   6.979  1.00  0.00     0.190 HD
ENDROOT
BRANCH   1   5
HETATM    5  N   UNL     1      43.611 -11.401   8.230  1.00  0.00    -0.265 N 
HETATM    6  C   UNL     1      44.731 -10.719   8.656  1.00  0.00     0.260 C 
HETATM    7  O   UNL     1      45.770 -10.651   8.000  1.00  0.00    -0.269 OA
HETATM    8  H   UNL     1      42.798 -11.540   8.830  1.00  0.00     0.190 HD
BRANCH   6   9
HETATM    9  C   UNL     1      44.603 -10.122  10.054  1.00  0.00     0.280 C 
BRANCH   9  10
HETATM   10  O   UNL     1      43.302 -10.356  10.583  1.00  0.00    -0.342 OA
BRANCH  10  11
HETATM   11  C   UNL     1      42.984  -9.633  11.701  1.00  0.00     0.069 A 
HETATM   12  C   UNL     1      41.956 -10.163  12.482  1.00  0.00     0.037 A 
HETATM   13  C   UNL     1      41.549  -9.516  13.651  1.00  0.00     0.009 A 
HETATM   14  C   UNL     1      42.170  -8.331  14.057  1.00  0.00    -0.062 A 
HETATM   15  C   UNL     1      41.764  -7.651  15.331  1.00  0.00     0.048 C 
HETATM   16  C   UNL     1      43.224  -7.822  13.289  1.00  0.00     0.009 A 
HETATM   17  C   UNL     1      43.627  -8.467  12.114  1.00  0.00     0.037 A 
ENDBRANCH  10  11
ENDBRANCH   9  10
ENDBRANCH   6   9
ENDBRANCH   1   5
BRANCH   2  18
HETATM   18  C   UNL     1      42.775 -12.899   4.967  1.00  0.00     0.107 A 
HETATM   19  C   UNL     1      42.914 -14.275   4.996  1.00  0.00     0.169 A 
HETATM   20  N   UNL     1      42.995 -14.699   3.666  1.00  0.00    -0.219 N 
HETATM   21  N   UNL     1      42.974 -15.150   6.048  1.00  0.00    -0.233 NA
HETATM   22  C   UNL     1      43.164 -16.058   3.359  1.00  0.00     0.036 A 
HETATM   23  N   UNL     1      42.892 -13.654   2.809  1.00  0.00    -0.170 NA
HETATM   24  C   UNL     1      43.268 -16.483   1.926  1.00  0.00     0.070 C 
HETATM   25  C   UNL     1      43.237 -16.952   4.363  1.00  0.00     0.053 A 
HETATM   26  C   UNL     1      43.121 -16.409   5.753  1.00  0.00     0.035 A 
HETATM   27  C   UNL     1      43.176 -17.399   6.889  1.00  0.00     0.070 C 
HETATM   28  C   UNL     1      42.759 -12.575   3.587  1.00  0.00     0.071 A 
HETATM   29  C   UNL     1      42.619 -11.230   2.968  1.00  0.00     0.073 C 
ENDBRANCH   2  18
TORSDOF 5
ENDMDL
MODEL 4
REMARK VINA RESULT:      -8.5      2.094      2.929
REMARK  5 active torsions:
REMARK  status: ('A' for Active; 'I' for Inactive)
REMARK    1  A    between atoms: C_5  and  O_6 
REMARK    2  A    between atoms: O_6  and  C_7 
REMARK    3  A    between atoms: C_7  and  C_8 
REMARK       I    between atoms: C_8  and  N_9 
REMARK    4  A    between atoms: N_9  and  N_10 
REMARK       I    between atoms: N_10  and  C_11 
REMARK    5  A    between atoms: C_11  and  C_12 
ROOT
HETATM    1  N   UNL     1      43.627 -12.638   5.970  1.00  0.00    -0.263 N 
HETATM    2  C   UNL     1      43.212 -13.935   6.199  1.00  0.00     0.276 C 
HETATM    3  O   UNL     1      43.379 -14.499   7.279  1.00  0.00    -0.266 OA
HETATM    4  H   UNL     1      43.581 -12.226   5.035  1.00  0.00     0.190 HD
ENDROOT
BRANCH   1   5
HETATM    5  N   UNL     1      44.366 -11.966   6.946  1.00  0.00    -0.265 N 
HETATM    6  C   UNL     1      45.475 -11.242   6.563  1.00  0.00     0.260 C 
HETATM    7  O   UNL     1      45.808 -11.087   5.389  1.00  0.00    -0.269 OA
HETATM    8  H   UNL     1      44.165 -12.177   7.923  1.00  0.00     0.190 HD
BRANCH   6   9
HETATM    9  C   UNL     1      46.308 -10.716   7.728  1.00  0.00     0.280 C 
BRANCH   9  10
HETATM   10  O   UNL     1      46.107  -9.316   7.896  1.00  0.00    -0.342 OA
BRANCH  10  11
HETATM   11  C   UNL     1      45.206  -8.964   8.865  1.00  0.00     0.069 A 
HETATM   12  C   UNL     1      45.279  -9.706  10.045  1.00  0.00     0.037 A 
HETATM   13  C   UNL     1      44.415  -9.433  11.109  1.00  0.00     0.009 A 
HETATM   14  C   UNL     1      43.470  -8.408  11.005  1.00  0.00    -0.062 A 
HETATM   15  C   UNL     1      42.564  -8.084  12.157  1.00  0.00     0.048 C 
HETATM   16  C   UNL     1      43.423  -7.645   9.833  1.00  0.00     0.009 A 
HETATM   17  C   UNL     1      44.285  -7.923   8.767  1.00  0.00     0.037 A 
ENDBRANCH  10  11
ENDBRANCH   9  10
ENDBRANCH   6   9
ENDBRANCH   1   5
BRANCH   2  18
HETATM   18  C   UNL     1      42.561 -14.575   5.068  1.00  0.00     0.107 A 
HETATM   19  C   UNL     1      41.524 -14.072   4.304  1.00  0.00     0.169 A 
HETATM   20  N   UNL     1      41.220 -15.046   3.347  1.00  0.00    -0.219 N 
HETATM   21  N   UNL     1      40.851 -12.880   4.375  1.00  0.00    -0.233 NA
HETATM   22  C   UNL     1      40.183 -14.839   2.424  1.00  0.00     0.036 A 
HETATM   23  N   UNL     1      42.033 -16.123   3.466  1.00  0.00    -0.170 NA
HETATM   24  C   UNL     1      39.865 -15.907   1.422  1.00  0.00     0.070 C 
HETATM   25  C   UNL     1      39.490 -13.686   2.464  1.00  0.00     0.053 A 
HETATM   26  C   UNL     1      39.898 -12.696   3.508  1.00  0.00     0.035 A 
HETATM   27  C   UNL     1      39.148 -11.388   3.553  1.00  0.00     0.070 C 
HETATM   28  C   UNL     1      42.838 -15.842   4.496  1.00  0.00     0.071 A 
HETATM   29  C   UNL     1      43.874 -16.824   4.913  1.00  0.00     0.073 C 
ENDBRANCH   2  18
TORSDOF 5
ENDMDL
MODEL 5
REMARK VINA RESULT:      -8.5      5.693      9.267
REMARK  5 active torsions:
REMARK  status: ('A' for Active; 'I' for Inactive)
REMARK    1  A    between atoms: C_5  and  O_6 
REMARK    2  A    between atoms: O_6  and  C_7 
REMARK    3  A    between atoms: C_7  and  C_8 
REMARK       I    between atoms: C_8  and  N_9 
REMARK    4  A    between atoms: N_9  and  N_10 
REMARK       I    between atoms: N_10  and  C_11 
REMARK    5  A    between atoms: C_11  and  C_12 
ROOT
HETATM    1  N   UNL     1      39.562 -14.175   2.973  1.00  0.00    -0.263 N 
HETATM    2  C   UNL     1      40.184 -13.650   1.857  1.00  0.00     0.276 C 
HETATM    3  O   UNL     1      41.312 -13.995   1.509  1.00  0.00    -0.266 OA
HETATM    4  H   UNL     1      38.673 -13.796   3.309  1.00  0.00     0.190 HD
ENDROOT
BRANCH   1   5
HETATM    5  N   UNL     1      40.265 -15.041   3.813  1.00  0.00    -0.265 N 
HETATM    6  C   UNL     1      41.047 -14.509   4.816  1.00  0.00     0.260 C 
HETATM    7  O   UNL     1      41.098 -13.305   5.067  1.00  0.00    -0.269 OA
HETATM    8  H   UNL     1      40.316 -16.024   3.547  1.00  0.00     0.190 HD
BRANCH   6   9
HETATM    9  C   UNL     1      41.913 -15.534   5.541  1.00  0.00     0.280 C 
BRANCH   9  10
HETATM   10  O   UNL     1      43.166 -15.690   4.881  1.00  0.00    -0.342 OA
BRANCH  10  11
HETATM   11  C   UNL     1      43.353 -16.892   4.253  1.00  0.00     0.069 A 
HETATM   12  C   UNL     1      42.922 -16.945   2.926  1.00  0.00     0.037 A 
HETATM   13  C   UNL     1      43.068 -18.117   2.180  1.00  0.00     0.009 A 
HETATM   14  C   UNL     1      43.654 -19.250   2.752  1.00  0.00    -0.062 A 
HETATM   15  C   UNL     1      43.849 -20.500   1.946  1.00  0.00     0.048 C 
HETATM   16  C   UNL     1      44.116 -19.181   4.072  1.00  0.00     0.009 A 
HETATM   17  C   UNL     1      43.964 -18.009   4.820  1.00  0.00     0.037 A 
ENDBRANCH  10  11
ENDBRANCH   9  10
ENDBRANCH   6   9
ENDBRANCH   1   5
BRANCH   2  18
HETATM   18  C   UNL     1      39.401 -12.668   1.128  1.00  0.00     0.107 A 
HETATM   19  C   UNL     1      38.907 -12.777  -0.159  1.00  0.00     0.169 A 
HETATM   20  N   UNL     1      38.235 -11.582  -0.436  1.00  0.00    -0.219 N 
HETATM   21  N   UNL     1      38.995 -13.796  -1.072  1.00  0.00    -0.233 NA
HETATM   22  C   UNL     1      37.635 -11.374  -1.688  1.00  0.00     0.036 A 
HETATM   23  N   UNL     1      38.270 -10.742   0.627  1.00  0.00    -0.170 NA
HETATM   24  C   UNL     1      36.940 -10.076  -1.965  1.00  0.00     0.070 C 
HETATM   25  C   UNL     1      37.706 -12.345  -2.617  1.00  0.00     0.053 A 
HETATM   26  C   UNL     1      38.427 -13.596  -2.226  1.00  0.00     0.035 A 
HETATM   27  C   UNL     1      38.495 -14.704  -3.246  1.00  0.00     0.070 C 
HETATM   28  C   UNL     1      38.967 -11.391   1.565  1.00  0.00     0.071 A 
HETATM   29  C   UNL     1      39.202 -10.749   2.885  1.00  0.00     0.073 C 
ENDBRANCH   2  18
TORSDOF 5
ENDMDL
MODEL 6
REMARK VINA RESULT:      -8.4      1.508      2.850
REMARK  5 active torsions:
REMARK  status: ('A' for Active; 'I' for Inactive)
REMARK    1  A    between atoms: C_5  and  O_6 
REMARK    2  A    between atoms: O_6  and  C_7 
REMARK    3  A    between atoms: C_7  and  C_8 
REMARK       I    between atoms: C_8  and  N_9 
REMARK    4  A    between atoms: N_9  and  N_10 
REMARK       I    between atoms: N_10  and  C_11 
REMARK    5  A    between atoms: C_11  and  C_12 
ROOT
HETATM    1  N   UNL     1      43.580 -12.329   6.191  1.00  0.00    -0.263 N 
HETATM    2  C   UNL     1      42.935 -13.542   6.338  1.00  0.00     0.276 C 
HETATM    3  O   UNL     1      43.048 -14.228   7.352  1.00  0.00    -0.266 OA
HETATM    4  H   UNL     1      43.563 -11.828   5.298  1.00  0.00     0.190 HD
ENDROOT
BRANCH   1   5
HETATM    5  N   UNL     1      44.485 -11.905   7.164  1.00  0.00    -0.265 N 
HETATM    6  C   UNL     1      44.256 -10.710   7.814  1.00  0.00     0.260 C 
HETATM    7  O   UNL     1      43.245 -10.030   7.639  1.00  0.00    -0.269 OA
HETATM    8  H   UNL     1      45.373 -12.401   7.237  1.00  0.00     0.190 HD
BRANCH   6   9
HETATM    9  C   UNL     1      45.403 -10.258   8.711  1.00  0.00     0.280 C 
BRANCH   9  10
HETATM   10  O   UNL     1      45.339 -10.909   9.976  1.00  0.00    -0.342 OA
BRANCH  10  11
HETATM   11  C   UNL     1      44.476 -10.352  10.881  1.00  0.00     0.069 A 
HETATM   12  C   UNL     1      44.435  -8.957  10.884  1.00  0.00     0.037 A 
HETATM   13  C   UNL     1      43.585  -8.276  11.759  1.00  0.00     0.009 A 
HETATM   14  C   UNL     1      42.761  -8.984  12.639  1.00  0.00    -0.062 A 
HETATM   15  C   UNL     1      41.819  -8.260  13.555  1.00  0.00     0.048 C 
HETATM   16  C   UNL     1      42.780 -10.383  12.608  1.00  0.00     0.009 A 
HETATM   17  C   UNL     1      43.636 -11.065  11.735  1.00  0.00     0.037 A 
ENDBRANCH  10  11
ENDBRANCH   9  10
ENDBRANCH   6   9
ENDBRANCH   1   5
BRANCH   2  18
HETATM   18  C   UNL     1      42.114 -13.938   5.207  1.00  0.00     0.107 A 
HETATM   19  C   UNL     1      42.256 -15.068   4.423  1.00  0.00     0.169 A 
HETATM   20  N   UNL     1      41.253 -15.013   3.450  1.00  0.00    -0.219 N 
HETATM   21  N   UNL     1      43.155 -16.100   4.489  1.00  0.00    -0.233 NA
HETATM   22  C   UNL     1      41.144 -16.019   2.478  1.00  0.00     0.036 A 
HETATM   23  N   UNL     1      40.480 -13.910   3.604  1.00  0.00    -0.170 NA
HETATM   24  C   UNL     1      40.073 -15.924   1.435  1.00  0.00     0.070 C 
HETATM   25  C   UNL     1      42.013 -17.047   2.500  1.00  0.00     0.053 A 
HETATM   26  C   UNL     1      43.040 -17.033   3.588  1.00  0.00     0.035 A 
HETATM   27  C   UNL     1      44.007 -18.189   3.643  1.00  0.00     0.070 C 
HETATM   28  C   UNL     1      40.994 -13.265   4.656  1.00  0.00     0.071 A 
HETATM   29  C   UNL     1      40.380 -11.991   5.114  1.00  0.00     0.073 C 
ENDBRANCH   2  18
TORSDOF 5
ENDMDL
MODEL 7
REMARK VINA RESULT:      -8.1      1.671      2.046
REMARK  5 active torsions:
REMARK  status: ('A' for Active; 'I' for Inactive)
REMARK    1  A    between atoms: C_5  and  O_6 
REMARK    2  A    between atoms: O_6  and  C_7 
REMARK    3  A    between atoms: C_7  and  C_8 
REMARK       I    between atoms: C_8  and  N_9 
REMARK    4  A    between atoms: N_9  and  N_10 
REMARK       I    between atoms: N_10  and  C_11 
REMARK    5  A    between atoms: C_11  and  C_12 
ROOT
HETATM    1  N   UNL     1      42.218 -12.927   6.303  1.00  0.00    -0.263 N 
HETATM    2  C   UNL     1      43.363 -13.698   6.369  1.00  0.00     0.276 C 
HETATM    3  O   UNL     1      44.324 -13.390   7.072  1.00  0.00    -0.266 OA
HETATM    4  H   UNL     1      41.478 -13.140   5.629  1.00  0.00     0.190 HD
ENDROOT
BRANCH   1   5
HETATM    5  N   UNL     1      42.176 -11.695   6.956  1.00  0.00    -0.265 N 
HETATM    6  C   UNL     1      42.268 -10.540   6.209  1.00  0.00     0.260 C 
HETATM    7  O   UNL     1      42.304 -10.531   4.979  1.00  0.00    -0.269 OA
HETATM    8  H   UNL     1      42.256 -11.693   7.973  1.00  0.00     0.190 HD
BRANCH   6   9
HETATM    9  C   UNL     1      42.404  -9.268   7.041  1.00  0.00     0.280 C 
BRANCH   9  10
HETATM   10  O   UNL     1      43.661  -9.239   7.711  1.00  0.00    -0.342 OA
BRANCH  10  11
HETATM   11  C   UNL     1      43.607  -8.959   9.050  1.00  0.00     0.069 A 
HETATM   12  C   UNL     1      42.719  -7.945   9.412  1.00  0.00     0.037 A 
HETATM   13  C   UNL     1      42.572  -7.576  10.751  1.00  0.00     0.009 A 
HETATM   14  C   UNL     1      43.309  -8.224  11.747  1.00  0.00    -0.062 A 
HETATM   15  C   UNL     1      43.129  -7.860  13.191  1.00  0.00     0.048 C 
HETATM   16  C   UNL     1      44.173  -9.263  11.383  1.00  0.00     0.009 A 
HETATM   17  C   UNL     1      44.324  -9.628  10.041  1.00  0.00     0.037 A 
ENDBRANCH  10  11
ENDBRANCH   9  10
ENDBRANCH   6   9
ENDBRANCH   1   5
BRANCH   2  18
HETATM   18  C   UNL     1      43.338 -14.898   5.551  1.00  0.00     0.107 A 
HETATM   19  C   UNL     1      42.933 -15.005   4.233  1.00  0.00     0.169 A 
HETATM   20  N   UNL     1      43.067 -16.352   3.879  1.00  0.00    -0.219 N 
HETATM   21  N   UNL     1      42.475 -14.059   3.354  1.00  0.00    -0.233 NA
HETATM   22  C   UNL     1      42.711 -16.790   2.594  1.00  0.00     0.036 A 
HETATM   23  N   UNL     1      43.557 -17.084   4.908  1.00  0.00    -0.170 NA
HETATM   24  C   UNL     1      42.845 -18.242   2.247  1.00  0.00     0.070 C 
HETATM   25  C   UNL     1      42.247 -15.896   1.702  1.00  0.00     0.053 A 
HETATM   26  C   UNL     1      42.156 -14.475   2.163  1.00  0.00     0.035 A 
HETATM   27  C   UNL     1      41.661 -13.455   1.169  1.00  0.00     0.070 C 
HETATM   28  C   UNL     1      43.720 -16.215   5.911  1.00  0.00     0.071 A 
HETATM   29  C   UNL     1      44.251 -16.686   7.217  1.00  0.00     0.073 C 
ENDBRANCH   2  18
TORSDOF 5
ENDMDL
MODEL 8
REMARK VINA RESULT:      -8.0      3.171      9.662
REMARK  5 active torsions:
REMARK  status: ('A' for Active; 'I' for Inactive)
REMARK    1  A    between atoms: C_5  and  O_6 
REMARK    2  A    between atoms: O_6  and  C_7 
REMARK    3  A    between atoms: C_7  and  C_8 
REMARK       I    between atoms: C_8  and  N_9 
REMARK    4  A    between atoms: N_9  and  N_10 
REMARK       I    between atoms: N_10  and  C_11 
REMARK    5  A    between atoms: C_11  and  C_12 
ROOT
HETATM    1  N   UNL     1      40.956 -11.126   6.763  1.00  0.00    -0.263 N 
HETATM    2  C   UNL     1      40.778  -9.781   7.025  1.00  0.00     0.276 C 
HETATM    3  O   UNL     1      40.286  -9.010   6.202  1.00  0.00    -0.266 OA
HETATM    4  H   UNL     1      41.468 -11.726   7.415  1.00  0.00     0.190 HD
ENDROOT
BRANCH   1   5
HETATM    5  N   UNL     1      40.683 -11.625   5.489  1.00  0.00    -0.265 N 
HETATM    6  C   UNL     1      40.118 -12.877   5.369  1.00  0.00     0.260 C 
HETATM    7  O   UNL     1      39.764 -13.553   6.334  1.00  0.00    -0.269 OA
HETATM    8  H   UNL     1      41.070 -11.124   4.689  1.00  0.00     0.190 HD
BRANCH   6   9
HETATM    9  C   UNL     1      40.044 -13.393   3.936  1.00  0.00     0.280 C 
BRANCH   9  10
HETATM   10  O   UNL     1      41.345 -13.471   3.362  1.00  0.00    -0.342 OA
BRANCH  10  11
HETATM   11  C   UNL     1      41.848 -14.736   3.216  1.00  0.00     0.069 A 
HETATM   12  C   UNL     1      42.523 -14.975   2.019  1.00  0.00     0.037 A 
HETATM   13  C   UNL     1      43.087 -16.227   1.761  1.00  0.00     0.009 A 
HETATM   14  C   UNL     1      42.986 -17.255   2.703  1.00  0.00    -0.062 A 
HETATM   15  C   UNL     1      43.621 -18.590   2.450  1.00  0.00     0.048 C 
HETATM   16  C   UNL     1      42.337 -17.000   3.917  1.00  0.00     0.009 A 
HETATM   17  C   UNL     1      41.768 -15.748   4.172  1.00  0.00     0.037 A 
ENDBRANCH  10  11
ENDBRANCH   9  10
ENDBRANCH   6   9
ENDBRANCH   1   5
BRANCH   2  18
HETATM   18  C   UNL     1      41.212  -9.353   8.343  1.00  0.00     0.107 A 
HETATM   19  C   UNL     1      42.484  -9.448   8.878  1.00  0.00     0.169 A 
HETATM   20  N   UNL     1      42.415  -8.928  10.175  1.00  0.00    -0.219 N 
HETATM   21  N   UNL     1      43.649  -9.934   8.346  1.00  0.00    -0.233 NA
HETATM   22  C   UNL     1      43.554  -8.904  10.996  1.00  0.00     0.036 A 
HETATM   23  N   UNL     1      41.165  -8.494  10.465  1.00  0.00    -0.170 NA
HETATM   24  C   UNL     1      43.447  -8.360  12.387  1.00  0.00     0.070 C 
HETATM   25  C   UNL     1      44.717  -9.380  10.515  1.00  0.00     0.053 A 
HETATM   26  C   UNL     1      44.701  -9.899   9.112  1.00  0.00     0.035 A 
HETATM   27  C   UNL     1      46.002 -10.414   8.549  1.00  0.00     0.070 C 
HETATM   28  C   UNL     1      40.443  -8.747   9.368  1.00  0.00     0.071 A 
HETATM   29  C   UNL     1      38.999  -8.392   9.336  1.00  0.00     0.073 C 
ENDBRANCH   2  18
TORSDOF 5
ENDMDL
MODEL 9
REMARK VINA RESULT:      -8.0      6.397      9.970
REMARK  5 active torsions:
REMARK  status: ('A' for Active; 'I' for Inactive)
REMARK    1  A    between atoms: C_5  and  O_6 
REMARK    2  A    between atoms: O_6  and  C_7 
REMARK    3  A    between atoms: C_7  and  C_8 
REMARK       I    between atoms: C_8  and  N_9 
REMARK    4  A    between atoms: N_9  and  N_10 
REMARK       I    between atoms: N_10  and  C_11 
REMARK    5  A    between atoms: C_11  and  C_12 
ROOT
HETATM    1  N   UNL     1      39.597 -14.424   0.663  1.00  0.00    -0.263 N 
HETATM    2  C   UNL     1      39.976 -13.476  -0.268  1.00  0.00     0.276 C 
HETATM    3  O   UNL     1      41.122 -13.034  -0.329  1.00  0.00    -0.266 OA
HETATM    4  H   UNL     1      38.617 -14.696   0.770  1.00  0.00     0.190 HD
ENDROOT
BRANCH   1   5
HETATM    5  N   UNL     1      40.500 -14.823   1.650  1.00  0.00    -0.265 N 
HETATM    6  C   UNL     1      40.444 -14.220   2.889  1.00  0.00     0.260 C 
HETATM    7  O   UNL     1      39.582 -13.399   3.202  1.00  0.00    -0.269 OA
HETATM    8  H   UNL     1      41.280 -15.417   1.369  1.00  0.00     0.190 HD
BRANCH   6   9
HETATM    9  C   UNL     1      41.594 -14.595   3.817  1.00  0.00     0.280 C 
BRANCH   9  10
HETATM   10  O   UNL     1      42.646 -15.219   3.087  1.00  0.00    -0.342 OA
BRANCH  10  11
HETATM   11  C   UNL     1      43.075 -16.419   3.585  1.00  0.00     0.069 A 
HETATM   12  C   UNL     1      43.256 -17.428   2.637  1.00  0.00     0.037 A 
HETATM   13  C   UNL     1      43.699 -18.694   3.026  1.00  0.00     0.009 A 
HETATM   14  C   UNL     1      43.972 -18.966   4.370  1.00  0.00    -0.062 A 
HETATM   15  C   UNL     1      44.484 -20.312   4.790  1.00  0.00     0.048 C 
HETATM   16  C   UNL     1      43.822 -17.942   5.312  1.00  0.00     0.009 A 
HETATM   17  C   UNL     1      43.373 -16.675   4.923  1.00  0.00     0.037 A 
ENDBRANCH  10  11
ENDBRANCH   9  10
ENDBRANCH   6   9
ENDBRANCH   1   5
BRANCH   2  18
HETATM   18  C   UNL     1      38.918 -13.048  -1.167  1.00  0.00     0.107 A 
HETATM   19  C   UNL     1      38.235 -11.846  -1.145  1.00  0.00     0.169 A 
HETATM   20  N   UNL     1      37.301 -11.894  -2.185  1.00  0.00    -0.219 N 
HETATM   21  N   UNL     1      38.358 -10.757  -0.322  1.00  0.00    -0.233 NA
HETATM   22  C   UNL     1      36.429 -10.818  -2.412  1.00  0.00     0.036 A 
HETATM   23  N   UNL     1      37.385 -13.062  -2.867  1.00  0.00    -0.170 NA
HETATM   24  C   UNL     1      35.424 -10.904  -3.520  1.00  0.00     0.070 C 
HETATM   25  C   UNL     1      36.509  -9.732  -1.621  1.00  0.00     0.053 A 
HETATM   26  C   UNL     1      37.551  -9.761  -0.547  1.00  0.00     0.035 A 
HETATM   27  C   UNL     1      37.672  -8.543   0.334  1.00  0.00     0.070 C 
HETATM   28  C   UNL     1      38.354 -13.755  -2.259  1.00  0.00     0.071 A 
HETATM   29  C   UNL     1      38.718 -15.108  -2.756  1.00  0.00     0.073 C 
ENDBRANCH   2  18
TORSDOF 5
ENDMDL
MODEL 10
REMARK VINA RESULT:      -7.7      3.271      9.270
REMARK  5 active torsions:
REMARK  status: ('A' for Active; 'I' for Inactive)
REMARK    1  A    between atoms: C_5  and  O_6 
REMARK    2  A    between atoms: O_6  and  C_7 
REMARK    3  A    between atoms: C_7  and  C_8 
REMARK       I    between atoms: C_8  and  N_9 
REMARK    4  A    between atoms: N_9  and  N_10 
REMARK       I    between atoms: N_10  and  C_11 
REMARK    5  A    between atoms: C_11  and  C_12 
ROOT
HETATM    1  N   UNL     1      41.273 -10.878   5.087  1.00  0.00    -0.263 N 
HETATM    2  C   UNL     1      42.652 -10.836   5.156  1.00  0.00     0.276 C 
HETATM    3  O   UNL     1      43.362 -10.878   4.153  1.00  0.00    -0.266 OA
HETATM    4  H   UNL     1      40.705 -10.955   5.935  1.00  0.00     0.190 HD
ENDROOT
BRANCH   1   5
HETATM    5  N   UNL     1      40.648 -11.091   3.858  1.00  0.00    -0.265 N 
HETATM    6  C   UNL     1      39.888 -12.228   3.684  1.00  0.00     0.260 C 
HETATM    7  O   UNL     1      39.661 -13.034   4.586  1.00  0.00    -0.269 OA
HETATM    8  H   UNL     1      40.917 -10.492   3.078  1.00  0.00     0.190 HD
BRANCH   6   9
HETATM    9  C   UNL     1      39.417 -12.449   2.250  1.00  0.00     0.280 C 
BRANCH   9  10
HETATM   10  O   UNL     1      40.522 -12.719   1.394  1.00  0.00    -0.342 OA
BRANCH  10  11
HETATM   11  C   UNL     1      41.194 -13.883   1.650  1.00  0.00     0.069 A 
HETATM   12  C   UNL     1      40.405 -15.034   1.676  1.00  0.00     0.037 A 
HETATM   13  C   UNL     1      40.981 -16.283   1.921  1.00  0.00     0.009 A 
HETATM   14  C   UNL     1      42.358 -16.396   2.137  1.00  0.00    -0.062 A 
HETATM   15  C   UNL     1      42.990 -17.738   2.363  1.00  0.00     0.048 C 
HETATM   16  C   UNL     1      43.150 -15.244   2.076  1.00  0.00     0.009 A 
HETATM   17  C   UNL     1      42.572 -13.993   1.837  1.00  0.00     0.037 A 
ENDBRANCH  10  11
ENDBRANCH   9  10
ENDBRANCH   6   9
ENDBRANCH   1   5
BRANCH   2  18
HETATM   18  C   UNL     1      43.193 -10.734   6.500  1.00  0.00     0.107 A 
HETATM   19  C   UNL     1      43.115  -9.649   7.355  1.00  0.00     0.169 A 
HETATM   20  N   UNL     1      43.793 -10.008   8.524  1.00  0.00    -0.219 N 
HETATM   21  N   UNL     1      42.524  -8.423   7.198  1.00  0.00    -0.233 NA
HETATM   22  C   UNL     1      43.910  -9.100   9.588  1.00  0.00     0.036 A 
HETATM   23  N   UNL     1      44.271 -11.274   8.446  1.00  0.00    -0.170 NA
HETATM   24  C   UNL     1      44.659  -9.503  10.822  1.00  0.00     0.070 C 
HETATM   25  C   UNL     1      43.352  -7.881   9.473  1.00  0.00     0.053 A 
HETATM   26  C   UNL     1      42.631  -7.592   8.194  1.00  0.00     0.035 A 
HETATM   27  C   UNL     1      41.979  -6.239   8.057  1.00  0.00     0.070 C 
HETATM   28  C   UNL     1      43.912 -11.710   7.235  1.00  0.00     0.071 A 
HETATM   29  C   UNL     1      44.280 -13.086   6.807  1.00  0.00     0.073 C 
ENDBRANCH   2  18
TORSDOF 5
ENDMDL
