MODEL 1
REMARK VINA RESULT:      -9.9      0.000      0.000
REMARK  7 active torsions:
REMARK  status: ('A' for Active; 'I' for Inactive)
REMARK    1  A    between atoms: C_2  and  O_3 
REMARK    2  A    between atoms: O_3  and  C_4 
REMARK    3  A    between atoms: C_5  and  O_6 
REMARK    4  A    between atoms: C_7  and  C_8 
REMARK    5  A    between atoms: N_9  and  N_10 
REMARK       I    between atoms: N_10  and  C_11 
REMARK    6  A    between atoms: C_11  and  C_12 
REMARK    7  A    between atoms: C_16  and  C_17 
ROOT
HETATM    1  C   UNL     1      43.598 -11.361   7.618  1.00  0.00     0.121 A 
HETATM    2  N   UNL     1      42.362 -11.098   7.095  1.00  0.00    -0.272 N 
HETATM    3  H   UNL     1      41.697 -10.409   7.431  1.00  0.00     0.189 HD
HETATM    4  N   UNL     1      42.024 -11.883   6.062  1.00  0.00    -0.174 NA
HETATM    5  C   UNL     1      43.088 -12.676   5.870  1.00  0.00     0.090 A 
HETATM    6  C   UNL     1      44.109 -12.362   6.817  1.00  0.00     0.071 A 
ENDROOT
BRANCH   1   7
HETATM    7  C   UNL     1      44.076 -10.659   8.784  1.00  0.00     0.289 C 
HETATM    8  N   UNL     1      43.314 -10.849   9.926  1.00  0.00    -0.242 N 
HETATM    9  H   UNL     1      42.492 -11.439   9.900  1.00  0.00     0.192 HD
HETATM   10  O   UNL     1      45.062  -9.929   8.722  1.00  0.00    -0.264 OA
BRANCH   8  11
HETATM   11  N   UNL     1      43.538 -10.083  11.034  1.00  0.00    -0.183 NA
HETATM   12  C   UNL     1      42.476  -9.721  11.683  1.00  0.00     0.153 C 
BRANCH  12  13
HETATM   13  C   UNL     1      42.552  -8.830  12.856  1.00  0.00     0.019 A 
HETATM   14  C   UNL     1      41.604  -8.930  13.875  1.00  0.00     0.110 A 
HETATM   15  C   UNL     1      41.628  -8.053  14.969  1.00  0.00     0.102 A 
HETATM   16  C   UNL     1      42.630  -7.084  15.046  1.00  0.00     0.040 A 
HETATM   17  C   UNL     1      43.589  -6.987  14.032  1.00  0.00     0.004 A 
HETATM   18  C   UNL     1      43.550  -7.854  12.938  1.00  0.00     0.016 A 
BRANCH  14  19
HETATM   19  O   UNL     1      40.616  -9.881  13.816  1.00  0.00    -0.357 OA
HETATM   20  H   UNL     1      40.533 -10.102  12.866  1.00  0.00     0.218 HD
ENDBRANCH  14  19
BRANCH  15  21
HETATM   21  O   UNL     1      40.626  -8.249  15.886  1.00  0.00    -0.349 OA
BRANCH  21  22
HETATM   22  C   UNL     1      40.478  -7.248  16.895  1.00  0.00     0.171 C 
HETATM   23  C   UNL     1      40.243  -7.953  18.218  1.00  0.00     0.034 C 
ENDBRANCH  21  22
ENDBRANCH  15  21
ENDBRANCH  12  13
ENDBRANCH   8  11
ENDBRANCH   1   7
BRANCH   5  24
HETATM   24  C   UNL     1      43.112 -13.739   4.857  1.00  0.00     0.005 A 
HETATM   25  C   UNL     1      43.243 -15.121   5.192  1.00  0.00    -0.012 A 
HETATM   26  C   UNL     1      43.277 -15.996   4.131  1.00  0.00    -0.012 A 
HETATM   27  C   UNL     1      43.337 -15.737   6.468  1.00  0.00     0.013 A 
HETATM   28  C   UNL     1      43.411 -17.367   4.250  1.00  0.00    -0.046 A 
HETATM   29  C   UNL     1      43.187 -15.619   2.804  1.00  0.00    -0.046 A 
HETATM   30  C   UNL     1      43.516 -17.979   5.490  1.00  0.00     0.008 A 
HETATM   31  C   UNL     1      43.425 -18.008   2.907  1.00  0.00     0.044 A 
HETATM   32  C   UNL     1      43.473 -17.133   6.605  1.00  0.00     0.001 A 
HETATM   33  C   UNL     1      43.263 -16.813   1.918  1.00  0.00     0.044 A 
HETATM   34  C   UNL     1      43.053 -14.290   2.440  1.00  0.00     0.009 A 
HETATM   35  C   UNL     1      43.020 -13.358   3.490  1.00  0.00     0.015 A 
ENDBRANCH   5  24
TORSDOF 7
ENDMDL
MODEL 2
REMARK VINA RESULT:      -9.8      1.987      3.325
REMARK  7 active torsions:
REMARK  status: ('A' for Active; 'I' for Inactive)
REMARK    1  A    between atoms: C_2  and  O_3 
REMARK    2  A    between atoms: O_3  and  C_4 
REMARK    3  A    between atoms: C_5  and  O_6 
REMARK    4  A    between atoms: C_7  and  C_8 
REMARK    5  A    between atoms: N_9  and  N_10 
REMARK       I    between atoms: N_10  and  C_11 
REMARK    6  A    between atoms: C_11  and  C_12 
REMARK    7  A    between atoms: C_16  and  C_17 
ROOT
HETATM    1  C   UNL     1      43.346 -11.866   7.140  1.00  0.00     0.121 A 
HETATM    2  N   UNL     1      42.082 -12.071   6.661  1.00  0.00    -0.272 N 
HETATM    3  H   UNL     1      41.292 -11.438   6.750  1.00  0.00     0.189 HD
HETATM    4  N   UNL     1      41.906 -13.255   6.059  1.00  0.00    -0.174 NA
HETATM    5  C   UNL     1      43.107 -13.848   6.110  1.00  0.00     0.090 A 
HETATM    6  C   UNL     1      44.047 -12.995   6.763  1.00  0.00     0.071 A 
ENDROOT
BRANCH   1   7
HETATM    7  C   UNL     1      43.676 -10.677   7.885  1.00  0.00     0.289 C 
HETATM    8  N   UNL     1      43.582 -10.811   9.261  1.00  0.00    -0.242 N 
HETATM    9  H   UNL     1      43.296 -11.691   9.670  1.00  0.00     0.192 HD
HETATM   10  O   UNL     1      43.976  -9.634   7.309  1.00  0.00    -0.264 OA
BRANCH   8  11
HETATM   11  N   UNL     1      43.666  -9.710  10.064  1.00  0.00    -0.183 NA
HETATM   12  C   UNL     1      42.736  -9.605  10.961  1.00  0.00     0.153 C 
BRANCH  12  13
HETATM   13  C   UNL     1      42.650  -8.432  11.852  1.00  0.00     0.019 A 
HETATM   14  C   UNL     1      42.294  -7.185  11.337  1.00  0.00     0.110 A 
HETATM   15  C   UNL     1      42.263  -6.049  12.160  1.00  0.00     0.102 A 
HETATM   16  C   UNL     1      42.572  -6.178  13.515  1.00  0.00     0.040 A 
HETATM   17  C   UNL     1      42.920  -7.428  14.037  1.00  0.00     0.004 A 
HETATM   18  C   UNL     1      42.963  -8.553  13.209  1.00  0.00     0.016 A 
BRANCH  14  19
HETATM   19  O   UNL     1      41.981  -7.043  10.008  1.00  0.00    -0.357 OA
HETATM   20  H   UNL     1      41.250  -7.676   9.850  1.00  0.00     0.218 HD
ENDBRANCH  14  19
BRANCH  15  21
HETATM   21  O   UNL     1      41.916  -4.886  11.520  1.00  0.00    -0.349 OA
BRANCH  21  22
HETATM   22  C   UNL     1      42.526  -3.686  12.002  1.00  0.00     0.171 C 
HETATM   23  C   UNL     1      43.362  -3.106  10.875  1.00  0.00     0.034 C 
ENDBRANCH  21  22
ENDBRANCH  15  21
ENDBRANCH  12  13
ENDBRANCH   8  11
ENDBRANCH   1   7
BRANCH   5  24
HETATM   24  C   UNL     1      43.342 -15.208   5.606  1.00  0.00     0.005 A 
HETATM   25  C   UNL     1      43.257 -15.544   4.221  1.00  0.00    -0.012 A 
HETATM   26  C   UNL     1      43.475 -16.865   3.908  1.00  0.00    -0.012 A 
HETATM   27  C   UNL     1      42.984 -14.709   3.105  1.00  0.00     0.013 A 
HETATM   28  C   UNL     1      43.424 -17.386   2.628  1.00  0.00    -0.046 A 
HETATM   29  C   UNL     1      43.770 -17.848   4.833  1.00  0.00    -0.046 A 
HETATM   30  C   UNL     1      43.147 -16.584   1.531  1.00  0.00     0.008 A 
HETATM   31  C   UNL     1      43.695 -18.849   2.649  1.00  0.00     0.044 A 
HETATM   32  C   UNL     1      42.930 -15.226   1.794  1.00  0.00     0.001 A 
HETATM   33  C   UNL     1      43.940 -19.164   4.157  1.00  0.00     0.044 A 
HETATM   34  C   UNL     1      43.868 -17.562   6.184  1.00  0.00     0.009 A 
HETATM   35  C   UNL     1      43.645 -16.225   6.553  1.00  0.00     0.015 A 
ENDBRANCH   5  24
TORSDOF 7
ENDMDL
MODEL 3
REMARK VINA RESULT:      -9.5      1.364      2.468
REMARK  7 active torsions:
REMARK  status: ('A' for Active; 'I' for Inactive)
REMARK    1  A    between atoms: C_2  and  O_3 
REMARK    2  A    between atoms: O_3  and  C_4 
REMARK    3  A    between atoms: C_5  and  O_6 
REMARK    4  A    between atoms: C_7  and  C_8 
REMARK    5  A    between atoms: N_9  and  N_10 
REMARK       I    between atoms: N_10  and  C_11 
REMARK    6  A    between atoms: C_11  and  C_12 
REMARK    7  A    between atoms: C_16  and  C_17 
ROOT
HETATM    1  C   UNL     1      43.443 -11.817   7.247  1.00  0.00     0.121 A 
HETATM    2  N   UNL     1      42.196 -11.927   6.698  1.00  0.00    -0.272 N 
HETATM    3  H   UNL     1      41.438 -11.254   6.776  1.00  0.00     0.189 HD
HETATM    4  N   UNL     1      41.985 -13.073   6.036  1.00  0.00    -0.174 NA
HETATM    5  C   UNL     1      43.147 -13.736   6.119  1.00  0.00     0.090 A 
HETATM    6  C   UNL     1      44.098 -12.967   6.855  1.00  0.00     0.071 A 
ENDROOT
BRANCH   1   7
HETATM    7  C   UNL     1      43.800 -10.680   8.060  1.00  0.00     0.289 C 
HETATM    8  N   UNL     1      43.580 -10.849   9.418  1.00  0.00    -0.242 N 
HETATM    9  H   UNL     1      43.195 -11.716   9.770  1.00  0.00     0.192 HD
HETATM   10  O   UNL     1      44.226  -9.648   7.549  1.00  0.00    -0.264 OA
BRANCH   8  11
HETATM   11  N   UNL     1      43.681  -9.784  10.266  1.00  0.00    -0.183 NA
HETATM   12  C   UNL     1      42.576  -9.144  10.488  1.00  0.00     0.153 C 
BRANCH  12  13
HETATM   13  C   UNL     1      42.540  -7.927  11.321  1.00  0.00     0.019 A 
HETATM   14  C   UNL     1      42.741  -8.016  12.699  1.00  0.00     0.110 A 
HETATM   15  C   UNL     1      42.653  -6.877  13.514  1.00  0.00     0.102 A 
HETATM   16  C   UNL     1      42.382  -5.638  12.929  1.00  0.00     0.040 A 
HETATM   17  C   UNL     1      42.190  -5.544  11.547  1.00  0.00     0.004 A 
HETATM   18  C   UNL     1      42.265  -6.684  10.744  1.00  0.00     0.016 A 
BRANCH  14  19
HETATM   19  O   UNL     1      43.013  -9.226  13.288  1.00  0.00    -0.357 OA
HETATM   20  H   UNL     1      42.278  -9.812  13.015  1.00  0.00     0.218 HD
ENDBRANCH  14  19
BRANCH  15  21
HETATM   21  O   UNL     1      42.852  -7.110  14.851  1.00  0.00    -0.349 OA
BRANCH  21  22
HETATM   22  C   UNL     1      41.840  -6.633  15.741  1.00  0.00     0.171 C 
HETATM   23  C   UNL     1      40.994  -7.821  16.163  1.00  0.00     0.034 C 
ENDBRANCH  21  22
ENDBRANCH  15  21
ENDBRANCH  12  13
ENDBRANCH   8  11
ENDBRANCH   1   7
BRANCH   5  24
HETATM   24  C   UNL     1      43.331 -15.085   5.567  1.00  0.00     0.005 A 
HETATM   25  C   UNL     1      43.244 -15.366   4.169  1.00  0.00    -0.012 A 
HETATM   26  C   UNL     1      43.411 -16.683   3.809  1.00  0.00    -0.012 A 
HETATM   27  C   UNL     1      43.014 -14.481   3.083  1.00  0.00     0.013 A 
HETATM   28  C   UNL     1      43.351 -17.153   2.510  1.00  0.00    -0.046 A 
HETATM   29  C   UNL     1      43.660 -17.710   4.699  1.00  0.00    -0.046 A 
HETATM   30  C   UNL     1      43.114 -16.302   1.442  1.00  0.00     0.008 A 
HETATM   31  C   UNL     1      43.562 -18.626   2.479  1.00  0.00     0.044 A 
HETATM   32  C   UNL     1      42.949 -14.946   1.754  1.00  0.00     0.001 A 
HETATM   33  C   UNL     1      43.783 -19.006   3.976  1.00  0.00     0.044 A 
HETATM   34  C   UNL     1      43.758 -17.478   6.060  1.00  0.00     0.009 A 
HETATM   35  C   UNL     1      43.586 -16.148   6.477  1.00  0.00     0.015 A 
ENDBRANCH   5  24
TORSDOF 7
ENDMDL
MODEL 4
REMARK VINA RESULT:      -9.4      2.147      3.219
REMARK  7 active torsions:
REMARK  status: ('A' for Active; 'I' for Inactive)
REMARK    1  A    between atoms: C_2  and  O_3 
REMARK    2  A    between atoms: O_3  and  C_4 
REMARK    3  A    between atoms: C_5  and  O_6 
REMARK    4  A    between atoms: C_7  and  C_8 
REMARK    5  A    between atoms: N_9  and  N_10 
REMARK       I    between atoms: N_10  and  C_11 
REMARK    6  A    between atoms: C_11  and  C_12 
REMARK    7  A    between atoms: C_16  and  C_17 
ROOT
HETATM    1  C   UNL     1      42.734 -13.053   6.132  1.00  0.00     0.121 A 
HETATM    2  N   UNL     1      43.230 -13.903   7.082  1.00  0.00    -0.272 N 
HETATM    3  H   UNL     1      43.458 -13.668   8.044  1.00  0.00     0.189 HD
HETATM    4  N   UNL     1      43.460 -15.147   6.642  1.00  0.00    -0.174 NA
HETATM    5  C   UNL     1      43.072 -15.135   5.358  1.00  0.00     0.090 A 
HETATM    6  C   UNL     1      42.587 -13.839   5.006  1.00  0.00     0.071 A 
ENDROOT
BRANCH   1   7
HETATM    7  C   UNL     1      42.510 -11.659   6.425  1.00  0.00     0.289 C 
HETATM    8  N   UNL     1      43.563 -11.027   7.068  1.00  0.00    -0.242 N 
HETATM    9  H   UNL     1      44.403 -11.541   7.299  1.00  0.00     0.192 HD
HETATM   10  O   UNL     1      41.443 -11.118   6.145  1.00  0.00    -0.264 OA
BRANCH   8  11
HETATM   11  N   UNL     1      43.398  -9.773   7.582  1.00  0.00    -0.183 NA
HETATM   12  C   UNL     1      43.283  -9.712   8.871  1.00  0.00     0.153 C 
BRANCH  12  13
HETATM   13  C   UNL     1      43.025  -8.436   9.566  1.00  0.00     0.019 A 
HETATM   14  C   UNL     1      42.394  -8.432  10.811  1.00  0.00     0.110 A 
HETATM   15  C   UNL     1      42.089  -7.225  11.458  1.00  0.00     0.102 A 
HETATM   16  C   UNL     1      42.444  -6.017  10.855  1.00  0.00     0.040 A 
HETATM   17  C   UNL     1      43.085  -6.018   9.612  1.00  0.00     0.004 A 
HETATM   18  C   UNL     1      43.373  -7.223   8.966  1.00  0.00     0.016 A 
BRANCH  14  19
HETATM   19  O   UNL     1      42.044  -9.612  11.419  1.00  0.00    -0.357 OA
HETATM   20  H   UNL     1      42.800 -10.213  11.259  1.00  0.00     0.218 HD
ENDBRANCH  14  19
BRANCH  15  21
HETATM   21  O   UNL     1      41.451  -7.365  12.665  1.00  0.00    -0.349 OA
BRANCH  21  22
HETATM   22  C   UNL     1      41.927  -6.550  13.738  1.00  0.00     0.171 C 
HETATM   23  C   UNL     1      43.199  -7.183  14.273  1.00  0.00     0.034 C 
ENDBRANCH  21  22
ENDBRANCH  15  21
ENDBRANCH  12  13
ENDBRANCH   8  11
ENDBRANCH   1   7
BRANCH   5  24
HETATM   24  C   UNL     1      43.212 -16.301   4.476  1.00  0.00     0.005 A 
HETATM   25  C   UNL     1      43.378 -17.630   4.974  1.00  0.00    -0.012 A 
HETATM   26  C   UNL     1      43.524 -18.613   4.024  1.00  0.00    -0.012 A 
HETATM   27  C   UNL     1      43.410 -18.094   6.315  1.00  0.00     0.013 A 
HETATM   28  C   UNL     1      43.708 -19.955   4.306  1.00  0.00    -0.046 A 
HETATM   29  C   UNL     1      43.510 -18.390   2.660  1.00  0.00    -0.046 A 
HETATM   30  C   UNL     1      43.753 -20.420   5.612  1.00  0.00     0.008 A 
HETATM   31  C   UNL     1      43.844 -20.738   3.049  1.00  0.00     0.044 A 
HETATM   32  C   UNL     1      43.597 -19.458   6.618  1.00  0.00     0.001 A 
HETATM   33  C   UNL     1      43.699 -19.670   1.922  1.00  0.00     0.044 A 
HETATM   34  C   UNL     1      43.344 -17.119   2.139  1.00  0.00     0.009 A 
HETATM   35  C   UNL     1      43.199 -16.079   3.071  1.00  0.00     0.015 A 
ENDBRANCH   5  24
TORSDOF 7
ENDMDL
MODEL 5
REMARK VINA RESULT:      -9.2      8.218     11.317
REMARK  7 active torsions:
REMARK  status: ('A' for Active; 'I' for Inactive)
REMARK    1  A    between atoms: C_2  and  O_3 
REMARK    2  A    between atoms: O_3  and  C_4 
REMARK    3  A    between atoms: C_5  and  O_6 
REMARK    4  A    between atoms: C_7  and  C_8 
REMARK    5  A    between atoms: N_9  and  N_10 
REMARK       I    between atoms: N_10  and  C_11 
REMARK    6  A    between atoms: C_11  and  C_12 
REMARK    7  A    between atoms: C_16  and  C_17 
ROOT
HETATM    1  C   UNL     1      40.418 -14.052   0.099  1.00  0.00     0.121 A 
HETATM    2  N   UNL     1      39.488 -15.036   0.291  1.00  0.00    -0.272 N 
HETATM    3  H   UNL     1      38.576 -15.101  -0.152  1.00  0.00     0.189 HD
HETATM    4  N   UNL     1      39.843 -15.961   1.193  1.00  0.00    -0.174 NA
HETATM    5  C   UNL     1      41.070 -15.597   1.593  1.00  0.00     0.090 A 
HETATM    6  C   UNL     1      41.476 -14.412   0.910  1.00  0.00     0.071 A 
ENDROOT
BRANCH   1   7
HETATM    7  C   UNL     1      40.152 -12.939  -0.778  1.00  0.00     0.289 C 
HETATM    8  N   UNL     1      41.258 -12.474  -1.473  1.00  0.00    -0.242 N 
HETATM    9  H   UNL     1      42.163 -12.908  -1.343  1.00  0.00     0.192 HD
HETATM   10  O   UNL     1      39.030 -12.444  -0.849  1.00  0.00    -0.264 OA
BRANCH   8  11
HETATM   11  N   UNL     1      41.185 -11.304  -2.172  1.00  0.00    -0.183 NA
HETATM   12  C   UNL     1      41.698 -10.271  -1.582  1.00  0.00     0.153 C 
BRANCH  12  13
HETATM   13  C   UNL     1      41.628  -8.924  -2.179  1.00  0.00     0.019 A 
HETATM   14  C   UNL     1      41.999  -7.806  -1.430  1.00  0.00     0.110 A 
HETATM   15  C   UNL     1      41.884  -6.513  -1.963  1.00  0.00     0.102 A 
HETATM   16  C   UNL     1      41.414  -6.351  -3.268  1.00  0.00     0.040 A 
HETATM   17  C   UNL     1      41.051  -7.470  -4.024  1.00  0.00     0.004 A 
HETATM   18  C   UNL     1      41.154  -8.753  -3.483  1.00  0.00     0.016 A 
BRANCH  14  19
HETATM   19  O   UNL     1      42.469  -7.949  -0.148  1.00  0.00    -0.357 OA
HETATM   20  H   UNL     1      41.682  -7.840   0.424  1.00  0.00     0.218 HD
ENDBRANCH  14  19
BRANCH  15  21
HETATM   21  O   UNL     1      42.264  -5.505  -1.113  1.00  0.00    -0.349 OA
BRANCH  21  22
HETATM   22  C   UNL     1      43.187  -4.545  -1.632  1.00  0.00     0.171 C 
HETATM   23  C   UNL     1      44.572  -4.917  -1.135  1.00  0.00     0.034 C 
ENDBRANCH  21  22
ENDBRANCH  15  21
ENDBRANCH  12  13
ENDBRANCH   8  11
ENDBRANCH   1   7
BRANCH   5  24
HETATM   24  C   UNL     1      41.811 -16.320   2.636  1.00  0.00     0.005 A 
HETATM   25  C   UNL     1      41.623 -16.072   4.029  1.00  0.00    -0.012 A 
HETATM   26  C   UNL     1      42.410 -16.808   4.883  1.00  0.00    -0.012 A 
HETATM   27  C   UNL     1      40.732 -15.173   4.674  1.00  0.00     0.013 A 
HETATM   28  C   UNL     1      42.383 -16.703   6.262  1.00  0.00    -0.046 A 
HETATM   29  C   UNL     1      43.335 -17.751   4.475  1.00  0.00    -0.046 A 
HETATM   30  C   UNL     1      41.527 -15.820   6.903  1.00  0.00     0.008 A 
HETATM   31  C   UNL     1      43.370 -17.632   6.875  1.00  0.00     0.044 A 
HETATM   32  C   UNL     1      40.694 -15.054   6.078  1.00  0.00     0.001 A 
HETATM   33  C   UNL     1      44.015 -18.357   5.653  1.00  0.00     0.044 A 
HETATM   34  C   UNL     1      43.542 -18.025   3.134  1.00  0.00     0.009 A 
HETATM   35  C   UNL     1      42.765 -17.291   2.223  1.00  0.00     0.015 A 
ENDBRANCH   5  24
TORSDOF 7
ENDMDL
MODEL 6
REMARK VINA RESULT:      -9.1      8.696     11.687
REMARK  7 active torsions:
REMARK  status: ('A' for Active; 'I' for Inactive)
REMARK    1  A    between atoms: C_2  and  O_3 
REMARK    2  A    between atoms: O_3  and  C_4 
REMARK    3  A    between atoms: C_5  and  O_6 
REMARK    4  A    between atoms: C_7  and  C_8 
REMARK    5  A    between atoms: N_9  and  N_10 
REMARK       I    between atoms: N_10  and  C_11 
REMARK    6  A    between atoms: C_11  and  C_12 
REMARK    7  A    between atoms: C_16  and  C_17 
ROOT
HETATM    1  C   UNL     1      40.341 -14.135   0.081  1.00  0.00     0.121 A 
HETATM    2  N   UNL     1      39.566 -15.256   0.192  1.00  0.00    -0.272 N 
HETATM    3  H   UNL     1      38.840 -15.556  -0.452  1.00  0.00     0.189 HD
HETATM    4  N   UNL     1      39.796 -15.976   1.299  1.00  0.00    -0.174 NA
HETATM    5  C   UNL     1      40.783 -15.326   1.932  1.00  0.00     0.090 A 
HETATM    6  C   UNL     1      41.169 -14.174   1.184  1.00  0.00     0.071 A 
ENDROOT
BRANCH   1   7
HETATM    7  C   UNL     1      40.159 -13.211  -1.012  1.00  0.00     0.289 C 
HETATM    8  N   UNL     1      41.297 -12.504  -1.366  1.00  0.00    -0.242 N 
HETATM    9  H   UNL     1      42.166 -12.651  -0.869  1.00  0.00     0.192 HD
HETATM   10  O   UNL     1      39.058 -13.063  -1.537  1.00  0.00    -0.264 OA
BRANCH   8  11
HETATM   11  N   UNL     1      41.209 -11.458  -2.239  1.00  0.00    -0.183 NA
HETATM   12  C   UNL     1      41.484 -10.294  -1.741  1.00  0.00     0.153 C 
BRANCH  12  13
HETATM   13  C   UNL     1      41.360  -9.060  -2.541  1.00  0.00     0.019 A 
HETATM   14  C   UNL     1      42.314  -8.048  -2.420  1.00  0.00     0.110 A 
HETATM   15  C   UNL     1      42.180  -6.846  -3.130  1.00  0.00     0.102 A 
HETATM   16  C   UNL     1      41.089  -6.674  -3.984  1.00  0.00     0.040 A 
HETATM   17  C   UNL     1      40.136  -7.690  -4.115  1.00  0.00     0.004 A 
HETATM   18  C   UNL     1      40.267  -8.879  -3.394  1.00  0.00     0.016 A 
BRANCH  14  19
HETATM   19  O   UNL     1      43.395  -8.205  -1.590  1.00  0.00    -0.357 OA
HETATM   20  H   UNL     1      43.443  -9.167  -1.414  1.00  0.00     0.218 HD
ENDBRANCH  14  19
BRANCH  15  21
HETATM   21  O   UNL     1      43.177  -5.930  -2.904  1.00  0.00    -0.349 OA
BRANCH  21  22
HETATM   22  C   UNL     1      42.832  -4.794  -2.108  1.00  0.00     0.171 C 
HETATM   23  C   UNL     1      43.950  -4.572  -1.105  1.00  0.00     0.034 C 
ENDBRANCH  21  22
ENDBRANCH  15  21
ENDBRANCH  12  13
ENDBRANCH   8  11
ENDBRANCH   1   7
BRANCH   5  24
HETATM   24  C   UNL     1      41.304 -15.755   3.237  1.00  0.00     0.005 A 
HETATM   25  C   UNL     1      42.288 -16.780   3.377  1.00  0.00    -0.012 A 
HETATM   26  C   UNL     1      42.655 -17.090   4.666  1.00  0.00    -0.012 A 
HETATM   27  C   UNL     1      42.957 -17.533   2.376  1.00  0.00     0.013 A 
HETATM   28  C   UNL     1      43.581 -18.059   5.006  1.00  0.00    -0.046 A 
HETATM   29  C   UNL     1      42.144 -16.474   5.793  1.00  0.00    -0.046 A 
HETATM   30  C   UNL     1      44.232 -18.810   4.038  1.00  0.00     0.008 A 
HETATM   31  C   UNL     1      43.729 -18.143   6.484  1.00  0.00     0.044 A 
HETATM   32  C   UNL     1      43.903 -18.524   2.707  1.00  0.00     0.001 A 
HETATM   33  C   UNL     1      42.753 -17.052   7.023  1.00  0.00     0.044 A 
HETATM   34  C   UNL     1      41.194 -15.472   5.699  1.00  0.00     0.009 A 
HETATM   35  C   UNL     1      40.782 -15.126   4.402  1.00  0.00     0.015 A 
ENDBRANCH   5  24
TORSDOF 7
ENDMDL
MODEL 7
REMARK VINA RESULT:      -9.0      8.404     12.009
REMARK  7 active torsions:
REMARK  status: ('A' for Active; 'I' for Inactive)
REMARK    1  A    between atoms: C_2  and  O_3 
REMARK    2  A    between atoms: O_3  and  C_4 
REMARK    3  A    between atoms: C_5  and  O_6 
REMARK    4  A    between atoms: C_7  and  C_8 
REMARK    5  A    between atoms: N_9  and  N_10 
REMARK       I    between atoms: N_10  and  C_11 
REMARK    6  A    between atoms: C_11  and  C_12 
REMARK    7  A    between atoms: C_16  and  C_17 
ROOT
HETATM    1  C   UNL     1      40.450 -13.440   0.285  1.00  0.00     0.121 A 
HETATM    2  N   UNL     1      39.601 -14.510   0.223  1.00  0.00    -0.272 N 
HETATM    3  H   UNL     1      38.728 -14.560  -0.296  1.00  0.00     0.189 HD
HETATM    4  N   UNL     1      39.977 -15.556   0.970  1.00  0.00    -0.174 NA
HETATM    5  C   UNL     1      41.139 -15.182   1.525  1.00  0.00     0.090 A 
HETATM    6  C   UNL     1      41.482 -13.864   1.100  1.00  0.00     0.071 A 
ENDROOT
BRANCH   1   7
HETATM    7  C   UNL     1      40.145 -12.208  -0.398  1.00  0.00     0.289 C 
HETATM    8  N   UNL     1      41.204 -11.661  -1.106  1.00  0.00    -0.242 N 
HETATM    9  H   UNL     1      42.105 -12.121  -1.114  1.00  0.00     0.192 HD
HETATM   10  O   UNL     1      39.033 -11.692  -0.305  1.00  0.00    -0.264 OA
BRANCH   8  11
HETATM   11  N   UNL     1      41.106 -10.400  -1.620  1.00  0.00    -0.183 NA
HETATM   12  C   UNL     1      42.185  -9.687  -1.552  1.00  0.00     0.153 C 
BRANCH  12  13
HETATM   13  C   UNL     1      42.214  -8.281  -1.998  1.00  0.00     0.019 A 
HETATM   14  C   UNL     1      41.880  -7.956  -3.314  1.00  0.00     0.110 A 
HETATM   15  C   UNL     1      41.957  -6.632  -3.769  1.00  0.00     0.102 A 
HETATM   16  C   UNL     1      42.351  -5.626  -2.884  1.00  0.00     0.040 A 
HETATM   17  C   UNL     1      42.677  -5.946  -1.562  1.00  0.00     0.004 A 
HETATM   18  C   UNL     1      42.612  -7.269  -1.119  1.00  0.00     0.016 A 
BRANCH  14  19
HETATM   19  O   UNL     1      41.484  -8.933  -4.194  1.00  0.00    -0.357 OA
HETATM   20  H   UNL     1      41.918  -9.751  -3.877  1.00  0.00     0.218 HD
ENDBRANCH  14  19
BRANCH  15  21
HETATM   21  O   UNL     1      41.620  -6.457  -5.088  1.00  0.00    -0.349 OA
BRANCH  21  22
HETATM   22  C   UNL     1      42.368  -5.478  -5.814  1.00  0.00     0.171 C 
HETATM   23  C   UNL     1      43.461  -6.202  -6.578  1.00  0.00     0.034 C 
ENDBRANCH  21  22
ENDBRANCH  15  21
ENDBRANCH  12  13
ENDBRANCH   8  11
ENDBRANCH   1   7
BRANCH   5  24
HETATM   24  C   UNL     1      41.871 -16.027   2.478  1.00  0.00     0.005 A 
HETATM   25  C   UNL     1      41.671 -15.951   3.890  1.00  0.00    -0.012 A 
HETATM   26  C   UNL     1      42.452 -16.787   4.653  1.00  0.00    -0.012 A 
HETATM   27  C   UNL     1      40.774 -15.140   4.632  1.00  0.00     0.013 A 
HETATM   28  C   UNL     1      42.413 -16.852   6.034  1.00  0.00    -0.046 A 
HETATM   29  C   UNL     1      43.382 -17.672   4.141  1.00  0.00    -0.046 A 
HETATM   30  C   UNL     1      41.550 -16.055   6.772  1.00  0.00     0.008 A 
HETATM   31  C   UNL     1      43.396 -17.850   6.537  1.00  0.00     0.044 A 
HETATM   32  C   UNL     1      40.723 -15.194   6.040  1.00  0.00     0.001 A 
HETATM   33  C   UNL     1      44.052 -18.418   5.242  1.00  0.00     0.044 A 
HETATM   34  C   UNL     1      43.600 -17.780   2.778  1.00  0.00     0.009 A 
HETATM   35  C   UNL     1      42.831 -16.939   1.957  1.00  0.00     0.015 A 
ENDBRANCH   5  24
TORSDOF 7
ENDMDL
MODEL 8
REMARK VINA RESULT:      -8.9      1.959      2.094
REMARK  7 active torsions:
REMARK  status: ('A' for Active; 'I' for Inactive)
REMARK    1  A    between atoms: C_2  and  O_3 
REMARK    2  A    between atoms: O_3  and  C_4 
REMARK    3  A    between atoms: C_5  and  O_6 
REMARK    4  A    between atoms: C_7  and  C_8 
REMARK    5  A    between atoms: N_9  and  N_10 
REMARK       I    between atoms: N_10  and  C_11 
REMARK    6  A    between atoms: C_11  and  C_12 
REMARK    7  A    between atoms: C_16  and  C_17 
ROOT
HETATM    1  C   UNL     1      43.058 -10.852   7.227  1.00  0.00     0.121 A 
HETATM    2  N   UNL     1      44.330 -11.344   7.327  1.00  0.00    -0.272 N 
HETATM    3  H   UNL     1      45.067 -10.996   7.933  1.00  0.00     0.189 HD
HETATM    4  N   UNL     1      44.594 -12.361   6.495  1.00  0.00    -0.174 NA
HETATM    5  C   UNL     1      43.444 -12.575   5.839  1.00  0.00     0.090 A 
HETATM    6  C   UNL     1      42.446 -11.659   6.288  1.00  0.00     0.071 A 
ENDROOT
BRANCH   1   7
HETATM    7  C   UNL     1      42.642  -9.705   7.996  1.00  0.00     0.289 C 
HETATM    8  N   UNL     1      43.544  -9.303   8.969  1.00  0.00    -0.242 N 
HETATM    9  H   UNL     1      44.413  -9.805   9.099  1.00  0.00     0.192 HD
HETATM   10  O   UNL     1      41.551  -9.176   7.800  1.00  0.00    -0.264 OA
BRANCH   8  11
HETATM   11  N   UNL     1      43.181  -8.368   9.894  1.00  0.00    -0.183 NA
HETATM   12  C   UNL     1      43.035  -8.810  11.103  1.00  0.00     0.153 C 
BRANCH  12  13
HETATM   13  C   UNL     1      42.573  -7.934  12.197  1.00  0.00     0.019 A 
HETATM   14  C   UNL     1      41.413  -7.173  12.043  1.00  0.00     0.110 A 
HETATM   15  C   UNL     1      40.992  -6.293  13.051  1.00  0.00     0.102 A 
HETATM   16  C   UNL     1      41.733  -6.199  14.230  1.00  0.00     0.040 A 
HETATM   17  C   UNL     1      42.890  -6.968  14.393  1.00  0.00     0.004 A 
HETATM   18  C   UNL     1      43.312  -7.831  13.379  1.00  0.00     0.016 A 
BRANCH  14  19
HETATM   19  O   UNL     1      40.671  -7.259  10.892  1.00  0.00    -0.357 OA
HETATM   20  H   UNL     1      41.144  -6.700  10.242  1.00  0.00     0.218 HD
ENDBRANCH  14  19
BRANCH  15  21
HETATM   21  O   UNL     1      39.849  -5.591  12.760  1.00  0.00    -0.349 OA
BRANCH  21  22
HETATM   22  C   UNL     1      38.760  -5.737  13.675  1.00  0.00     0.171 C 
HETATM   23  C   UNL     1      37.982  -6.979  13.276  1.00  0.00     0.034 C 
ENDBRANCH  21  22
ENDBRANCH  15  21
ENDBRANCH  12  13
ENDBRANCH   8  11
ENDBRANCH   1   7
BRANCH   5  24
HETATM   24  C   UNL     1      43.314 -13.580   4.775  1.00  0.00     0.005 A 
HETATM   25  C   UNL     1      43.379 -14.984   5.027  1.00  0.00    -0.012 A 
HETATM   26  C   UNL     1      43.268 -15.799   3.925  1.00  0.00    -0.012 A 
HETATM   27  C   UNL     1      43.536 -15.674   6.258  1.00  0.00     0.013 A 
HETATM   28  C   UNL     1      43.319 -17.180   3.963  1.00  0.00    -0.046 A 
HETATM   29  C   UNL     1      43.095 -15.343   2.631  1.00  0.00    -0.046 A 
HETATM   30  C   UNL     1      43.484 -17.866   5.157  1.00  0.00     0.008 A 
HETATM   31  C   UNL     1      43.181 -17.745   2.593  1.00  0.00     0.044 A 
HETATM   32  C   UNL     1      43.589 -17.082   6.313  1.00  0.00     0.001 A 
HETATM   33  C   UNL     1      43.018 -16.489   1.683  1.00  0.00     0.044 A 
HETATM   34  C   UNL     1      43.020 -13.991   2.347  1.00  0.00     0.009 A 
HETATM   35  C   UNL     1      43.136 -13.118   3.442  1.00  0.00     0.015 A 
ENDBRANCH   5  24
TORSDOF 7
ENDMDL
MODEL 9
REMARK VINA RESULT:      -8.6      3.812      4.564
REMARK  7 active torsions:
REMARK  status: ('A' for Active; 'I' for Inactive)
REMARK    1  A    between atoms: C_2  and  O_3 
REMARK    2  A    between atoms: O_3  and  C_4 
REMARK    3  A    between atoms: C_5  and  O_6 
REMARK    4  A    between atoms: C_7  and  C_8 
REMARK    5  A    between atoms: N_9  and  N_10 
REMARK       I    between atoms: N_10  and  C_11 
REMARK    6  A    between atoms: C_11  and  C_12 
REMARK    7  A    between atoms: C_16  and  C_17 
ROOT
HETATM    1  C   UNL     1      42.386 -13.185   5.808  1.00  0.00     0.121 A 
HETATM    2  N   UNL     1      43.361 -13.740   6.588  1.00  0.00    -0.272 N 
HETATM    3  H   UNL     1      43.804 -13.315   7.398  1.00  0.00     0.189 HD
HETATM    4  N   UNL     1      43.770 -14.949   6.181  1.00  0.00    -0.174 NA
HETATM    5  C   UNL     1      43.015 -15.223   5.107  1.00  0.00     0.090 A 
HETATM    6  C   UNL     1      42.115 -14.146   4.854  1.00  0.00     0.071 A 
ENDROOT
BRANCH   1   7
HETATM    7  C   UNL     1      41.896 -11.853   6.065  1.00  0.00     0.289 C 
HETATM    8  N   UNL     1      42.884 -10.898   6.246  1.00  0.00    -0.242 N 
HETATM    9  H   UNL     1      43.860 -11.158   6.198  1.00  0.00     0.192 HD
HETATM   10  O   UNL     1      40.690 -11.629   6.148  1.00  0.00    -0.264 OA
BRANCH   8  11
HETATM   11  N   UNL     1      42.557  -9.652   6.699  1.00  0.00    -0.183 NA
HETATM   12  C   UNL     1      42.886  -9.403   7.927  1.00  0.00     0.153 C 
BRANCH  12  13
HETATM   13  C   UNL     1      42.532  -8.128   8.580  1.00  0.00     0.019 A 
HETATM   14  C   UNL     1      41.209  -7.686   8.583  1.00  0.00     0.110 A 
HETATM   15  C   UNL     1      40.865  -6.449   9.148  1.00  0.00     0.102 A 
HETATM   16  C   UNL     1      41.861  -5.665   9.734  1.00  0.00     0.040 A 
HETATM   17  C   UNL     1      43.187  -6.110   9.743  1.00  0.00     0.004 A 
HETATM   18  C   UNL     1      43.524  -7.336   9.165  1.00  0.00     0.016 A 
BRANCH  14  19
HETATM   19  O   UNL     1      40.218  -8.448   8.016  1.00  0.00    -0.357 OA
HETATM   20  H   UNL     1      39.477  -8.417   8.654  1.00  0.00     0.218 HD
ENDBRANCH  14  19
BRANCH  15  21
HETATM   21  O   UNL     1      39.533  -6.129   9.064  1.00  0.00    -0.349 OA
BRANCH  21  22
HETATM   22  C   UNL     1      39.168  -5.168   8.071  1.00  0.00     0.171 C 
HETATM   23  C   UNL     1      37.833  -4.568   8.473  1.00  0.00     0.034 C 
ENDBRANCH  21  22
ENDBRANCH  15  21
ENDBRANCH  12  13
ENDBRANCH   8  11
ENDBRANCH   1   7
BRANCH   5  24
HETATM   24  C   UNL     1      43.185 -16.446   4.310  1.00  0.00     0.005 A 
HETATM   25  C   UNL     1      43.369 -17.733   4.901  1.00  0.00    -0.012 A 
HETATM   26  C   UNL     1      43.542 -18.778   4.023  1.00  0.00    -0.012 A 
HETATM   27  C   UNL     1      43.394 -18.103   6.271  1.00  0.00     0.013 A 
HETATM   28  C   UNL     1      43.746 -20.093   4.401  1.00  0.00    -0.046 A 
HETATM   29  C   UNL     1      43.539 -18.651   2.647  1.00  0.00    -0.046 A 
HETATM   30  C   UNL     1      43.785 -20.465   5.736  1.00  0.00     0.008 A 
HETATM   31  C   UNL     1      43.909 -20.960   3.202  1.00  0.00     0.044 A 
HETATM   32  C   UNL     1      43.601 -19.438   6.671  1.00  0.00     0.001 A 
HETATM   33  C   UNL     1      43.758 -19.975   2.002  1.00  0.00     0.044 A 
HETATM   34  C   UNL     1      43.357 -17.422   2.037  1.00  0.00     0.009 A 
HETATM   35  C   UNL     1      43.183 -16.323   2.893  1.00  0.00     0.015 A 
ENDBRANCH   5  24
TORSDOF 7
ENDMDL
MODEL 10
REMARK VINA RESULT:      -8.5      3.679      4.285
REMARK  7 active torsions:
REMARK  status: ('A' for Active; 'I' for Inactive)
REMARK    1  A    between atoms: C_2  and  O_3 
REMARK    2  A    between atoms: O_3  and  C_4 
REMARK    3  A    between atoms: C_5  and  O_6 
REMARK    4  A    between atoms: C_7  and  C_8 
REMARK    5  A    between atoms: N_9  and  N_10 
REMARK       I    between atoms: N_10  and  C_11 
REMARK    6  A    between atoms: C_11  and  C_12 
REMARK    7  A    between atoms: C_16  and  C_17 
ROOT
HETATM    1  C   UNL     1      39.511 -11.922   5.368  1.00  0.00     0.121 A 
HETATM    2  N   UNL     1      39.103 -12.034   4.068  1.00  0.00    -0.272 N 
HETATM    3  H   UNL     1      38.423 -11.446   3.594  1.00  0.00     0.189 HD
HETATM    4  N   UNL     1      39.652 -13.061   3.405  1.00  0.00    -0.174 NA
HETATM    5  C   UNL     1      40.481 -13.636   4.289  1.00  0.00     0.090 A 
HETATM    6  C   UNL     1      40.438 -12.932   5.530  1.00  0.00     0.071 A 
ENDROOT
BRANCH   1   7
HETATM    7  C   UNL     1      38.952 -10.917   6.239  1.00  0.00     0.289 C 
HETATM    8  N   UNL     1      39.610 -10.771   7.450  1.00  0.00    -0.242 N 
HETATM    9  H   UNL     1      40.413 -11.347   7.668  1.00  0.00     0.192 HD
HETATM   10  O   UNL     1      37.948 -10.287   5.914  1.00  0.00    -0.264 OA
BRANCH   8  11
HETATM   11  N   UNL     1      39.061 -10.007   8.439  1.00  0.00    -0.183 NA
HETATM   12  C   UNL     1      39.902  -9.514   9.292  1.00  0.00     0.153 C 
BRANCH  12  13
HETATM   13  C   UNL     1      39.453  -8.730  10.459  1.00  0.00     0.019 A 
HETATM   14  C   UNL     1      38.839  -7.490  10.276  1.00  0.00     0.110 A 
HETATM   15  C   UNL     1      38.458  -6.707  11.375  1.00  0.00     0.102 A 
HETATM   16  C   UNL     1      38.678  -7.190  12.667  1.00  0.00     0.040 A 
HETATM   17  C   UNL     1      39.283  -8.437  12.854  1.00  0.00     0.004 A 
HETATM   18  C   UNL     1      39.674  -9.205  11.755  1.00  0.00     0.016 A 
BRANCH  14  19
HETATM   19  O   UNL     1      38.611  -7.005   9.012  1.00  0.00    -0.357 OA
HETATM   20  H   UNL     1      38.422  -6.053   9.136  1.00  0.00     0.218 HD
ENDBRANCH  14  19
BRANCH  15  21
HETATM   21  O   UNL     1      37.885  -5.503  11.053  1.00  0.00    -0.349 OA
BRANCH  21  22
HETATM   22  C   UNL     1      37.498  -4.666  12.145  1.00  0.00     0.171 C 
HETATM   23  C   UNL     1      36.260  -3.895  11.723  1.00  0.00     0.034 C 
ENDBRANCH  21  22
ENDBRANCH  15  21
ENDBRANCH  12  13
ENDBRANCH   8  11
ENDBRANCH   1   7
BRANCH   5  24
HETATM   24  C   UNL     1      41.248 -14.851   3.982  1.00  0.00     0.005 A 
HETATM   25  C   UNL     1      42.324 -15.312   4.800  1.00  0.00    -0.012 A 
HETATM   26  C   UNL     1      42.963 -16.450   4.367  1.00  0.00    -0.012 A 
HETATM   27  C   UNL     1      42.834 -14.772   6.010  1.00  0.00     0.013 A 
HETATM   28  C   UNL     1      44.032 -17.043   5.015  1.00  0.00    -0.046 A 
HETATM   29  C   UNL     1      42.625 -17.150   3.224  1.00  0.00    -0.046 A 
HETATM   30  C   UNL     1      44.548 -16.518   6.190  1.00  0.00     0.008 A 
HETATM   31  C   UNL     1      44.490 -18.247   4.269  1.00  0.00     0.044 A 
HETATM   32  C   UNL     1      43.922 -15.365   6.681  1.00  0.00     0.001 A 
HETATM   33  C   UNL     1      43.521 -18.325   3.049  1.00  0.00     0.044 A 
HETATM   34  C   UNL     1      41.585 -16.738   2.409  1.00  0.00     0.009 A 
HETATM   35  C   UNL     1      40.905 -15.575   2.807  1.00  0.00     0.015 A 
ENDBRANCH   5  24
TORSDOF 7
ENDMDL
