MODEL 1
REMARK VINA RESULT:      -8.3      0.000      0.000
REMARK  6 active torsions:
REMARK  status: ('A' for Active; 'I' for Inactive)
REMARK    1  A    between atoms: O_2  and  C_3 
REMARK    2  A    between atoms: C_3  and  C_4 
REMARK    3  A    between atoms: C_4  and  N_5 
REMARK       I    between atoms: N_5  and  C_6 
REMARK    4  A    between atoms: C_6  and  C_7 
REMARK    5  A    between atoms: C_12  and  C_13 
REMARK    6  A    between atoms: C_22  and  C_23 
ROOT
HETATM    1  C   UNL     1      40.141 -13.129   1.063  1.00  0.00     0.148 A 
HETATM    2  N   UNL     1      40.347 -12.703   2.331  1.00  0.00    -0.165 NA
HETATM    3  N   UNL     1      41.354 -13.481   2.759  1.00  0.00    -0.240 N 
HETATM    4  C   UNL     1      41.744 -14.439   1.865  1.00  0.00     0.123 A 
HETATM    5  N   UNL     1      42.659 -15.375   2.191  1.00  0.00    -0.366 N 
HETATM    6  C   UNL     1      43.282 -15.428   3.511  1.00  0.00     0.118 C 
HETATM    7  C   UNL     1      42.393 -14.740   4.567  1.00  0.00     0.066 C 
HETATM    8  C   UNL     1      41.908 -13.359   4.093  1.00  0.00     0.221 C 
HETATM    9  C   UNL     1      41.014 -14.205   0.731  1.00  0.00     0.088 A 
HETATM   10  H   UNL     1      43.061 -15.986   1.480  1.00  0.00     0.161 HD
ENDROOT
BRANCH   1  11
HETATM   11  C   UNL     1      39.109 -12.542   0.194  1.00  0.00     0.272 C 
HETATM   12  N   UNL     1      38.728 -13.365  -0.842  1.00  0.00    -0.354 N 
HETATM   13  H   UNL     1      39.292 -14.202  -0.966  1.00  0.00     0.162 HD
HETATM   14  O   UNL     1      38.653 -11.415   0.367  1.00  0.00    -0.266 OA
BRANCH  12  15
HETATM   15  C   UNL     1      37.865 -12.916  -1.913  1.00  0.00     0.149 C 
BRANCH  15  16
HETATM   16  C   UNL     1      38.643 -12.255  -3.054  1.00  0.00     0.186 C 
BRANCH  16  17
HETATM   17  O   UNL     1      39.774 -13.069  -3.385  1.00  0.00    -0.394 OA
HETATM   18  C   UNL     1      40.995 -12.388  -3.129  1.00  0.00     0.201 C 
ENDBRANCH  16  17
ENDBRANCH  15  16
ENDBRANCH  12  15
ENDBRANCH   1  11
BRANCH   8  19
HETATM   19  C   UNL     1      43.012 -12.325   4.098  1.00  0.00     0.409 C 
HETATM   20  F   UNL     1      42.549 -11.070   4.284  1.00  0.00    -0.169 F 
HETATM   21  F   UNL     1      43.868 -12.576   5.125  1.00  0.00    -0.169 F 
HETATM   22  F   UNL     1      43.755 -12.329   2.972  1.00  0.00    -0.169 F 
ENDBRANCH   8  19
BRANCH   6  23
HETATM   23  C   UNL     1      43.531 -16.878   3.896  1.00  0.00    -0.034 A 
HETATM   24  C   UNL     1      43.598 -17.890   2.920  1.00  0.00     0.034 A 
HETATM   25  C   UNL     1      43.809 -19.226   3.277  1.00  0.00     0.056 A 
HETATM   26 CL   UNL     1      43.883 -20.396   2.008  1.00  0.00    -0.083 Cl
HETATM   27  C   UNL     1      43.948 -19.569   4.624  1.00  0.00     0.055 A 
HETATM   28 CL   UNL     1      44.207 -21.196   5.146  1.00  0.00    -0.083 Cl
HETATM   29  C   UNL     1      43.876 -18.575   5.604  1.00  0.00     0.026 A 
HETATM   30  C   UNL     1      43.669 -17.240   5.244  1.00  0.00     0.011 A 
ENDBRANCH   6  23
TORSDOF 6
ENDMDL
MODEL 2
REMARK VINA RESULT:      -8.1      4.860      8.145
REMARK  6 active torsions:
REMARK  status: ('A' for Active; 'I' for Inactive)
REMARK    1  A    between atoms: O_2  and  C_3 
REMARK    2  A    between atoms: C_3  and  C_4 
REMARK    3  A    between atoms: C_4  and  N_5 
REMARK       I    between atoms: N_5  and  C_6 
REMARK    4  A    between atoms: C_6  and  C_7 
REMARK    5  A    between atoms: C_12  and  C_13 
REMARK    6  A    between atoms: C_22  and  C_23 
ROOT
HETATM    1  C   UNL     1      43.232 -13.464   5.150  1.00  0.00     0.148 A 
HETATM    2  N   UNL     1      42.602 -14.663   5.130  1.00  0.00    -0.165 NA
HETATM    3  N   UNL     1      42.194 -14.778   3.857  1.00  0.00    -0.240 N 
HETATM    4  C   UNL     1      42.450 -13.680   3.084  1.00  0.00     0.123 A 
HETATM    5  N   UNL     1      41.996 -13.590   1.816  1.00  0.00    -0.366 N 
HETATM    6  C   UNL     1      41.202 -14.648   1.197  1.00  0.00     0.118 C 
HETATM    7  C   UNL     1      40.497 -15.505   2.269  1.00  0.00     0.066 C 
HETATM    8  C   UNL     1      41.465 -15.938   3.383  1.00  0.00     0.221 C 
HETATM    9  C   UNL     1      43.171 -12.829   3.877  1.00  0.00     0.088 A 
HETATM   10  H   UNL     1      42.318 -12.848   1.195  1.00  0.00     0.161 HD
ENDROOT
BRANCH   1  11
HETATM   11  C   UNL     1      43.850 -12.922   6.369  1.00  0.00     0.272 C 
HETATM   12  N   UNL     1      44.647 -11.822   6.140  1.00  0.00    -0.354 N 
HETATM   13  H   UNL     1      44.823 -11.606   5.162  1.00  0.00     0.162 HD
HETATM   14  O   UNL     1      43.689 -13.421   7.479  1.00  0.00    -0.266 OA
BRANCH  12  15
HETATM   15  C   UNL     1      45.489 -11.246   7.165  1.00  0.00     0.149 C 
BRANCH  15  16
HETATM   16  C   UNL     1      44.709 -10.344   8.124  1.00  0.00     0.186 C 
BRANCH  16  17
HETATM   17  O   UNL     1      44.883 -10.819   9.464  1.00  0.00    -0.394 OA
HETATM   18  C   UNL     1      44.951  -9.744  10.391  1.00  0.00     0.201 C 
ENDBRANCH  16  17
ENDBRANCH  15  16
ENDBRANCH  12  15
ENDBRANCH   1  11
BRANCH   8  19
HETATM   19  C   UNL     1      42.437 -17.002   2.925  1.00  0.00     0.409 C 
HETATM   20  F   UNL     1      43.538 -16.486   2.338  1.00  0.00    -0.169 F 
HETATM   21  F   UNL     1      42.871 -17.716   3.998  1.00  0.00    -0.169 F 
HETATM   22  F   UNL     1      41.892 -17.893   2.070  1.00  0.00    -0.169 F 
ENDBRANCH   8  19
BRANCH   6  23
HETATM   23  C   UNL     1      40.177 -14.031   0.258  1.00  0.00    -0.034 A 
HETATM   24  C   UNL     1      39.780 -14.689  -0.921  1.00  0.00     0.034 A 
HETATM   25  C   UNL     1      38.852 -14.112  -1.793  1.00  0.00     0.056 A 
HETATM   26 CL   UNL     1      38.421 -14.998  -3.212  1.00  0.00    -0.083 Cl
HETATM   27  C   UNL     1      38.312 -12.857  -1.499  1.00  0.00     0.055 A 
HETATM   28 CL   UNL     1      37.165 -12.076  -2.527  1.00  0.00    -0.083 Cl
HETATM   29  C   UNL     1      38.704 -12.189  -0.335  1.00  0.00     0.026 A 
HETATM   30  C   UNL     1      39.630 -12.770   0.537  1.00  0.00     0.011 A 
ENDBRANCH   6  23
TORSDOF 6
ENDMDL
MODEL 3
REMARK VINA RESULT:      -7.5      3.584      5.635
REMARK  6 active torsions:
REMARK  status: ('A' for Active; 'I' for Inactive)
REMARK    1  A    between atoms: O_2  and  C_3 
REMARK    2  A    between atoms: C_3  and  C_4 
REMARK    3  A    between atoms: C_4  and  N_5 
REMARK       I    between atoms: N_5  and  C_6 
REMARK    4  A    between atoms: C_6  and  C_7 
REMARK    5  A    between atoms: C_12  and  C_13 
REMARK    6  A    between atoms: C_22  and  C_23 
ROOT
HETATM    1  C   UNL     1      40.161 -11.845   4.433  1.00  0.00     0.148 A 
HETATM    2  N   UNL     1      40.891 -11.769   3.295  1.00  0.00    -0.165 NA
HETATM    3  N   UNL     1      41.119 -13.055   2.986  1.00  0.00    -0.240 N 
HETATM    4  C   UNL     1      40.650 -13.946   3.910  1.00  0.00     0.123 A 
HETATM    5  N   UNL     1      40.905 -15.268   3.807  1.00  0.00    -0.366 N 
HETATM    6  C   UNL     1      41.697 -15.824   2.713  1.00  0.00     0.118 C 
HETATM    7  C   UNL     1      42.628 -14.753   2.108  1.00  0.00     0.066 C 
HETATM    8  C   UNL     1      41.877 -13.444   1.813  1.00  0.00     0.221 C 
HETATM    9  C   UNL     1      39.975 -13.198   4.837  1.00  0.00     0.088 A 
HETATM   10  H   UNL     1      40.427 -15.943   4.405  1.00  0.00     0.161 HD
ENDROOT
BRANCH   1  11
HETATM   11  C   UNL     1      39.678 -10.648   5.138  1.00  0.00     0.272 C 
HETATM   12  N   UNL     1      40.491 -10.256   6.177  1.00  0.00    -0.354 N 
HETATM   13  H   UNL     1      41.236 -10.904   6.419  1.00  0.00     0.162 HD
HETATM   14  O   UNL     1      38.634 -10.074   4.840  1.00  0.00    -0.266 OA
BRANCH  12  15
HETATM   15  C   UNL     1      40.111  -9.218   7.111  1.00  0.00     0.149 C 
BRANCH  15  16
HETATM   16  C   UNL     1      39.381  -9.773   8.337  1.00  0.00     0.186 C 
BRANCH  16  17
HETATM   17  O   UNL     1      38.602  -8.729   8.933  1.00  0.00    -0.394 OA
HETATM   18  C   UNL     1      39.127  -8.347  10.197  1.00  0.00     0.201 C 
ENDBRANCH  16  17
ENDBRANCH  15  16
ENDBRANCH  12  15
ENDBRANCH   1  11
BRANCH   8  19
HETATM   19  C   UNL     1      40.954 -13.561   0.621  1.00  0.00     0.409 C 
HETATM   20  F   UNL     1      41.080 -14.741  -0.023  1.00  0.00    -0.169 F 
HETATM   21  F   UNL     1      39.661 -13.484   1.035  1.00  0.00    -0.169 F 
HETATM   22  F   UNL     1      41.122 -12.575  -0.286  1.00  0.00    -0.169 F 
ENDBRANCH   8  19
BRANCH   6  23
HETATM   23  C   UNL     1      42.511 -17.003   3.224  1.00  0.00    -0.034 A 
HETATM   24  C   UNL     1      42.801 -18.102   2.394  1.00  0.00     0.034 A 
HETATM   25  C   UNL     1      43.533 -19.194   2.871  1.00  0.00     0.056 A 
HETATM   26 CL   UNL     1      43.845 -20.494   1.776  1.00  0.00    -0.083 Cl
HETATM   27  C   UNL     1      43.981 -19.203   4.194  1.00  0.00     0.055 A 
HETATM   28 CL   UNL     1      44.888 -20.515   4.859  1.00  0.00    -0.083 Cl
HETATM   29  C   UNL     1      43.694 -18.121   5.031  1.00  0.00     0.026 A 
HETATM   30  C   UNL     1      42.964 -17.029   4.551  1.00  0.00     0.011 A 
ENDBRANCH   6  23
TORSDOF 6
ENDMDL
MODEL 4
REMARK VINA RESULT:      -7.5      1.521      2.099
REMARK  6 active torsions:
REMARK  status: ('A' for Active; 'I' for Inactive)
REMARK    1  A    between atoms: O_2  and  C_3 
REMARK    2  A    between atoms: C_3  and  C_4 
REMARK    3  A    between atoms: C_4  and  N_5 
REMARK       I    between atoms: N_5  and  C_6 
REMARK    4  A    between atoms: C_6  and  C_7 
REMARK    5  A    between atoms: C_12  and  C_13 
REMARK    6  A    between atoms: C_22  and  C_23 
ROOT
HETATM    1  C   UNL     1      39.852 -13.426  -0.055  1.00  0.00     0.148 A 
HETATM    2  N   UNL     1      39.770 -12.979   1.221  1.00  0.00    -0.165 NA
HETATM    3  N   UNL     1      40.804 -13.582   1.828  1.00  0.00    -0.240 N 
HETATM    4  C   UNL     1      41.490 -14.457   1.033  1.00  0.00     0.123 A 
HETATM    5  N   UNL     1      42.478 -15.231   1.527  1.00  0.00    -0.366 N 
HETATM    6  C   UNL     1      42.871 -15.188   2.933  1.00  0.00     0.118 C 
HETATM    7  C   UNL     1      41.716 -14.661   3.810  1.00  0.00     0.066 C 
HETATM    8  C   UNL     1      41.099 -13.377   3.232  1.00  0.00     0.221 C 
HETATM    9  C   UNL     1      40.932 -14.341  -0.212  1.00  0.00     0.088 A 
HETATM   10  H   UNL     1      43.088 -15.764   0.906  1.00  0.00     0.161 HD
ENDROOT
BRANCH   1  11
HETATM   11  C   UNL     1      38.899 -13.012  -1.096  1.00  0.00     0.272 C 
HETATM   12  N   UNL     1      38.804 -11.647  -1.245  1.00  0.00    -0.354 N 
HETATM   13  H   UNL     1      39.286 -11.095  -0.540  1.00  0.00     0.162 HD
HETATM   14  O   UNL     1      38.235 -13.812  -1.749  1.00  0.00    -0.266 OA
BRANCH  12  15
HETATM   15  C   UNL     1      37.800 -11.024  -2.080  1.00  0.00     0.149 C 
BRANCH  15  16
HETATM   16  C   UNL     1      36.715 -10.318  -1.264  1.00  0.00     0.186 C 
BRANCH  16  17
HETATM   17  O   UNL     1      37.334  -9.544  -0.230  1.00  0.00    -0.394 OA
HETATM   18  C   UNL     1      36.413  -9.233   0.807  1.00  0.00     0.201 C 
ENDBRANCH  16  17
ENDBRANCH  15  16
ENDBRANCH  12  15
ENDBRANCH   1  11
BRANCH   8  19
HETATM   19  C   UNL     1      42.001 -12.175   3.397  1.00  0.00     0.409 C 
HETATM   20  F   UNL     1      41.314 -11.031   3.605  1.00  0.00    -0.169 F 
HETATM   21  F   UNL     1      42.798 -12.348   4.486  1.00  0.00    -0.169 F 
HETATM   22  F   UNL     1      42.827 -11.976   2.349  1.00  0.00    -0.169 F 
ENDBRANCH   8  19
BRANCH   6  23
HETATM   23  C   UNL     1      43.286 -16.579   3.387  1.00  0.00    -0.034 A 
HETATM   24  C   UNL     1      43.222 -17.680   2.512  1.00  0.00     0.034 A 
HETATM   25  C   UNL     1      43.586 -18.962   2.936  1.00  0.00     0.056 A 
HETATM   26 CL   UNL     1      43.482 -20.249   1.789  1.00  0.00    -0.083 Cl
HETATM   27  C   UNL     1      44.014 -19.161   4.251  1.00  0.00     0.055 A 
HETATM   28 CL   UNL     1      44.476 -20.714   4.852  1.00  0.00    -0.083 Cl
HETATM   29  C   UNL     1      44.074 -18.078   5.132  1.00  0.00     0.026 A 
HETATM   30  C   UNL     1      43.713 -16.796   4.705  1.00  0.00     0.011 A 
ENDBRANCH   6  23
TORSDOF 6
ENDMDL
MODEL 5
REMARK VINA RESULT:      -7.4      4.524      5.920
REMARK  6 active torsions:
REMARK  status: ('A' for Active; 'I' for Inactive)
REMARK    1  A    between atoms: O_2  and  C_3 
REMARK    2  A    between atoms: C_3  and  C_4 
REMARK    3  A    between atoms: C_4  and  N_5 
REMARK       I    between atoms: N_5  and  C_6 
REMARK    4  A    between atoms: C_6  and  C_7 
REMARK    5  A    between atoms: C_12  and  C_13 
REMARK    6  A    between atoms: C_22  and  C_23 
ROOT
HETATM    1  C   UNL     1      40.902 -14.561   2.069  1.00  0.00     0.148 A 
HETATM    2  N   UNL     1      41.656 -15.477   2.721  1.00  0.00    -0.165 NA
HETATM    3  N   UNL     1      41.913 -14.886   3.898  1.00  0.00    -0.240 N 
HETATM    4  C   UNL     1      41.439 -13.608   4.000  1.00  0.00     0.123 A 
HETATM    5  N   UNL     1      41.719 -12.836   5.072  1.00  0.00    -0.366 N 
HETATM    6  C   UNL     1      42.546 -13.312   6.178  1.00  0.00     0.118 C 
HETATM    7  C   UNL     1      43.471 -14.458   5.720  1.00  0.00     0.066 C 
HETATM    8  C   UNL     1      42.705 -15.530   4.928  1.00  0.00     0.221 C 
HETATM    9  C   UNL     1      40.730 -13.383   2.851  1.00  0.00     0.088 A 
HETATM   10  H   UNL     1      41.240 -11.948   5.218  1.00  0.00     0.161 HD
ENDROOT
BRANCH   1  11
HETATM   11  C   UNL     1      40.382 -14.793   0.713  1.00  0.00     0.272 C 
HETATM   12  N   UNL     1      40.706 -13.795  -0.179  1.00  0.00    -0.354 N 
HETATM   13  H   UNL     1      41.135 -12.968   0.227  1.00  0.00     0.162 HD
HETATM   14  O   UNL     1      39.702 -15.772   0.417  1.00  0.00    -0.266 OA
BRANCH  12  15
HETATM   15  C   UNL     1      40.146 -13.733  -1.512  1.00  0.00     0.149 C 
BRANCH  15  16
HETATM   16  C   UNL     1      38.747 -13.114  -1.530  1.00  0.00     0.186 C 
BRANCH  16  17
HETATM   17  O   UNL     1      37.932 -13.819  -2.475  1.00  0.00    -0.394 OA
HETATM   18  C   UNL     1      38.574 -15.002  -2.932  1.00  0.00     0.201 C 
ENDBRANCH  16  17
ENDBRANCH  15  16
ENDBRANCH  12  15
ENDBRANCH   1  11
BRANCH   8  19
HETATM   19  C   UNL     1      41.811 -16.374   5.809  1.00  0.00     0.409 C 
HETATM   20  F   UNL     1      40.533 -16.407   5.377  1.00  0.00    -0.169 F 
HETATM   21  F   UNL     1      42.252 -17.661   5.807  1.00  0.00    -0.169 F 
HETATM   22  F   UNL     1      41.802 -15.977   7.099  1.00  0.00    -0.169 F 
ENDBRANCH   8  19
BRANCH   6  23
HETATM   23  C   UNL     1      43.368 -12.158   6.730  1.00  0.00    -0.034 A 
HETATM   24  C   UNL     1      42.764 -10.936   7.081  1.00  0.00     0.034 A 
HETATM   25  C   UNL     1      43.525  -9.869   7.570  1.00  0.00     0.056 A 
HETATM   26 CL   UNL     1      42.694  -8.410   7.981  1.00  0.00    -0.083 Cl
HETATM   27  C   UNL     1      44.908 -10.009   7.708  1.00  0.00     0.055 A 
HETATM   28 CL   UNL     1      45.916  -8.738   8.301  1.00  0.00    -0.083 Cl
HETATM   29  C   UNL     1      45.521 -11.215   7.356  1.00  0.00     0.026 A 
HETATM   30  C   UNL     1      44.758 -12.282   6.870  1.00  0.00     0.011 A 
ENDBRANCH   6  23
TORSDOF 6
ENDMDL
MODEL 6
REMARK VINA RESULT:      -7.4      4.573      7.882
REMARK  6 active torsions:
REMARK  status: ('A' for Active; 'I' for Inactive)
REMARK    1  A    between atoms: O_2  and  C_3 
REMARK    2  A    between atoms: C_3  and  C_4 
REMARK    3  A    between atoms: C_4  and  N_5 
REMARK       I    between atoms: N_5  and  C_6 
REMARK    4  A    between atoms: C_6  and  C_7 
REMARK    5  A    between atoms: C_12  and  C_13 
REMARK    6  A    between atoms: C_22  and  C_23 
ROOT
HETATM    1  C   UNL     1      42.063 -16.000   3.830  1.00  0.00     0.148 A 
HETATM    2  N   UNL     1      42.323 -14.760   4.309  1.00  0.00    -0.165 NA
HETATM    3  N   UNL     1      41.265 -14.042   3.903  1.00  0.00    -0.240 N 
HETATM    4  C   UNL     1      40.386 -14.732   3.117  1.00  0.00     0.123 A 
HETATM    5  N   UNL     1      39.335 -14.120   2.530  1.00  0.00    -0.366 N 
HETATM    6  C   UNL     1      39.078 -12.692   2.691  1.00  0.00     0.118 C 
HETATM    7  C   UNL     1      40.371 -11.938   3.063  1.00  0.00     0.066 C 
HETATM    8  C   UNL     1      41.128 -12.632   4.208  1.00  0.00     0.221 C 
HETATM    9  C   UNL     1      40.844 -16.022   3.093  1.00  0.00     0.088 A 
HETATM   10  H   UNL     1      38.599 -14.662   2.076  1.00  0.00     0.161 HD
ENDROOT
BRANCH   1  11
HETATM   11  C   UNL     1      42.975 -17.133   4.045  1.00  0.00     0.272 C 
HETATM   12  N   UNL     1      43.481 -17.661   2.878  1.00  0.00    -0.354 N 
HETATM   13  H   UNL     1      43.066 -17.306   2.021  1.00  0.00     0.162 HD
HETATM   14  O   UNL     1      43.236 -17.578   5.159  1.00  0.00    -0.266 OA
BRANCH  12  15
HETATM   15  C   UNL     1      44.249 -18.887   2.850  1.00  0.00     0.149 C 
BRANCH  15  16
HETATM   16  C   UNL     1      43.474 -20.048   2.224  1.00  0.00     0.186 C 
BRANCH  16  17
HETATM   17  O   UNL     1      43.762 -21.251   2.948  1.00  0.00    -0.394 OA
HETATM   18  C   UNL     1      43.940 -20.991   4.334  1.00  0.00     0.201 C 
ENDBRANCH  16  17
ENDBRANCH  15  16
ENDBRANCH  12  15
ENDBRANCH   1  11
BRANCH   8  19
HETATM   19  C   UNL     1      40.440 -12.460   5.544  1.00  0.00     0.409 C 
HETATM   20  F   UNL     1      39.723 -13.545   5.906  1.00  0.00    -0.169 F 
HETATM   21  F   UNL     1      41.372 -12.272   6.517  1.00  0.00    -0.169 F 
HETATM   22  F   UNL     1      39.621 -11.388   5.591  1.00  0.00    -0.169 F 
ENDBRANCH   8  19
BRANCH   6  23
HETATM   23  C   UNL     1      38.493 -12.133   1.403  1.00  0.00    -0.034 A 
HETATM   24  C   UNL     1      38.985 -12.534   0.146  1.00  0.00     0.034 A 
HETATM   25  C   UNL     1      38.459 -12.005  -1.037  1.00  0.00     0.056 A 
HETATM   26 CL   UNL     1      39.122 -12.562  -2.532  1.00  0.00    -0.083 Cl
HETATM   27  C   UNL     1      37.434 -11.058  -0.977  1.00  0.00     0.055 A 
HETATM   28 CL   UNL     1      36.736 -10.355  -2.392  1.00  0.00    -0.083 Cl
HETATM   29  C   UNL     1      36.942 -10.646   0.265  1.00  0.00     0.026 A 
HETATM   30  C   UNL     1      37.467 -11.178   1.446  1.00  0.00     0.011 A 
ENDBRANCH   6  23
TORSDOF 6
ENDMDL
MODEL 7
REMARK VINA RESULT:      -7.3      4.232      5.564
REMARK  6 active torsions:
REMARK  status: ('A' for Active; 'I' for Inactive)
REMARK    1  A    between atoms: O_2  and  C_3 
REMARK    2  A    between atoms: C_3  and  C_4 
REMARK    3  A    between atoms: C_4  and  N_5 
REMARK       I    between atoms: N_5  and  C_6 
REMARK    4  A    between atoms: C_6  and  C_7 
REMARK    5  A    between atoms: C_12  and  C_13 
REMARK    6  A    between atoms: C_22  and  C_23 
ROOT
HETATM    1  C   UNL     1      40.277 -14.293   1.256  1.00  0.00     0.148 A 
HETATM    2  N   UNL     1      41.357 -15.061   1.532  1.00  0.00    -0.165 NA
HETATM    3  N   UNL     1      41.657 -14.731   2.799  1.00  0.00    -0.240 N 
HETATM    4  C   UNL     1      40.883 -13.731   3.317  1.00  0.00     0.123 A 
HETATM    5  N   UNL     1      41.136 -13.202   4.533  1.00  0.00    -0.366 N 
HETATM    6  C   UNL     1      42.249 -13.657   5.362  1.00  0.00     0.118 C 
HETATM    7  C   UNL     1      43.349 -14.308   4.498  1.00  0.00     0.066 C 
HETATM    8  C   UNL     1      42.768 -15.333   3.509  1.00  0.00     0.221 C 
HETATM    9  C   UNL     1      39.941 -13.459   2.361  1.00  0.00     0.088 A 
HETATM   10  H   UNL     1      40.470 -12.572   4.979  1.00  0.00     0.161 HD
ENDROOT
BRANCH   1  11
HETATM   11  C   UNL     1      39.599 -14.330  -0.048  1.00  0.00     0.272 C 
HETATM   12  N   UNL     1      39.110 -13.107  -0.450  1.00  0.00    -0.354 N 
HETATM   13  H   UNL     1      39.149 -12.370   0.249  1.00  0.00     0.162 HD
HETATM   14  O   UNL     1      39.463 -15.361  -0.701  1.00  0.00    -0.266 OA
BRANCH  12  15
HETATM   15  C   UNL     1      38.256 -12.954  -1.608  1.00  0.00     0.149 C 
BRANCH  15  16
HETATM   16  C   UNL     1      39.046 -12.639  -2.880  1.00  0.00     0.186 C 
BRANCH  16  17
HETATM   17  O   UNL     1      39.300 -13.857  -3.590  1.00  0.00    -0.394 OA
HETATM   18  C   UNL     1      38.123 -14.643  -3.709  1.00  0.00     0.201 C 
ENDBRANCH  16  17
ENDBRANCH  15  16
ENDBRANCH  12  15
ENDBRANCH   1  11
BRANCH   8  19
HETATM   19  C   UNL     1      42.313 -16.603   4.192  1.00  0.00     0.409 C 
HETATM   20  F   UNL     1      42.483 -17.699   3.422  1.00  0.00    -0.169 F 
HETATM   21  F   UNL     1      43.050 -16.805   5.318  1.00  0.00    -0.169 F 
HETATM   22  F   UNL     1      41.022 -16.569   4.584  1.00  0.00    -0.169 F 
ENDBRANCH   8  19
BRANCH   6  23
HETATM   23  C   UNL     1      42.816 -12.480   6.140  1.00  0.00    -0.034 A 
HETATM   24  C   UNL     1      42.157 -11.236   6.161  1.00  0.00     0.034 A 
HETATM   25  C   UNL     1      42.690 -10.149   6.861  1.00  0.00     0.056 A 
HETATM   26 CL   UNL     1      41.807  -8.664   6.835  1.00  0.00    -0.083 Cl
HETATM   27  C   UNL     1      43.899 -10.291   7.547  1.00  0.00     0.055 A 
HETATM   28 CL   UNL     1      44.623  -8.995   8.431  1.00  0.00    -0.083 Cl
HETATM   29  C   UNL     1      44.567 -11.519   7.527  1.00  0.00     0.026 A 
HETATM   30  C   UNL     1      44.031 -12.605   6.829  1.00  0.00     0.011 A 
ENDBRANCH   6  23
TORSDOF 6
ENDMDL
MODEL 8
REMARK VINA RESULT:      -7.1      3.205      4.364
REMARK  6 active torsions:
REMARK  status: ('A' for Active; 'I' for Inactive)
REMARK    1  A    between atoms: O_2  and  C_3 
REMARK    2  A    between atoms: C_3  and  C_4 
REMARK    3  A    between atoms: C_4  and  N_5 
REMARK       I    between atoms: N_5  and  C_6 
REMARK    4  A    between atoms: C_6  and  C_7 
REMARK    5  A    between atoms: C_12  and  C_13 
REMARK    6  A    between atoms: C_22  and  C_23 
ROOT
HETATM    1  C   UNL     1      40.470 -11.588   4.114  1.00  0.00     0.148 A 
HETATM    2  N   UNL     1      41.079 -11.652   2.906  1.00  0.00    -0.165 NA
HETATM    3  N   UNL     1      41.218 -12.971   2.699  1.00  0.00    -0.240 N 
HETATM    4  C   UNL     1      40.812 -13.750   3.746  1.00  0.00     0.123 A 
HETATM    5  N   UNL     1      40.999 -15.087   3.742  1.00  0.00    -0.366 N 
HETATM    6  C   UNL     1      41.647 -15.778   2.631  1.00  0.00     0.118 C 
HETATM    7  C   UNL     1      42.554 -14.815   1.837  1.00  0.00     0.066 C 
HETATM    8  C   UNL     1      41.832 -13.501   1.497  1.00  0.00     0.221 C 
HETATM    9  C   UNL     1      40.271 -12.888   4.660  1.00  0.00     0.088 A 
HETATM   10  H   UNL     1      40.559 -15.680   4.446  1.00  0.00     0.161 HD
ENDROOT
BRANCH   1  11
HETATM   11  C   UNL     1      40.114 -10.309   4.748  1.00  0.00     0.272 C 
HETATM   12  N   UNL     1      39.533  -9.409   3.884  1.00  0.00    -0.354 N 
HETATM   13  H   UNL     1      39.546  -9.673   2.902  1.00  0.00     0.162 HD
HETATM   14  O   UNL     1      40.340 -10.065   5.930  1.00  0.00    -0.266 OA
BRANCH  12  15
HETATM   15  C   UNL     1      39.273  -8.034   4.254  1.00  0.00     0.149 C 
BRANCH  15  16
HETATM   16  C   UNL     1      40.225  -7.053   3.566  1.00  0.00     0.186 C 
BRANCH  16  17
HETATM   17  O   UNL     1      40.636  -7.600   2.307  1.00  0.00    -0.394 OA
HETATM   18  C   UNL     1      40.717  -6.595   1.306  1.00  0.00     0.201 C 
ENDBRANCH  16  17
ENDBRANCH  15  16
ENDBRANCH  12  15
ENDBRANCH   1  11
BRANCH   8  19
HETATM   19  C   UNL     1      40.784 -13.676   0.420  1.00  0.00     0.409 C 
HETATM   20  F   UNL     1      39.525 -13.554   0.892  1.00  0.00    -0.169 F 
HETATM   21  F   UNL     1      40.936 -12.712  -0.526  1.00  0.00    -0.169 F 
HETATM   22  F   UNL     1      40.871 -14.859  -0.224  1.00  0.00    -0.169 F 
ENDBRANCH   8  19
BRANCH   6  23
HETATM   23  C   UNL     1      42.460 -16.947   3.167  1.00  0.00    -0.034 A 
HETATM   24  C   UNL     1      42.761 -18.057   2.355  1.00  0.00     0.034 A 
HETATM   25  C   UNL     1      43.493 -19.140   2.854  1.00  0.00     0.056 A 
HETATM   26 CL   UNL     1      43.819 -20.454   1.781  1.00  0.00    -0.083 Cl
HETATM   27  C   UNL     1      43.928 -19.129   4.181  1.00  0.00     0.055 A 
HETATM   28 CL   UNL     1      44.832 -20.428   4.873  1.00  0.00    -0.083 Cl
HETATM   29  C   UNL     1      43.629 -18.036   5.000  1.00  0.00     0.026 A 
HETATM   30  C   UNL     1      42.901 -16.953   4.498  1.00  0.00     0.011 A 
ENDBRANCH   6  23
TORSDOF 6
ENDMDL
MODEL 9
REMARK VINA RESULT:      -7.1     11.781     14.471
REMARK  6 active torsions:
REMARK  status: ('A' for Active; 'I' for Inactive)
REMARK    1  A    between atoms: O_2  and  C_3 
REMARK    2  A    between atoms: C_3  and  C_4 
REMARK    3  A    between atoms: C_4  and  N_5 
REMARK       I    between atoms: N_5  and  C_6 
REMARK    4  A    between atoms: C_6  and  C_7 
REMARK    5  A    between atoms: C_12  and  C_13 
REMARK    6  A    between atoms: C_22  and  C_23 
ROOT
HETATM    1  C   UNL     1      41.223  -7.512  15.467  1.00  0.00     0.148 A 
HETATM    2  N   UNL     1      40.722  -6.700  14.506  1.00  0.00    -0.165 NA
HETATM    3  N   UNL     1      40.951  -7.382  13.373  1.00  0.00    -0.240 N 
HETATM    4  C   UNL     1      41.647  -8.545  13.548  1.00  0.00     0.123 A 
HETATM    5  N   UNL     1      42.060  -9.283  12.496  1.00  0.00    -0.366 N 
HETATM    6  C   UNL     1      41.797  -8.885  11.115  1.00  0.00     0.118 C 
HETATM    7  C   UNL     1      41.562  -7.364  11.016  1.00  0.00     0.066 C 
HETATM    8  C   UNL     1      40.561  -6.869  12.074  1.00  0.00     0.221 C 
HETATM    9  C   UNL     1      41.794  -8.688  14.901  1.00  0.00     0.088 A 
HETATM   10  H   UNL     1      42.439 -10.220  12.629  1.00  0.00     0.161 HD
ENDROOT
BRANCH   1  11
HETATM   11  C   UNL     1      41.186  -7.159  16.894  1.00  0.00     0.272 C 
HETATM   12  N   UNL     1      40.891  -8.223  17.717  1.00  0.00    -0.354 N 
HETATM   13  H   UNL     1      40.602  -9.075  17.244  1.00  0.00     0.162 HD
HETATM   14  O   UNL     1      41.375  -6.017  17.304  1.00  0.00    -0.266 OA
BRANCH  12  15
HETATM   15  C   UNL     1      40.627  -8.061  19.131  1.00  0.00     0.149 C 
BRANCH  15  16
HETATM   16  C   UNL     1      39.239  -8.567  19.528  1.00  0.00     0.186 C 
BRANCH  16  17
HETATM   17  O   UNL     1      39.344  -9.331  20.735  1.00  0.00    -0.394 OA
HETATM   18  C   UNL     1      40.505 -10.150  20.731  1.00  0.00     0.201 C 
ENDBRANCH  16  17
ENDBRANCH  15  16
ENDBRANCH  12  15
ENDBRANCH   1  11
BRANCH   8  19
HETATM   19  C   UNL     1      39.140  -7.282  11.764  1.00  0.00     0.409 C 
HETATM   20  F   UNL     1      38.238  -6.328  12.083  1.00  0.00    -0.169 F 
HETATM   21  F   UNL     1      39.010  -7.504  10.429  1.00  0.00    -0.169 F 
HETATM   22  F   UNL     1      38.767  -8.425  12.378  1.00  0.00    -0.169 F 
ENDBRANCH   8  19
BRANCH   6  23
HETATM   23  C   UNL     1      42.968  -9.297  10.236  1.00  0.00    -0.034 A 
HETATM   24  C   UNL     1      42.767  -9.730   8.912  1.00  0.00     0.034 A 
HETATM   25  C   UNL     1      43.843 -10.127   8.111  1.00  0.00     0.056 A 
HETATM   26 CL   UNL     1      43.499 -10.637   6.496  1.00  0.00    -0.083 Cl
HETATM   27  C   UNL     1      45.140 -10.101   8.630  1.00  0.00     0.055 A 
HETATM   28 CL   UNL     1      46.519 -10.579   7.707  1.00  0.00    -0.083 Cl
HETATM   29  C   UNL     1      45.351  -9.680   9.946  1.00  0.00     0.026 A 
HETATM   30  C   UNL     1      44.274  -9.281  10.744  1.00  0.00     0.011 A 
ENDBRANCH   6  23
TORSDOF 6
ENDMDL
MODEL 10
REMARK VINA RESULT:      -7.0     15.662     17.373
REMARK  6 active torsions:
REMARK  status: ('A' for Active; 'I' for Inactive)
REMARK    1  A    between atoms: O_2  and  C_3 
REMARK    2  A    between atoms: C_3  and  C_4 
REMARK    3  A    between atoms: C_4  and  N_5 
REMARK       I    between atoms: N_5  and  C_6 
REMARK    4  A    between atoms: C_6  and  C_7 
REMARK    5  A    between atoms: C_12  and  C_13 
REMARK    6  A    between atoms: C_22  and  C_23 
ROOT
HETATM    1  C   UNL     1      42.377 -30.624   3.421  1.00  0.00     0.148 A 
HETATM    2  N   UNL     1      43.699 -30.919   3.405  1.00  0.00    -0.165 NA
HETATM    3  N   UNL     1      44.109 -30.437   2.221  1.00  0.00    -0.240 N 
HETATM    4  C   UNL     1      43.107 -29.929   1.443  1.00  0.00     0.123 A 
HETATM    5  N   UNL     1      43.338 -29.517   0.178  1.00  0.00    -0.366 N 
HETATM    6  C   UNL     1      44.661 -29.594  -0.436  1.00  0.00     0.118 C 
HETATM    7  C   UNL     1      45.526 -30.669   0.254  1.00  0.00     0.066 C 
HETATM    8  C   UNL     1      45.488 -30.537   1.786  1.00  0.00     0.221 C 
HETATM    9  C   UNL     1      41.977 -29.985   2.212  1.00  0.00     0.088 A 
HETATM   10  H   UNL     1      42.630 -28.998  -0.341  1.00  0.00     0.161 HD
ENDROOT
BRANCH   1  11
HETATM   11  C   UNL     1      41.507 -30.974   4.554  1.00  0.00     0.272 C 
HETATM   12  N   UNL     1      42.197 -31.246   5.714  1.00  0.00    -0.354 N 
HETATM   13  H   UNL     1      43.207 -31.310   5.618  1.00  0.00     0.162 HD
HETATM   14  O   UNL     1      40.285 -31.040   4.461  1.00  0.00    -0.266 OA
BRANCH  12  15
HETATM   15  C   UNL     1      41.552 -31.784   6.893  1.00  0.00     0.149 C 
BRANCH  15  16
HETATM   16  C   UNL     1      42.420 -31.652   8.146  1.00  0.00     0.186 C 
BRANCH  16  17
HETATM   17  O   UNL     1      41.650 -31.043   9.190  1.00  0.00    -0.394 OA
HETATM   18  C   UNL     1      42.366 -31.021  10.417  1.00  0.00     0.201 C 
ENDBRANCH  16  17
ENDBRANCH  15  16
ENDBRANCH  12  15
ENDBRANCH   1  11
BRANCH   8  19
HETATM   19  C   UNL     1      46.272 -29.342   2.283  1.00  0.00     0.409 C 
HETATM   20  F   UNL     1      45.479 -28.305   2.626  1.00  0.00    -0.169 F 
HETATM   21  F   UNL     1      46.964 -29.685   3.403  1.00  0.00    -0.169 F 
HETATM   22  F   UNL     1      47.182 -28.891   1.396  1.00  0.00    -0.169 F 
ENDBRANCH   8  19
BRANCH   6  23
HETATM   23  C   UNL     1      44.515 -29.905  -1.917  1.00  0.00    -0.034 A 
HETATM   24  C   UNL     1      44.305 -31.222  -2.368  1.00  0.00     0.034 A 
HETATM   25  C   UNL     1      44.190 -31.509  -3.732  1.00  0.00     0.056 A 
HETATM   26 CL   UNL     1      43.926 -33.154  -4.188  1.00  0.00    -0.083 Cl
HETATM   27  C   UNL     1      44.292 -30.477  -4.668  1.00  0.00     0.055 A 
HETATM   28 CL   UNL     1      44.165 -30.751  -6.369  1.00  0.00    -0.083 Cl
HETATM   29  C   UNL     1      44.508 -29.166  -4.234  1.00  0.00     0.026 A 
HETATM   30  C   UNL     1      44.620 -28.881  -2.870  1.00  0.00     0.011 A 
ENDBRANCH   6  23
TORSDOF 6
ENDMDL
