MODEL 1
REMARK VINA RESULT:      -9.6      0.000      0.000
REMARK  6 active torsions:
REMARK  status: ('A' for Active; 'I' for Inactive)
REMARK    1  A    between atoms: N_3  and  C_4 
REMARK    2  A    between atoms: C_12  and  C_13 
REMARK       I    between atoms: C_13  and  N_14 
REMARK    3  A    between atoms: N_14  and  N_15 
REMARK       I    between atoms: N_15  and  C_16 
REMARK    4  A    between atoms: C_16  and  C_17 
REMARK    5  A    between atoms: C_17  and  C_18 
REMARK    6  A    between atoms: C_23  and  O_24 
ROOT
HETATM    1  C   UNL     1      44.385 -10.863   8.388  1.00  0.00     0.272 C 
HETATM    2  N   UNL     1      43.378 -11.554   7.742  1.00  0.00    -0.263 N 
HETATM    3  O   UNL     1      45.562 -11.213   8.307  1.00  0.00    -0.266 OA
HETATM    4  H   UNL     1      42.417 -11.228   7.693  1.00  0.00     0.190 HD
ENDROOT
BRANCH   2   5
HETATM    5  N   UNL     1      43.721 -12.603   6.882  1.00  0.00    -0.267 N 
HETATM    6  C   UNL     1      42.707 -13.286   6.243  1.00  0.00     0.240 C 
HETATM    7  O   UNL     1      41.524 -12.960   6.356  1.00  0.00    -0.272 OA
HETATM    8  H   UNL     1      44.685 -12.932   6.920  1.00  0.00     0.190 HD
BRANCH   6   9
HETATM    9  C   UNL     1      43.168 -14.401   5.322  1.00  0.00     0.145 C 
BRANCH   9  10
HETATM   10  C   UNL     1      43.239 -15.727   6.009  1.00  0.00    -0.021 A 
HETATM   11  C   UNL     1      43.471 -17.002   5.398  1.00  0.00     0.001 A 
HETATM   12  C   UNL     1      43.467 -17.959   6.412  1.00  0.00     0.043 A 
HETATM   13  C   UNL     1      43.694 -17.433   4.074  1.00  0.00     0.051 A 
HETATM   14  C   UNL     1      43.677 -19.320   6.167  1.00  0.00     0.033 A 
HETATM   15  N   UNL     1      43.224 -17.298   7.593  1.00  0.00    -0.365 N 
HETATM   16  C   UNL     1      43.915 -19.717   4.845  1.00  0.00     0.039 A 
HETATM   17  C   UNL     1      43.936 -18.786   3.807  1.00  0.00     0.069 A 
HETATM   18  H   UNL     1      43.161 -17.744   8.498  1.00  0.00     0.165 HD
HETATM   19  C   UNL     1      43.089 -15.956   7.363  1.00  0.00     0.097 A 
BRANCH  17  20
HETATM   20  O   UNL     1      44.161 -19.074   2.487  1.00  0.00    -0.356 OA
HETATM   21  C   UNL     1      43.581 -20.276   1.998  1.00  0.00     0.210 C 
ENDBRANCH  17  20
ENDBRANCH   9  10
ENDBRANCH   6   9
ENDBRANCH   2   5
BRANCH   1  22
HETATM   22  C   UNL     1      43.938  -9.701   9.165  1.00  0.00     0.058 A 
HETATM   23  C   UNL     1      43.579  -9.717  10.513  1.00  0.00     0.029 A 
HETATM   24  N   UNL     1      43.144  -8.444  10.882  1.00  0.00    -0.319 N 
HETATM   25  C   UNL     1      43.700 -10.858  11.476  1.00  0.00     0.070 C 
HETATM   26  C   UNL     1      43.313  -7.599   9.789  1.00  0.00     0.014 A 
HETATM   27  C   UNL     1      42.916  -6.162   9.750  1.00  0.00     0.068 C 
HETATM   28  C   UNL     1      43.790  -8.355   8.737  1.00  0.00     0.044 A 
BRANCH  24  29
HETATM   29  C   UNL     1      42.592  -8.077  12.146  1.00  0.00     0.039 A 
HETATM   30  C   UNL     1      43.435  -7.620  13.168  1.00  0.00     0.030 A 
HETATM   31  C   UNL     1      42.900  -7.274  14.411  1.00  0.00     0.002 A 
HETATM   32  C   UNL     1      41.529  -7.379  14.636  1.00  0.00     0.000 A 
HETATM   33  C   UNL     1      40.688  -7.831  13.620  1.00  0.00     0.002 A 
HETATM   34  C   UNL     1      41.216  -8.182  12.376  1.00  0.00     0.030 A 
ENDBRANCH  24  29
ENDBRANCH   1  22
TORSDOF 6
ENDMDL
MODEL 2
REMARK VINA RESULT:      -8.9      2.770     10.281
REMARK  6 active torsions:
REMARK  status: ('A' for Active; 'I' for Inactive)
REMARK    1  A    between atoms: N_3  and  C_4 
REMARK    2  A    between atoms: C_12  and  C_13 
REMARK       I    between atoms: C_13  and  N_14 
REMARK    3  A    between atoms: N_14  and  N_15 
REMARK       I    between atoms: N_15  and  C_16 
REMARK    4  A    between atoms: C_16  and  C_17 
REMARK    5  A    between atoms: C_17  and  C_18 
REMARK    6  A    between atoms: C_23  and  O_24 
ROOT
HETATM    1  C   UNL     1      40.550 -12.893   5.728  1.00  0.00     0.272 C 
HETATM    2  N   UNL     1      41.244 -11.848   6.307  1.00  0.00    -0.263 N 
HETATM    3  O   UNL     1      39.370 -13.113   5.999  1.00  0.00    -0.266 OA
HETATM    4  H   UNL     1      42.177 -11.569   6.021  1.00  0.00     0.190 HD
ENDROOT
BRANCH   2   5
HETATM    5  N   UNL     1      40.553 -10.951   7.128  1.00  0.00    -0.267 N 
HETATM    6  C   UNL     1      40.881  -9.612   7.060  1.00  0.00     0.240 C 
HETATM    7  O   UNL     1      41.711  -9.180   6.257  1.00  0.00    -0.272 OA
HETATM    8  H   UNL     1      39.980 -11.352   7.870  1.00  0.00     0.190 HD
BRANCH   6   9
HETATM    9  C   UNL     1      40.078  -8.708   7.976  1.00  0.00     0.145 C 
BRANCH   9  10
HETATM   10  C   UNL     1      40.054  -9.191   9.391  1.00  0.00    -0.021 A 
HETATM   11  C   UNL     1      41.178  -9.358  10.264  1.00  0.00     0.001 A 
HETATM   12  C   UNL     1      40.694  -9.818  11.487  1.00  0.00     0.043 A 
HETATM   13  C   UNL     1      42.567  -9.150  10.130  1.00  0.00     0.051 A 
HETATM   14  C   UNL     1      41.527 -10.077  12.581  1.00  0.00     0.033 A 
HETATM   15  N   UNL     1      39.330  -9.945  11.362  1.00  0.00    -0.365 N 
HETATM   16  C   UNL     1      42.900  -9.844  12.425  1.00  0.00     0.039 A 
HETATM   17  C   UNL     1      43.418  -9.374  11.220  1.00  0.00     0.069 A 
HETATM   18  H   UNL     1      38.714 -10.266  12.096  1.00  0.00     0.165 HD
HETATM   19  C   UNL     1      38.935  -9.569  10.108  1.00  0.00     0.097 A 
BRANCH  17  20
HETATM   20  O   UNL     1      44.740  -9.115  10.971  1.00  0.00    -0.356 OA
HETATM   21  C   UNL     1      45.247  -9.578   9.726  1.00  0.00     0.210 C 
ENDBRANCH  17  20
ENDBRANCH   9  10
ENDBRANCH   6   9
ENDBRANCH   2   5
BRANCH   1  22
HETATM   22  C   UNL     1      41.326 -13.703   4.782  1.00  0.00     0.058 A 
HETATM   23  C   UNL     1      41.516 -15.083   4.862  1.00  0.00     0.029 A 
HETATM   24  N   UNL     1      42.365 -15.486   3.830  1.00  0.00    -0.319 N 
HETATM   25  C   UNL     1      40.872 -16.038   5.820  1.00  0.00     0.070 C 
HETATM   26  C   UNL     1      42.642 -14.372   3.044  1.00  0.00     0.014 A 
HETATM   27  C   UNL     1      43.560 -14.363   1.868  1.00  0.00     0.068 C 
HETATM   28  C   UNL     1      42.020 -13.280   3.617  1.00  0.00     0.044 A 
BRANCH  24  29
HETATM   29  C   UNL     1      42.886 -16.799   3.635  1.00  0.00     0.039 A 
HETATM   30  C   UNL     1      43.824 -17.317   4.538  1.00  0.00     0.030 A 
HETATM   31  C   UNL     1      44.347 -18.598   4.343  1.00  0.00     0.002 A 
HETATM   32  C   UNL     1      43.936 -19.362   3.253  1.00  0.00     0.000 A 
HETATM   33  C   UNL     1      43.001 -18.850   2.354  1.00  0.00     0.002 A 
HETATM   34  C   UNL     1      42.476 -17.570   2.542  1.00  0.00     0.030 A 
ENDBRANCH  24  29
ENDBRANCH   1  22
TORSDOF 6
ENDMDL
MODEL 3
REMARK VINA RESULT:      -8.9      2.387     10.478
REMARK  6 active torsions:
REMARK  status: ('A' for Active; 'I' for Inactive)
REMARK    1  A    between atoms: N_3  and  C_4 
REMARK    2  A    between atoms: C_12  and  C_13 
REMARK       I    between atoms: C_13  and  N_14 
REMARK    3  A    between atoms: N_14  and  N_15 
REMARK       I    between atoms: N_15  and  C_16 
REMARK    4  A    between atoms: C_16  and  C_17 
REMARK    5  A    between atoms: C_17  and  C_18 
REMARK    6  A    between atoms: C_23  and  O_24 
ROOT
HETATM    1  C   UNL     1      42.203 -12.636   5.855  1.00  0.00     0.272 C 
HETATM    2  N   UNL     1      43.273 -12.164   6.590  1.00  0.00    -0.263 N 
HETATM    3  O   UNL     1      41.059 -12.219   6.039  1.00  0.00    -0.266 OA
HETATM    4  H   UNL     1      44.239 -12.400   6.387  1.00  0.00     0.190 HD
ENDROOT
BRANCH   2   5
HETATM    5  N   UNL     1      43.067 -11.104   7.480  1.00  0.00    -0.267 N 
HETATM    6  C   UNL     1      44.112 -10.719   8.296  1.00  0.00     0.240 C 
HETATM    7  O   UNL     1      45.229 -11.234   8.217  1.00  0.00    -0.272 OA
HETATM    8  H   UNL     1      42.104 -10.798   7.617  1.00  0.00     0.190 HD
BRANCH   6   9
HETATM    9  C   UNL     1      43.806  -9.558   9.222  1.00  0.00     0.145 C 
BRANCH   9  10
HETATM   10  C   UNL     1      43.207  -9.994  10.521  1.00  0.00    -0.021 A 
HETATM   11  C   UNL     1      41.952  -9.581  11.073  1.00  0.00     0.001 A 
HETATM   12  C   UNL     1      41.791 -10.242  12.289  1.00  0.00     0.043 A 
HETATM   13  C   UNL     1      40.929  -8.709  10.646  1.00  0.00     0.051 A 
HETATM   14  C   UNL     1      40.659 -10.078  13.095  1.00  0.00     0.033 A 
HETATM   15  N   UNL     1      42.911 -11.016  12.482  1.00  0.00    -0.365 N 
HETATM   16  C   UNL     1      39.650  -9.221  12.637  1.00  0.00     0.039 A 
HETATM   17  C   UNL     1      39.773  -8.551  11.421  1.00  0.00     0.069 A 
HETATM   18  H   UNL     1      43.071 -11.604  13.288  1.00  0.00     0.165 HD
HETATM   19  C   UNL     1      43.768 -10.877  11.424  1.00  0.00     0.097 A 
BRANCH  17  20
HETATM   20  O   UNL     1      38.844  -7.696  10.888  1.00  0.00    -0.356 OA
HETATM   21  C   UNL     1      38.806  -7.615   9.469  1.00  0.00     0.210 C 
ENDBRANCH  17  20
ENDBRANCH   9  10
ENDBRANCH   6   9
ENDBRANCH   2   5
BRANCH   1  22
HETATM   22  C   UNL     1      42.540 -13.657   4.857  1.00  0.00     0.058 A 
HETATM   23  C   UNL     1      42.611 -15.030   5.095  1.00  0.00     0.029 A 
HETATM   24  N   UNL     1      43.027 -15.673   3.928  1.00  0.00    -0.319 N 
HETATM   25  C   UNL     1      42.234 -15.760   6.348  1.00  0.00     0.070 C 
HETATM   26  C   UNL     1      43.133 -14.714   2.926  1.00  0.00     0.014 A 
HETATM   27  C   UNL     1      43.605 -14.980   1.535  1.00  0.00     0.068 C 
HETATM   28  C   UNL     1      42.844 -13.483   3.481  1.00  0.00     0.044 A 
BRANCH  24  29
HETATM   29  C   UNL     1      43.325 -17.061   3.794  1.00  0.00     0.039 A 
HETATM   30  C   UNL     1      44.151 -17.691   4.736  1.00  0.00     0.030 A 
HETATM   31  C   UNL     1      44.456 -19.047   4.600  1.00  0.00     0.002 A 
HETATM   32  C   UNL     1      43.940 -19.777   3.532  1.00  0.00     0.000 A 
HETATM   33  C   UNL     1      43.116 -19.154   2.594  1.00  0.00     0.002 A 
HETATM   34  C   UNL     1      42.809 -17.798   2.722  1.00  0.00     0.030 A 
ENDBRANCH  24  29
ENDBRANCH   1  22
TORSDOF 6
ENDMDL
MODEL 4
REMARK VINA RESULT:      -8.7      2.725     10.368
REMARK  6 active torsions:
REMARK  status: ('A' for Active; 'I' for Inactive)
REMARK    1  A    between atoms: N_3  and  C_4 
REMARK    2  A    between atoms: C_12  and  C_13 
REMARK       I    between atoms: C_13  and  N_14 
REMARK    3  A    between atoms: N_14  and  N_15 
REMARK       I    between atoms: N_15  and  C_16 
REMARK    4  A    between atoms: C_16  and  C_17 
REMARK    5  A    between atoms: C_17  and  C_18 
REMARK    6  A    between atoms: C_23  and  O_24 
ROOT
HETATM    1  C   UNL     1      44.190 -11.832   7.156  1.00  0.00     0.272 C 
HETATM    2  N   UNL     1      43.233 -11.329   8.015  1.00  0.00    -0.263 N 
HETATM    3  O   UNL     1      45.268 -11.262   6.986  1.00  0.00    -0.266 OA
HETATM    4  H   UNL     1      42.386 -11.831   8.265  1.00  0.00     0.190 HD
ENDROOT
BRANCH   2   5
HETATM    5  N   UNL     1      43.547 -10.213   8.798  1.00  0.00    -0.267 N 
HETATM    6  C   UNL     1      43.808 -10.405  10.140  1.00  0.00     0.240 C 
HETATM    7  O   UNL     1      43.836 -11.527  10.648  1.00  0.00    -0.272 OA
HETATM    8  H   UNL     1      43.379  -9.297   8.383  1.00  0.00     0.190 HD
BRANCH   6   9
HETATM    9  C   UNL     1      44.148  -9.144  10.912  1.00  0.00     0.145 C 
BRANCH   9  10
HETATM   10  C   UNL     1      42.957  -8.272  11.153  1.00  0.00    -0.021 A 
HETATM   11  C   UNL     1      41.727  -8.650  11.783  1.00  0.00     0.001 A 
HETATM   12  C   UNL     1      40.905  -7.524  11.805  1.00  0.00     0.043 A 
HETATM   13  C   UNL     1      41.237  -9.845  12.349  1.00  0.00     0.051 A 
HETATM   14  C   UNL     1      39.623  -7.535  12.364  1.00  0.00     0.033 A 
HETATM   15  N   UNL     1      41.597  -6.504  11.195  1.00  0.00    -0.365 N 
HETATM   16  C   UNL     1      39.170  -8.731  12.936  1.00  0.00     0.039 A 
HETATM   17  C   UNL     1      39.969  -9.874  12.941  1.00  0.00     0.069 A 
HETATM   18  H   UNL     1      41.241  -5.567  11.065  1.00  0.00     0.165 HD
HETATM   19  C   UNL     1      42.832  -6.942  10.803  1.00  0.00     0.097 A 
BRANCH  17  20
HETATM   20  O   UNL     1      39.617 -11.086  13.475  1.00  0.00    -0.356 OA
HETATM   21  C   UNL     1      38.739 -11.886  12.693  1.00  0.00     0.210 C 
ENDBRANCH  17  20
ENDBRANCH   9  10
ENDBRANCH   6   9
ENDBRANCH   2   5
BRANCH   1  22
HETATM   22  C   UNL     1      43.818 -13.077   6.475  1.00  0.00     0.058 A 
HETATM   23  C   UNL     1      43.235 -13.167   5.210  1.00  0.00     0.029 A 
HETATM   24  N   UNL     1      42.962 -14.505   4.929  1.00  0.00    -0.319 N 
HETATM   25  C   UNL     1      42.996 -12.054   4.235  1.00  0.00     0.070 C 
HETATM   26  C   UNL     1      43.455 -15.273   5.979  1.00  0.00     0.014 A 
HETATM   27  C   UNL     1      43.317 -16.754   6.094  1.00  0.00     0.068 C 
HETATM   28  C   UNL     1      43.972 -14.414   6.928  1.00  0.00     0.044 A 
BRANCH  24  29
HETATM   29  C   UNL     1      42.270 -15.000   3.783  1.00  0.00     0.039 A 
HETATM   30  C   UNL     1      40.875 -15.125   3.813  1.00  0.00     0.030 A 
HETATM   31  C   UNL     1      40.194 -15.621   2.699  1.00  0.00     0.002 A 
HETATM   32  C   UNL     1      40.900 -15.990   1.556  1.00  0.00     0.000 A 
HETATM   33  C   UNL     1      42.288 -15.865   1.522  1.00  0.00     0.002 A 
HETATM   34  C   UNL     1      42.975 -15.372   2.634  1.00  0.00     0.030 A 
ENDBRANCH  24  29
ENDBRANCH   1  22
TORSDOF 6
ENDMDL
MODEL 5
REMARK VINA RESULT:      -8.6      2.595     10.765
REMARK  6 active torsions:
REMARK  status: ('A' for Active; 'I' for Inactive)
REMARK    1  A    between atoms: N_3  and  C_4 
REMARK    2  A    between atoms: C_12  and  C_13 
REMARK       I    between atoms: C_13  and  N_14 
REMARK    3  A    between atoms: N_14  and  N_15 
REMARK       I    between atoms: N_15  and  C_16 
REMARK    4  A    between atoms: C_16  and  C_17 
REMARK    5  A    between atoms: C_17  and  C_18 
REMARK    6  A    between atoms: C_23  and  O_24 
ROOT
HETATM    1  C   UNL     1      40.881 -12.976   5.857  1.00  0.00     0.272 C 
HETATM    2  N   UNL     1      41.596 -11.874   6.286  1.00  0.00    -0.263 N 
HETATM    3  O   UNL     1      39.760 -13.228   6.297  1.00  0.00    -0.266 OA
HETATM    4  H   UNL     1      42.468 -11.573   5.862  1.00  0.00     0.190 HD
ENDROOT
BRANCH   2   5
HETATM    5  N   UNL     1      40.979 -10.962   7.150  1.00  0.00    -0.267 N 
HETATM    6  C   UNL     1      41.384  -9.643   7.110  1.00  0.00     0.240 C 
HETATM    7  O   UNL     1      42.217  -9.237   6.298  1.00  0.00    -0.272 OA
HETATM    8  H   UNL     1      40.403 -11.352   7.895  1.00  0.00     0.190 HD
BRANCH   6   9
HETATM    9  C   UNL     1      40.658  -8.722   8.073  1.00  0.00     0.145 C 
BRANCH   9  10
HETATM   10  C   UNL     1      41.562  -8.141   9.112  1.00  0.00    -0.021 A 
HETATM   11  C   UNL     1      41.666  -8.539  10.484  1.00  0.00     0.001 A 
HETATM   12  C   UNL     1      42.638  -7.737  11.080  1.00  0.00     0.043 A 
HETATM   13  C   UNL     1      41.029  -9.517  11.276  1.00  0.00     0.051 A 
HETATM   14  C   UNL     1      43.004  -7.867  12.424  1.00  0.00     0.033 A 
HETATM   15  N   UNL     1      43.097  -6.871  10.117  1.00  0.00    -0.365 N 
HETATM   16  C   UNL     1      42.368  -8.860  13.182  1.00  0.00     0.039 A 
HETATM   17  C   UNL     1      41.399  -9.687  12.616  1.00  0.00     0.069 A 
HETATM   18  H   UNL     1      43.806  -6.167  10.269  1.00  0.00     0.165 HD
HETATM   19  C   UNL     1      42.460  -7.106   8.929  1.00  0.00     0.097 A 
BRANCH  17  20
HETATM   20  O   UNL     1      40.725 -10.683  13.270  1.00  0.00    -0.356 OA
HETATM   21  C   UNL     1      39.355 -10.847  12.925  1.00  0.00     0.210 C 
ENDBRANCH  17  20
ENDBRANCH   9  10
ENDBRANCH   6   9
ENDBRANCH   2   5
BRANCH   1  22
HETATM   22  C   UNL     1      41.561 -13.803   4.854  1.00  0.00     0.058 A 
HETATM   23  C   UNL     1      41.739 -15.185   4.928  1.00  0.00     0.029 A 
HETATM   24  N   UNL     1      42.489 -15.606   3.830  1.00  0.00    -0.319 N 
HETATM   25  C   UNL     1      41.169 -16.124   5.947  1.00  0.00     0.070 C 
HETATM   26  C   UNL     1      42.711 -14.502   3.013  1.00  0.00     0.014 A 
HETATM   27  C   UNL     1      43.522 -14.514   1.761  1.00  0.00     0.068 C 
HETATM   28  C   UNL     1      42.156 -13.398   3.630  1.00  0.00     0.044 A 
BRANCH  24  29
HETATM   29  C   UNL     1      42.974 -16.928   3.601  1.00  0.00     0.039 A 
HETATM   30  C   UNL     1      42.474 -17.677   2.527  1.00  0.00     0.030 A 
HETATM   31  C   UNL     1      42.936 -18.976   2.306  1.00  0.00     0.002 A 
HETATM   32  C   UNL     1      43.895 -19.530   3.151  1.00  0.00     0.000 A 
HETATM   33  C   UNL     1      44.397 -18.787   4.220  1.00  0.00     0.002 A 
HETATM   34  C   UNL     1      43.937 -17.488   4.447  1.00  0.00     0.030 A 
ENDBRANCH  24  29
ENDBRANCH   1  22
TORSDOF 6
ENDMDL
MODEL 6
REMARK VINA RESULT:      -8.6      3.391      9.919
REMARK  6 active torsions:
REMARK  status: ('A' for Active; 'I' for Inactive)
REMARK    1  A    between atoms: N_3  and  C_4 
REMARK    2  A    between atoms: C_12  and  C_13 
REMARK       I    between atoms: C_13  and  N_14 
REMARK    3  A    between atoms: N_14  and  N_15 
REMARK       I    between atoms: N_15  and  C_16 
REMARK    4  A    between atoms: C_16  and  C_17 
REMARK    5  A    between atoms: C_17  and  C_18 
REMARK    6  A    between atoms: C_23  and  O_24 
ROOT
HETATM    1  C   UNL     1      40.873 -11.143   6.197  1.00  0.00     0.272 C 
HETATM    2  N   UNL     1      39.775 -11.171   7.036  1.00  0.00    -0.263 N 
HETATM    3  O   UNL     1      41.840 -10.418   6.426  1.00  0.00    -0.266 OA
HETATM    4  H   UNL     1      39.015 -11.838   6.941  1.00  0.00     0.190 HD
ENDROOT
BRANCH   2   5
HETATM    5  N   UNL     1      39.820 -10.447   8.232  1.00  0.00    -0.267 N 
HETATM    6  C   UNL     1      39.300  -9.169   8.245  1.00  0.00     0.240 C 
HETATM    7  O   UNL     1      38.744  -8.677   7.261  1.00  0.00    -0.272 OA
HETATM    8  H   UNL     1      40.403 -10.825   8.978  1.00  0.00     0.190 HD
BRANCH   6   9
HETATM    9  C   UNL     1      39.380  -8.459   9.584  1.00  0.00     0.145 C 
BRANCH   9  10
HETATM   10  C   UNL     1      40.376  -9.080  10.510  1.00  0.00    -0.021 A 
HETATM   11  C   UNL     1      41.800  -9.103  10.355  1.00  0.00     0.001 A 
HETATM   12  C   UNL     1      42.331  -9.776  11.454  1.00  0.00     0.043 A 
HETATM   13  C   UNL     1      42.692  -8.603   9.383  1.00  0.00     0.051 A 
HETATM   14  C   UNL     1      43.705  -9.970  11.630  1.00  0.00     0.033 A 
HETATM   15  N   UNL     1      41.273 -10.165  12.241  1.00  0.00    -0.365 N 
HETATM   16  C   UNL     1      44.568  -9.446  10.659  1.00  0.00     0.039 A 
HETATM   17  C   UNL     1      44.074  -8.759   9.552  1.00  0.00     0.069 A 
HETATM   18  H   UNL     1      41.360 -10.680  13.107  1.00  0.00     0.165 HD
HETATM   19  C   UNL     1      40.094  -9.750  11.685  1.00  0.00     0.097 A 
BRANCH  17  20
HETATM   20  O   UNL     1      44.834  -8.211   8.553  1.00  0.00    -0.356 OA
HETATM   21  C   UNL     1      45.976  -8.956   8.151  1.00  0.00     0.210 C 
ENDBRANCH  17  20
ENDBRANCH   9  10
ENDBRANCH   6   9
ENDBRANCH   2   5
BRANCH   1  22
HETATM   22  C   UNL     1      40.786 -12.033   5.033  1.00  0.00     0.058 A 
HETATM   23  C   UNL     1      41.542 -13.189   4.839  1.00  0.00     0.029 A 
HETATM   24  N   UNL     1      41.234 -13.729   3.591  1.00  0.00    -0.319 N 
HETATM   25  C   UNL     1      42.481 -13.839   5.810  1.00  0.00     0.070 C 
HETATM   26  C   UNL     1      40.216 -12.963   3.032  1.00  0.00     0.014 A 
HETATM   27  C   UNL     1      39.635 -13.173   1.673  1.00  0.00     0.068 C 
HETATM   28  C   UNL     1      39.940 -11.924   3.898  1.00  0.00     0.044 A 
BRANCH  24  29
HETATM   29  C   UNL     1      41.872 -14.849   2.978  1.00  0.00     0.039 A 
HETATM   30  C   UNL     1      42.996 -14.651   2.165  1.00  0.00     0.030 A 
HETATM   31  C   UNL     1      43.616 -15.742   1.553  1.00  0.00     0.002 A 
HETATM   32  C   UNL     1      43.120 -17.029   1.750  1.00  0.00     0.000 A 
HETATM   33  C   UNL     1      42.003 -17.230   2.560  1.00  0.00     0.002 A 
HETATM   34  C   UNL     1      41.377 -16.143   3.174  1.00  0.00     0.030 A 
ENDBRANCH  24  29
ENDBRANCH   1  22
TORSDOF 6
ENDMDL
MODEL 7
REMARK VINA RESULT:      -8.4      2.679     10.165
REMARK  6 active torsions:
REMARK  status: ('A' for Active; 'I' for Inactive)
REMARK    1  A    between atoms: N_3  and  C_4 
REMARK    2  A    between atoms: C_12  and  C_13 
REMARK       I    between atoms: C_13  and  N_14 
REMARK    3  A    between atoms: N_14  and  N_15 
REMARK       I    between atoms: N_15  and  C_16 
REMARK    4  A    between atoms: C_16  and  C_17 
REMARK    5  A    between atoms: C_17  and  C_18 
REMARK    6  A    between atoms: C_23  and  O_24 
ROOT
HETATM    1  C   UNL     1      41.901 -11.983   5.779  1.00  0.00     0.272 C 
HETATM    2  N   UNL     1      40.889 -11.605   6.640  1.00  0.00    -0.263 N 
HETATM    3  O   UNL     1      42.833 -11.227   5.507  1.00  0.00    -0.266 OA
HETATM    4  H   UNL     1      40.171 -12.241   6.974  1.00  0.00     0.190 HD
ENDROOT
BRANCH   2   5
HETATM    5  N   UNL     1      40.992 -10.379   7.308  1.00  0.00    -0.267 N 
HETATM    6  C   UNL     1      39.832  -9.690   7.597  1.00  0.00     0.240 C 
HETATM    7  O   UNL     1      38.716 -10.149   7.345  1.00  0.00    -0.272 OA
HETATM    8  H   UNL     1      41.923  -9.969   7.375  1.00  0.00     0.190 HD
BRANCH   6   9
HETATM    9  C   UNL     1      40.034  -8.377   8.330  1.00  0.00     0.145 C 
BRANCH   9  10
HETATM   10  C   UNL     1      39.897  -8.514   9.812  1.00  0.00    -0.021 A 
HETATM   11  C   UNL     1      40.859  -9.064  10.719  1.00  0.00     0.001 A 
HETATM   12  C   UNL     1      40.320  -8.983  12.002  1.00  0.00     0.043 A 
HETATM   13  C   UNL     1      42.148  -9.618  10.570  1.00  0.00     0.051 A 
HETATM   14  C   UNL     1      41.005  -9.424  13.139  1.00  0.00     0.033 A 
HETATM   15  N   UNL     1      39.070  -8.422  11.882  1.00  0.00    -0.365 N 
HETATM   16  C   UNL     1      42.291  -9.952  12.963  1.00  0.00     0.039 A 
HETATM   17  C   UNL     1      42.866 -10.039  11.697  1.00  0.00     0.069 A 
HETATM   18  H   UNL     1      38.444  -8.246  12.656  1.00  0.00     0.165 HD
HETATM   19  C   UNL     1      38.807  -8.133  10.571  1.00  0.00     0.097 A 
BRANCH  17  20
HETATM   20  O   UNL     1      44.112 -10.536  11.423  1.00  0.00    -0.356 OA
HETATM   21  C   UNL     1      44.899  -9.789  10.503  1.00  0.00     0.210 C 
ENDBRANCH  17  20
ENDBRANCH   9  10
ENDBRANCH   6   9
ENDBRANCH   2   5
BRANCH   1  22
HETATM   22  C   UNL     1      41.770 -13.336   5.226  1.00  0.00     0.058 A 
HETATM   23  C   UNL     1      42.629 -14.404   5.485  1.00  0.00     0.029 A 
HETATM   24  N   UNL     1      42.227 -15.505   4.729  1.00  0.00    -0.319 N 
HETATM   25  C   UNL     1      43.761 -14.447   6.466  1.00  0.00     0.070 C 
HETATM   26  C   UNL     1      41.057 -15.160   4.059  1.00  0.00     0.014 A 
HETATM   27  C   UNL     1      40.331 -16.041   3.098  1.00  0.00     0.068 C 
HETATM   28  C   UNL     1      40.774 -13.841   4.349  1.00  0.00     0.044 A 
BRANCH  24  29
HETATM   29  C   UNL     1      42.910 -16.754   4.633  1.00  0.00     0.039 A 
HETATM   30  C   UNL     1      43.449 -17.159   3.404  1.00  0.00     0.030 A 
HETATM   31  C   UNL     1      44.107 -18.387   3.302  1.00  0.00     0.002 A 
HETATM   32  C   UNL     1      44.231 -19.209   4.420  1.00  0.00     0.000 A 
HETATM   33  C   UNL     1      43.698 -18.807   5.644  1.00  0.00     0.002 A 
HETATM   34  C   UNL     1      43.037 -17.582   5.753  1.00  0.00     0.030 A 
ENDBRANCH  24  29
ENDBRANCH   1  22
TORSDOF 6
ENDMDL
MODEL 8
REMARK VINA RESULT:      -8.4      2.633      3.326
REMARK  6 active torsions:
REMARK  status: ('A' for Active; 'I' for Inactive)
REMARK    1  A    between atoms: N_3  and  C_4 
REMARK    2  A    between atoms: C_12  and  C_13 
REMARK       I    between atoms: C_13  and  N_14 
REMARK    3  A    between atoms: N_14  and  N_15 
REMARK       I    between atoms: N_15  and  C_16 
REMARK    4  A    between atoms: C_16  and  C_17 
REMARK    5  A    between atoms: C_17  and  C_18 
REMARK    6  A    between atoms: C_23  and  O_24 
ROOT
HETATM    1  C   UNL     1      44.362 -10.111   8.166  1.00  0.00     0.272 C 
HETATM    2  N   UNL     1      43.468 -10.431   7.162  1.00  0.00    -0.263 N 
HETATM    3  O   UNL     1      45.483 -10.616   8.216  1.00  0.00    -0.266 OA
HETATM    4  H   UNL     1      42.584  -9.951   7.025  1.00  0.00     0.190 HD
ENDROOT
BRANCH   2   5
HETATM    5  N   UNL     1      43.894 -11.257   6.116  1.00  0.00    -0.267 N 
HETATM    6  C   UNL     1      43.302 -11.106   4.878  1.00  0.00     0.240 C 
HETATM    7  O   UNL     1      42.465 -10.229   4.654  1.00  0.00    -0.272 OA
HETATM    8  H   UNL     1      44.478 -12.054   6.367  1.00  0.00     0.190 HD
BRANCH   6   9
HETATM    9  C   UNL     1      43.828 -12.034   3.800  1.00  0.00     0.145 C 
BRANCH   9  10
HETATM   10  C   UNL     1      42.810 -13.029   3.343  1.00  0.00    -0.021 A 
HETATM   11  C   UNL     1      42.246 -14.099   4.111  1.00  0.00     0.001 A 
HETATM   12  C   UNL     1      41.334 -14.765   3.294  1.00  0.00     0.043 A 
HETATM   13  C   UNL     1      42.420 -14.559   5.432  1.00  0.00     0.051 A 
HETATM   14  C   UNL     1      40.588 -15.864   3.733  1.00  0.00     0.033 A 
HETATM   15  N   UNL     1      41.353 -14.139   2.070  1.00  0.00    -0.365 N 
HETATM   16  C   UNL     1      40.767 -16.287   5.057  1.00  0.00     0.039 A 
HETATM   17  C   UNL     1      41.663 -15.639   5.905  1.00  0.00     0.069 A 
HETATM   18  H   UNL     1      40.790 -14.414   1.277  1.00  0.00     0.165 HD
HETATM   19  C   UNL     1      42.233 -13.092   2.089  1.00  0.00     0.097 A 
BRANCH  17  20
HETATM   20  O   UNL     1      41.906 -15.976   7.210  1.00  0.00    -0.356 OA
HETATM   21  C   UNL     1      43.032 -15.357   7.819  1.00  0.00     0.210 C 
ENDBRANCH  17  20
ENDBRANCH   9  10
ENDBRANCH   6   9
ENDBRANCH   2   5
BRANCH   1  22
HETATM   22  C   UNL     1      43.868  -9.138   9.147  1.00  0.00     0.058 A 
HETATM   23  C   UNL     1      43.610  -9.404  10.492  1.00  0.00     0.029 A 
HETATM   24  N   UNL     1      43.088  -8.257  11.091  1.00  0.00    -0.319 N 
HETATM   25  C   UNL     1      43.905 -10.665  11.246  1.00  0.00     0.070 C 
HETATM   26  C   UNL     1      43.099  -7.237  10.144  1.00  0.00     0.014 A 
HETATM   27  C   UNL     1      42.570  -5.860  10.365  1.00  0.00     0.068 C 
HETATM   28  C   UNL     1      43.566  -7.764   8.956  1.00  0.00     0.044 A 
BRANCH  24  29
HETATM   29  C   UNL     1      42.597  -8.154  12.426  1.00  0.00     0.039 A 
HETATM   30  C   UNL     1      43.338  -7.453  13.388  1.00  0.00     0.030 A 
HETATM   31  C   UNL     1      42.867  -7.362  14.700  1.00  0.00     0.002 A 
HETATM   32  C   UNL     1      41.662  -7.964  15.054  1.00  0.00     0.000 A 
HETATM   33  C   UNL     1      40.922  -8.660  14.099  1.00  0.00     0.002 A 
HETATM   34  C   UNL     1      41.388  -8.758  12.786  1.00  0.00     0.030 A 
ENDBRANCH  24  29
ENDBRANCH   1  22
TORSDOF 6
ENDMDL
MODEL 9
REMARK VINA RESULT:      -8.4      3.025     10.680
REMARK  6 active torsions:
REMARK  status: ('A' for Active; 'I' for Inactive)
REMARK    1  A    between atoms: N_3  and  C_4 
REMARK    2  A    between atoms: C_12  and  C_13 
REMARK       I    between atoms: C_13  and  N_14 
REMARK    3  A    between atoms: N_14  and  N_15 
REMARK       I    between atoms: N_15  and  C_16 
REMARK    4  A    between atoms: C_16  and  C_17 
REMARK    5  A    between atoms: C_17  and  C_18 
REMARK    6  A    between atoms: C_23  and  O_24 
ROOT
HETATM    1  C   UNL     1      41.924 -10.582   6.056  1.00  0.00     0.272 C 
HETATM    2  N   UNL     1      42.238 -11.129   7.285  1.00  0.00    -0.263 N 
HETATM    3  O   UNL     1      41.940  -9.366   5.867  1.00  0.00    -0.266 OA
HETATM    4  H   UNL     1      42.348 -12.126   7.443  1.00  0.00     0.190 HD
ENDROOT
BRANCH   2   5
HETATM    5  N   UNL     1      42.701 -10.285   8.301  1.00  0.00    -0.267 N 
HETATM    6  C   UNL     1      43.984 -10.471   8.775  1.00  0.00     0.240 C 
HETATM    7  O   UNL     1      44.748 -11.306   8.289  1.00  0.00    -0.272 OA
HETATM    8  H   UNL     1      42.005  -9.706   8.770  1.00  0.00     0.190 HD
BRANCH   6   9
HETATM    9  C   UNL     1      44.407  -9.508   9.869  1.00  0.00     0.145 C 
BRANCH   9  10
HETATM   10  C   UNL     1      43.746  -9.793  11.179  1.00  0.00    -0.021 A 
HETATM   11  C   UNL     1      43.204  -8.836  12.097  1.00  0.00     0.001 A 
HETATM   12  C   UNL     1      42.679  -9.542  13.178  1.00  0.00     0.043 A 
HETATM   13  C   UNL     1      43.101  -7.429  12.105  1.00  0.00     0.051 A 
HETATM   14  C   UNL     1      42.057  -8.914  14.261  1.00  0.00     0.033 A 
HETATM   15  N   UNL     1      42.908 -10.877  12.940  1.00  0.00    -0.365 N 
HETATM   16  C   UNL     1      41.952  -7.517  14.233  1.00  0.00     0.039 A 
HETATM   17  C   UNL     1      42.456  -6.778  13.164  1.00  0.00     0.069 A 
HETATM   18  H   UNL     1      42.637 -11.626  13.563  1.00  0.00     0.165 HD
HETATM   19  C   UNL     1      43.546 -11.040  11.741  1.00  0.00     0.097 A 
BRANCH  17  20
HETATM   20  O   UNL     1      42.400  -5.415  13.044  1.00  0.00    -0.356 OA
HETATM   21  C   UNL     1      41.747  -4.912  11.886  1.00  0.00     0.210 C 
ENDBRANCH  17  20
ENDBRANCH   9  10
ENDBRANCH   6   9
ENDBRANCH   2   5
BRANCH   1  22
HETATM   22  C   UNL     1      41.574 -11.557   5.016  1.00  0.00     0.058 A 
HETATM   23  C   UNL     1      42.211 -12.780   4.804  1.00  0.00     0.029 A 
HETATM   24  N   UNL     1      41.650 -13.397   3.687  1.00  0.00    -0.319 N 
HETATM   25  C   UNL     1      43.270 -13.416   5.653  1.00  0.00     0.070 C 
HETATM   26  C   UNL     1      40.595 -12.605   3.244  1.00  0.00     0.014 A 
HETATM   27  C   UNL     1      39.766 -12.884   2.035  1.00  0.00     0.068 C 
HETATM   28  C   UNL     1      40.544 -11.480   4.042  1.00  0.00     0.044 A 
BRANCH  24  29
HETATM   29  C   UNL     1      42.098 -14.610   3.082  1.00  0.00     0.039 A 
HETATM   30  C   UNL     1      43.102 -14.571   2.106  1.00  0.00     0.030 A 
HETATM   31  C   UNL     1      43.534 -15.754   1.502  1.00  0.00     0.002 A 
HETATM   32  C   UNL     1      42.970 -16.973   1.869  1.00  0.00     0.000 A 
HETATM   33  C   UNL     1      41.972 -17.015   2.842  1.00  0.00     0.002 A 
HETATM   34  C   UNL     1      41.533 -15.836   3.448  1.00  0.00     0.030 A 
ENDBRANCH  24  29
ENDBRANCH   1  22
TORSDOF 6
ENDMDL
MODEL 10
REMARK VINA RESULT:      -8.0      2.512      3.538
REMARK  6 active torsions:
REMARK  status: ('A' for Active; 'I' for Inactive)
REMARK    1  A    between atoms: N_3  and  C_4 
REMARK    2  A    between atoms: C_12  and  C_13 
REMARK       I    between atoms: C_13  and  N_14 
REMARK    3  A    between atoms: N_14  and  N_15 
REMARK       I    between atoms: N_15  and  C_16 
REMARK    4  A    between atoms: C_16  and  C_17 
REMARK    5  A    between atoms: C_17  and  C_18 
REMARK    6  A    between atoms: C_23  and  O_24 
ROOT
HETATM    1  C   UNL     1      40.123  -9.715   8.053  1.00  0.00     0.272 C 
HETATM    2  N   UNL     1      40.895 -10.653   7.395  1.00  0.00    -0.263 N 
HETATM    3  O   UNL     1      38.901  -9.674   7.916  1.00  0.00    -0.266 OA
HETATM    4  H   UNL     1      41.885 -10.788   7.574  1.00  0.00     0.190 HD
ENDROOT
BRANCH   2   5
HETATM    5  N   UNL     1      40.257 -11.652   6.651  1.00  0.00    -0.267 N 
HETATM    6  C   UNL     1      41.026 -12.451   5.830  1.00  0.00     0.240 C 
HETATM    7  O   UNL     1      42.254 -12.355   5.784  1.00  0.00    -0.272 OA
HETATM    8  H   UNL     1      39.239 -11.613   6.606  1.00  0.00     0.190 HD
BRANCH   6   9
HETATM    9  C   UNL     1      40.256 -13.513   5.068  1.00  0.00     0.145 C 
BRANCH   9  10
HETATM   10  C   UNL     1      40.905 -13.881   3.772  1.00  0.00    -0.021 A 
HETATM   11  C   UNL     1      41.767 -14.999   3.527  1.00  0.00     0.001 A 
HETATM   12  C   UNL     1      42.131 -14.961   2.182  1.00  0.00     0.043 A 
HETATM   13  C   UNL     1      42.266 -16.051   4.324  1.00  0.00     0.051 A 
HETATM   14  C   UNL     1      42.964 -15.920   1.596  1.00  0.00     0.033 A 
HETATM   15  N   UNL     1      41.531 -13.853   1.631  1.00  0.00    -0.365 N 
HETATM   16  C   UNL     1      43.429 -16.963   2.407  1.00  0.00     0.039 A 
HETATM   17  C   UNL     1      43.077 -17.040   3.754  1.00  0.00     0.069 A 
HETATM   18  H   UNL     1      41.623 -13.571   0.664  1.00  0.00     0.165 HD
HETATM   19  C   UNL     1      40.789 -13.199   2.576  1.00  0.00     0.097 A 
BRANCH  17  20
HETATM   20  O   UNL     1      43.478 -18.018   4.625  1.00  0.00    -0.356 OA
HETATM   21  C   UNL     1      43.223 -17.775   6.003  1.00  0.00     0.210 C 
ENDBRANCH  17  20
ENDBRANCH   9  10
ENDBRANCH   6   9
ENDBRANCH   2   5
BRANCH   1  22
HETATM   22  C   UNL     1      40.872  -8.789   8.910  1.00  0.00     0.058 A 
HETATM   23  C   UNL     1      40.888  -8.809  10.305  1.00  0.00     0.029 A 
HETATM   24  N   UNL     1      41.652  -7.736  10.766  1.00  0.00    -0.319 N 
HETATM   25  C   UNL     1      40.278  -9.836  11.210  1.00  0.00     0.070 C 
HETATM   26  C   UNL     1      42.193  -7.089   9.660  1.00  0.00     0.014 A 
HETATM   27  C   UNL     1      43.029  -5.854   9.717  1.00  0.00     0.068 C 
HETATM   28  C   UNL     1      41.720  -7.717   8.525  1.00  0.00     0.044 A 
BRANCH  24  29
HETATM   29  C   UNL     1      41.821  -7.350  12.129  1.00  0.00     0.039 A 
HETATM   30  C   UNL     1      40.865  -6.531  12.745  1.00  0.00     0.030 A 
HETATM   31  C   UNL     1      41.034  -6.139  14.074  1.00  0.00     0.002 A 
HETATM   32  C   UNL     1      42.150  -6.562  14.792  1.00  0.00     0.000 A 
HETATM   33  C   UNL     1      43.103  -7.379  14.183  1.00  0.00     0.002 A 
HETATM   34  C   UNL     1      42.942  -7.772  12.853  1.00  0.00     0.030 A 
ENDBRANCH  24  29
ENDBRANCH   1  22
TORSDOF 6
ENDMDL
