MODEL 1
REMARK VINA RESULT:      -8.1      0.000      0.000
REMARK  9 active torsions:
REMARK  status: ('A' for Active; 'I' for Inactive)
REMARK    1  A    between atoms: C_2  and  C_3 
REMARK    2  A    between atoms: C_3  and  C_4 
REMARK    3  A    between atoms: C_3  and  C_23 
REMARK    4  A    between atoms: C_4  and  C_5 
REMARK    5  A    between atoms: C_4  and  C_17 
REMARK    6  A    between atoms: C_15  and  O_16 
REMARK    7  A    between atoms: C_23  and  N_24 
REMARK    8  A    between atoms: N_31  and  N_32 
REMARK       I    between atoms: N_32  and  C_33 
REMARK    9  A    between atoms: C_33  and  C_34 
ROOT
HETATM    1  C   UNL     1      46.001 -10.629   7.715  1.00  0.00     0.213 C 
HETATM    2  C   UNL     1      44.845 -10.320   8.652  1.00  0.00    -0.011 C 
HETATM    3  N   UNL     1      43.885 -10.063   9.429  1.00  0.00    -0.101 N 
ENDROOT
BRANCH   1   4
HETATM    4  C   UNL     1      45.489 -11.338   6.477  1.00  0.00     0.249 C 
HETATM    5  N   UNL     1      44.581 -12.368   6.694  1.00  0.00    -0.246 N 
HETATM    6  H   UNL     1      44.349 -12.694   7.630  1.00  0.00     0.192 HD
HETATM    7  O   UNL     1      45.917 -11.067   5.352  1.00  0.00    -0.271 OA
BRANCH   5   8
HETATM    8  N   UNL     1      43.911 -12.872   5.627  1.00  0.00    -0.181 NA
HETATM    9  C   UNL     1      43.119 -13.887   5.792  1.00  0.00     0.035 C 
HETATM   10  C   UNL     1      42.890 -14.590   7.112  1.00  0.00     0.068 C 
BRANCH   9  11
HETATM   11  C   UNL     1      42.294 -14.336   4.588  1.00  0.00     0.074 C 
BRANCH  11  12
HETATM   12  C   UNL     1      41.025 -13.477   4.284  1.00  0.00     0.072 C 
BRANCH  12  13
HETATM   13  C   UNL     1      40.753 -12.251   5.163  1.00  0.00     0.061 C 
HETATM   14  C   UNL     1      39.780 -12.485   6.267  1.00  0.00     0.298 C 
HETATM   15  O   UNL     1      39.425 -13.634   6.539  1.00  0.00    -0.259 OA
HETATM   16  O   UNL     1      39.363 -11.419   7.037  1.00  0.00    -0.274 OA
HETATM   17  C   UNL     1      39.936 -10.149   6.881  1.00  0.00     0.092 A 
HETATM   18  C   UNL     1      40.921  -9.923   5.926  1.00  0.00     0.032 A 
HETATM   19  C   UNL     1      39.481  -9.140   7.731  1.00  0.00     0.038 A 
HETATM   20  C   UNL     1      41.448  -8.629   5.820  1.00  0.00     0.017 A 
HETATM   21  C   UNL     1      41.314 -11.034   5.058  1.00  0.00     0.091 C 
HETATM   22  C   UNL     1      41.003  -7.607   6.665  1.00  0.00     0.001 A 
HETATM   23  C   UNL     1      40.022  -7.862   7.621  1.00  0.00     0.003 A 
BRANCH  21  24
HETATM   24  O   UNL     1      42.305 -10.766   4.145  1.00  0.00    -0.359 OA
HETATM   25  H   UNL     1      42.243 -11.458   3.445  1.00  0.00     0.218 HD
ENDBRANCH  21  24
ENDBRANCH  12  13
BRANCH  12  26
HETATM   26  C   UNL     1      40.697 -13.280   2.799  1.00  0.00    -0.049 A 
HETATM   27  C   UNL     1      39.543 -12.551   2.446  1.00  0.00     0.008 A 
HETATM   28  C   UNL     1      39.193 -12.349   1.108  1.00  0.00     0.001 A 
HETATM   29  C   UNL     1      39.994 -12.862   0.096  1.00  0.00     0.000 A 
HETATM   30  C   UNL     1      41.150 -13.564   0.420  1.00  0.00     0.001 A 
HETATM   31  C   UNL     1      41.501 -13.765   1.758  1.00  0.00     0.008 A 
ENDBRANCH  12  26
ENDBRANCH  11  12
BRANCH  11  32
HETATM   32  C   UNL     1      42.024 -15.839   4.818  1.00  0.00     0.246 C 
BRANCH  32  33
HETATM   33  N   UNL     1      42.985 -16.783   4.107  1.00  0.00    -0.070 N 
HETATM   34  H   UNL     1      43.764 -16.208   3.720  1.00  0.00     0.279 HD
HETATM   35  C   UNL     1      43.556 -17.857   4.999  1.00  0.00     0.235 C 
HETATM   36  C   UNL     1      44.525 -18.738   4.225  1.00  0.00     0.028 C 
HETATM   37  C   UNL     1      43.885 -19.329   2.977  1.00  0.00     0.003 C 
HETATM   38  C   UNL     1      43.306 -18.229   2.100  1.00  0.00     0.028 C 
HETATM   39  C   UNL     1      42.318 -17.367   2.872  1.00  0.00     0.235 C 
ENDBRANCH  32  33
ENDBRANCH  11  32
ENDBRANCH   9  11
ENDBRANCH   5   8
ENDBRANCH   1   4
TORSDOF 9
ENDMDL
MODEL 2
REMARK VINA RESULT:      -8.0      3.108      6.248
REMARK  9 active torsions:
REMARK  status: ('A' for Active; 'I' for Inactive)
REMARK    1  A    between atoms: C_2  and  C_3 
REMARK    2  A    between atoms: C_3  and  C_4 
REMARK    3  A    between atoms: C_3  and  C_23 
REMARK    4  A    between atoms: C_4  and  C_5 
REMARK    5  A    between atoms: C_4  and  C_17 
REMARK    6  A    between atoms: C_15  and  O_16 
REMARK    7  A    between atoms: C_23  and  N_24 
REMARK    8  A    between atoms: N_31  and  N_32 
REMARK       I    between atoms: N_32  and  C_33 
REMARK    9  A    between atoms: C_33  and  C_34 
ROOT
HETATM    1  C   UNL     1      41.240  -8.309  -1.056  1.00  0.00     0.213 C 
HETATM    2  C   UNL     1      42.535  -7.549  -1.293  1.00  0.00    -0.011 C 
HETATM    3  N   UNL     1      43.610  -6.918  -1.489  1.00  0.00    -0.101 N 
ENDROOT
BRANCH   1   4
HETATM    4  C   UNL     1      41.511  -9.547  -0.226  1.00  0.00     0.249 C 
HETATM    5  N   UNL     1      41.647  -9.349   1.143  1.00  0.00    -0.246 N 
HETATM    6  H   UNL     1      41.662  -8.418   1.554  1.00  0.00     0.192 HD
HETATM    7  O   UNL     1      41.681 -10.653  -0.749  1.00  0.00    -0.271 OA
BRANCH   5   8
HETATM    8  N   UNL     1      41.648 -10.436   1.955  1.00  0.00    -0.181 NA
HETATM    9  C   UNL     1      40.815 -10.492   2.948  1.00  0.00     0.035 C 
HETATM   10  C   UNL     1      39.827  -9.403   3.301  1.00  0.00     0.068 C 
BRANCH   9  11
HETATM   11  C   UNL     1      40.771 -11.788   3.755  1.00  0.00     0.074 C 
BRANCH  11  12
HETATM   12  C   UNL     1      42.156 -12.463   4.019  1.00  0.00     0.072 C 
BRANCH  12  13
HETATM   13  C   UNL     1      43.072 -11.844   5.080  1.00  0.00     0.061 C 
HETATM   14  C   UNL     1      44.440 -11.505   4.594  1.00  0.00     0.298 C 
HETATM   15  O   UNL     1      44.686 -11.535   3.386  1.00  0.00    -0.259 OA
HETATM   16  O   UNL     1      45.387 -11.065   5.495  1.00  0.00    -0.274 OA
HETATM   17  C   UNL     1      45.047 -10.809   6.831  1.00  0.00     0.092 A 
HETATM   18  C   UNL     1      43.752 -11.019   7.291  1.00  0.00     0.032 A 
HETATM   19  C   UNL     1      46.061 -10.328   7.660  1.00  0.00     0.038 A 
HETATM   20  C   UNL     1      43.482 -10.748   8.639  1.00  0.00     0.017 A 
HETATM   21  C   UNL     1      42.762 -11.556   6.356  1.00  0.00     0.091 C 
HETATM   22  C   UNL     1      44.487 -10.264   9.484  1.00  0.00     0.001 A 
HETATM   23  C   UNL     1      45.775 -10.052   8.995  1.00  0.00     0.003 A 
BRANCH  21  24
HETATM   24  O   UNL     1      41.493 -11.726   6.852  1.00  0.00    -0.359 OA
HETATM   25  H   UNL     1      40.989 -10.908   6.634  1.00  0.00     0.218 HD
ENDBRANCH  21  24
ENDBRANCH  12  13
BRANCH  12  26
HETATM   26  C   UNL     1      42.162 -13.997   3.990  1.00  0.00    -0.049 A 
HETATM   27  C   UNL     1      42.862 -14.656   2.959  1.00  0.00     0.008 A 
HETATM   28  C   UNL     1      42.894 -16.051   2.880  1.00  0.00     0.001 A 
HETATM   29  C   UNL     1      42.236 -16.816   3.835  1.00  0.00     0.000 A 
HETATM   30  C   UNL     1      41.558 -16.187   4.875  1.00  0.00     0.001 A 
HETATM   31  C   UNL     1      41.528 -14.791   4.955  1.00  0.00     0.008 A 
ENDBRANCH  12  26
ENDBRANCH  11  12
BRANCH  11  32
HETATM   32  C   UNL     1      39.738 -12.682   3.033  1.00  0.00     0.246 C 
BRANCH  32  33
HETATM   33  N   UNL     1      39.765 -12.601   1.514  1.00  0.00    -0.070 N 
HETATM   34  H   UNL     1      40.484 -11.893   1.247  1.00  0.00     0.279 HD
HETATM   35  C   UNL     1      40.086 -13.910   0.838  1.00  0.00     0.235 C 
HETATM   36  C   UNL     1      40.123 -13.741  -0.673  1.00  0.00     0.028 C 
HETATM   37  C   UNL     1      38.834 -13.137  -1.210  1.00  0.00     0.003 C 
HETATM   38  C   UNL     1      38.525 -11.823  -0.506  1.00  0.00     0.028 C 
HETATM   39  C   UNL     1      38.464 -12.004   1.003  1.00  0.00     0.235 C 
ENDBRANCH  32  33
ENDBRANCH  11  32
ENDBRANCH   9  11
ENDBRANCH   5   8
ENDBRANCH   1   4
TORSDOF 9
ENDMDL
MODEL 3
REMARK VINA RESULT:      -7.9     17.506     20.176
REMARK  9 active torsions:
REMARK  status: ('A' for Active; 'I' for Inactive)
REMARK    1  A    between atoms: C_2  and  C_3 
REMARK    2  A    between atoms: C_3  and  C_4 
REMARK    3  A    between atoms: C_3  and  C_23 
REMARK    4  A    between atoms: C_4  and  C_5 
REMARK    5  A    between atoms: C_4  and  C_17 
REMARK    6  A    between atoms: C_15  and  O_16 
REMARK    7  A    between atoms: C_23  and  N_24 
REMARK    8  A    between atoms: N_31  and  N_32 
REMARK       I    between atoms: N_32  and  C_33 
REMARK    9  A    between atoms: C_33  and  C_34 
ROOT
HETATM    1  C   UNL     1      43.982 -29.551  -3.818  1.00  0.00     0.213 C 
HETATM    2  C   UNL     1      43.964 -30.183  -5.201  1.00  0.00    -0.011 C 
HETATM    3  N   UNL     1      43.949 -30.707  -6.348  1.00  0.00    -0.101 N 
ENDROOT
BRANCH   1   4
HETATM    4  C   UNL     1      44.885 -30.346  -2.897  1.00  0.00     0.249 C 
HETATM    5  N   UNL     1      46.251 -30.159  -3.070  1.00  0.00    -0.246 N 
HETATM    6  H   UNL     1      46.627 -29.598  -3.832  1.00  0.00     0.192 HD
HETATM    7  O   UNL     1      44.432 -31.171  -2.099  1.00  0.00    -0.271 OA
BRANCH   5   8
HETATM    8  N   UNL     1      47.094 -30.652  -2.127  1.00  0.00    -0.181 NA
HETATM    9  C   UNL     1      47.749 -29.831  -1.365  1.00  0.00     0.035 C 
HETATM   10  C   UNL     1      47.665 -28.324  -1.456  1.00  0.00     0.068 C 
BRANCH   9  11
HETATM   11  C   UNL     1      48.586 -30.435  -0.239  1.00  0.00     0.074 C 
BRANCH  11  12
HETATM   12  C   UNL     1      48.107 -30.099   1.210  1.00  0.00     0.072 C 
BRANCH  12  13
HETATM   13  C   UNL     1      46.599 -30.069   1.485  1.00  0.00     0.061 C 
HETATM   14  C   UNL     1      46.120 -28.832   2.164  1.00  0.00     0.298 C 
HETATM   15  O   UNL     1      46.872 -27.859   2.270  1.00  0.00    -0.259 OA
HETATM   16  O   UNL     1      44.806 -28.754   2.577  1.00  0.00    -0.274 OA
HETATM   17  C   UNL     1      43.888 -29.763   2.253  1.00  0.00     0.092 A 
HETATM   18  C   UNL     1      44.283 -30.884   1.532  1.00  0.00     0.032 A 
HETATM   19  C   UNL     1      42.571 -29.580   2.678  1.00  0.00     0.038 A 
HETATM   20  C   UNL     1      43.316 -31.857   1.248  1.00  0.00     0.017 A 
HETATM   21  C   UNL     1      45.693 -31.005   1.156  1.00  0.00     0.091 C 
HETATM   22  C   UNL     1      41.992 -31.688   1.665  1.00  0.00     0.001 A 
HETATM   23  C   UNL     1      41.619 -30.550   2.378  1.00  0.00     0.003 A 
BRANCH  21  24
HETATM   24  O   UNL     1      46.030 -32.119   0.426  1.00  0.00    -0.359 OA
HETATM   25  H   UNL     1      45.305 -32.775   0.556  1.00  0.00     0.218 HD
ENDBRANCH  21  24
ENDBRANCH  12  13
BRANCH  12  26
HETATM   26  C   UNL     1      48.948 -30.701   2.343  1.00  0.00    -0.049 A 
HETATM   27  C   UNL     1      49.661 -29.835   3.196  1.00  0.00     0.008 A 
HETATM   28  C   UNL     1      50.449 -30.329   4.238  1.00  0.00     0.001 A 
HETATM   29  C   UNL     1      50.534 -31.699   4.456  1.00  0.00     0.000 A 
HETATM   30  C   UNL     1      49.820 -32.571   3.641  1.00  0.00     0.001 A 
HETATM   31  C   UNL     1      49.030 -32.076   2.599  1.00  0.00     0.008 A 
ENDBRANCH  12  26
ENDBRANCH  11  12
BRANCH  11  32
HETATM   32  C   UNL     1      50.043 -30.031  -0.554  1.00  0.00     0.246 C 
BRANCH  32  33
HETATM   33  N   UNL     1      50.915 -31.147  -1.113  1.00  0.00    -0.070 N 
HETATM   34  H   UNL     1      50.282 -31.897  -1.464  1.00  0.00     0.279 HD
HETATM   35  C   UNL     1      51.829 -30.706  -2.229  1.00  0.00     0.235 C 
HETATM   36  C   UNL     1      52.644 -31.880  -2.752  1.00  0.00     0.028 C 
HETATM   37  C   UNL     1      53.415 -32.577  -1.641  1.00  0.00     0.003 C 
HETATM   38  C   UNL     1      52.475 -33.001  -0.522  1.00  0.00     0.028 C 
HETATM   39  C   UNL     1      51.682 -31.820   0.015  1.00  0.00     0.235 C 
ENDBRANCH  32  33
ENDBRANCH  11  32
ENDBRANCH   9  11
ENDBRANCH   5   8
ENDBRANCH   1   4
TORSDOF 9
ENDMDL
MODEL 4
REMARK VINA RESULT:      -7.9     17.304     19.480
REMARK  9 active torsions:
REMARK  status: ('A' for Active; 'I' for Inactive)
REMARK    1  A    between atoms: C_2  and  C_3 
REMARK    2  A    between atoms: C_3  and  C_4 
REMARK    3  A    between atoms: C_3  and  C_23 
REMARK    4  A    between atoms: C_4  and  C_5 
REMARK    5  A    between atoms: C_4  and  C_17 
REMARK    6  A    between atoms: C_15  and  O_16 
REMARK    7  A    between atoms: C_23  and  N_24 
REMARK    8  A    between atoms: N_31  and  N_32 
REMARK       I    between atoms: N_32  and  C_33 
REMARK    9  A    between atoms: C_33  and  C_34 
ROOT
HETATM    1  C   UNL     1      51.047 -30.550  -1.768  1.00  0.00     0.213 C 
HETATM    2  C   UNL     1      51.864 -31.660  -1.127  1.00  0.00    -0.011 C 
HETATM    3  N   UNL     1      52.543 -32.580  -0.595  1.00  0.00    -0.101 N 
ENDROOT
BRANCH   1   4
HETATM    4  C   UNL     1      49.847 -30.224  -0.901  1.00  0.00     0.249 C 
HETATM    5  N   UNL     1      49.731 -30.949   0.279  1.00  0.00    -0.246 N 
HETATM    6  H   UNL     1      50.357 -31.721   0.502  1.00  0.00     0.192 HD
HETATM    7  O   UNL     1      48.984 -29.420  -1.265  1.00  0.00    -0.271 OA
BRANCH   5   8
HETATM    8  N   UNL     1      48.824 -30.539   1.202  1.00  0.00    -0.181 NA
HETATM    9  C   UNL     1      47.862 -31.336   1.549  1.00  0.00     0.035 C 
HETATM   10  C   UNL     1      47.646 -32.720   0.979  1.00  0.00     0.068 C 
BRANCH   9  11
HETATM   11  C   UNL     1      46.943 -30.876   2.680  1.00  0.00     0.074 C 
BRANCH  11  12
HETATM   12  C   UNL     1      45.705 -30.031   2.238  1.00  0.00     0.072 C 
BRANCH  12  13
HETATM   13  C   UNL     1      45.617 -29.585   0.774  1.00  0.00     0.061 C 
HETATM   14  C   UNL     1      46.244 -28.263   0.492  1.00  0.00     0.298 C 
HETATM   15  O   UNL     1      46.949 -27.723   1.349  1.00  0.00    -0.259 OA
HETATM   16  O   UNL     1      46.109 -27.705  -0.762  1.00  0.00    -0.274 OA
HETATM   17  C   UNL     1      45.506 -28.419  -1.807  1.00  0.00     0.092 A 
HETATM   18  C   UNL     1      45.001 -29.697  -1.600  1.00  0.00     0.032 A 
HETATM   19  C   UNL     1      45.449 -27.791  -3.052  1.00  0.00     0.038 A 
HETATM   20  C   UNL     1      44.405 -30.352  -2.686  1.00  0.00     0.017 A 
HETATM   21  C   UNL     1      45.076 -30.264  -0.252  1.00  0.00     0.091 C 
HETATM   22  C   UNL     1      44.342 -29.737  -3.941  1.00  0.00     0.001 A 
HETATM   23  C   UNL     1      44.864 -28.459  -4.125  1.00  0.00     0.003 A 
BRANCH  21  24
HETATM   24  O   UNL     1      44.583 -31.537  -0.103  1.00  0.00    -0.359 OA
HETATM   25  H   UNL     1      44.193 -31.796  -0.971  1.00  0.00     0.218 HD
ENDBRANCH  21  24
ENDBRANCH  12  13
BRANCH  12  26
HETATM   26  C   UNL     1      44.364 -30.445   2.858  1.00  0.00    -0.049 A 
HETATM   27  C   UNL     1      43.235 -29.629   2.647  1.00  0.00     0.008 A 
HETATM   28  C   UNL     1      41.991 -29.955   3.195  1.00  0.00     0.001 A 
HETATM   29  C   UNL     1      41.849 -31.107   3.957  1.00  0.00     0.000 A 
HETATM   30  C   UNL     1      42.945 -31.940   4.160  1.00  0.00     0.001 A 
HETATM   31  C   UNL     1      44.188 -31.615   3.610  1.00  0.00     0.008 A 
ENDBRANCH  12  26
ENDBRANCH  11  12
BRANCH  11  32
HETATM   32  C   UNL     1      47.871 -30.186   3.704  1.00  0.00     0.246 C 
BRANCH  32  33
HETATM   33  N   UNL     1      49.073 -31.011   4.142  1.00  0.00    -0.070 N 
HETATM   34  H   UNL     1      49.317 -31.656   3.360  1.00  0.00     0.279 HD
HETATM   35  C   UNL     1      50.284 -30.184   4.497  1.00  0.00     0.235 C 
HETATM   36  C   UNL     1      51.448 -31.080   4.896  1.00  0.00     0.028 C 
HETATM   37  C   UNL     1      51.072 -32.033   6.021  1.00  0.00     0.003 C 
HETATM   38  C   UNL     1      49.843 -32.847   5.644  1.00  0.00     0.028 C 
HETATM   39  C   UNL     1      48.675 -31.947   5.272  1.00  0.00     0.235 C 
ENDBRANCH  32  33
ENDBRANCH  11  32
ENDBRANCH   9  11
ENDBRANCH   5   8
ENDBRANCH   1   4
TORSDOF 9
ENDMDL
MODEL 5
REMARK VINA RESULT:      -7.8     17.269     19.823
REMARK  9 active torsions:
REMARK  status: ('A' for Active; 'I' for Inactive)
REMARK    1  A    between atoms: C_2  and  C_3 
REMARK    2  A    between atoms: C_3  and  C_4 
REMARK    3  A    between atoms: C_3  and  C_23 
REMARK    4  A    between atoms: C_4  and  C_5 
REMARK    5  A    between atoms: C_4  and  C_17 
REMARK    6  A    between atoms: C_15  and  O_16 
REMARK    7  A    between atoms: C_23  and  N_24 
REMARK    8  A    between atoms: N_31  and  N_32 
REMARK       I    between atoms: N_32  and  C_33 
REMARK    9  A    between atoms: C_33  and  C_34 
ROOT
HETATM    1  C   UNL     1      51.549 -30.710  -2.249  1.00  0.00     0.213 C 
HETATM    2  C   UNL     1      52.618 -31.719  -1.862  1.00  0.00    -0.011 C 
HETATM    3  N   UNL     1      53.506 -32.556  -1.542  1.00  0.00    -0.101 N 
ENDROOT
BRANCH   1   4
HETATM    4  C   UNL     1      50.560 -30.545  -1.113  1.00  0.00     0.249 C 
HETATM    5  N   UNL     1      49.216 -30.532  -1.469  1.00  0.00    -0.246 N 
HETATM    6  H   UNL     1      48.916 -30.533  -2.442  1.00  0.00     0.192 HD
HETATM    7  O   UNL     1      50.932 -30.352   0.048  1.00  0.00    -0.271 OA
BRANCH   5   8
HETATM    8  N   UNL     1      48.287 -30.629  -0.485  1.00  0.00    -0.181 NA
HETATM    9  C   UNL     1      47.697 -29.557  -0.055  1.00  0.00     0.035 C 
HETATM   10  C   UNL     1      47.983 -28.160  -0.560  1.00  0.00     0.068 C 
BRANCH   9  11
HETATM   11  C   UNL     1      46.572 -29.734   0.963  1.00  0.00     0.074 C 
BRANCH  11  12
HETATM   12  C   UNL     1      45.123 -29.591   0.395  1.00  0.00     0.072 C 
BRANCH  12  13
HETATM   13  C   UNL     1      44.898 -29.873  -1.095  1.00  0.00     0.061 C 
HETATM   14  C   UNL     1      44.622 -28.661  -1.919  1.00  0.00     0.298 C 
HETATM   15  O   UNL     1      44.792 -27.539  -1.435  1.00  0.00    -0.259 OA
HETATM   16  O   UNL     1      44.276 -28.811  -3.245  1.00  0.00    -0.274 OA
HETATM   17  C   UNL     1      44.307 -30.070  -3.861  1.00  0.00     0.092 A 
HETATM   18  C   UNL     1      44.659 -31.208  -3.143  1.00  0.00     0.032 A 
HETATM   19  C   UNL     1      43.980 -30.120  -5.216  1.00  0.00     0.038 A 
HETATM   20  C   UNL     1      44.663 -32.435  -3.817  1.00  0.00     0.017 A 
HETATM   21  C   UNL     1      44.956 -31.063  -1.716  1.00  0.00     0.091 C 
HETATM   22  C   UNL     1      44.340 -32.502  -5.177  1.00  0.00     0.001 A 
HETATM   23  C   UNL     1      43.999 -31.346  -5.876  1.00  0.00     0.003 A 
BRANCH  21  24
HETATM   24  O   UNL     1      45.318 -32.211  -1.055  1.00  0.00    -0.359 OA
HETATM   25  H   UNL     1      44.971 -32.134  -0.136  1.00  0.00     0.218 HD
ENDBRANCH  21  24
ENDBRANCH  12  13
BRANCH  12  26
HETATM   26  C   UNL     1      43.999 -30.087   1.312  1.00  0.00    -0.049 A 
HETATM   27  C   UNL     1      42.771 -29.395   1.323  1.00  0.00     0.008 A 
HETATM   28  C   UNL     1      41.716 -29.799   2.145  1.00  0.00     0.001 A 
HETATM   29  C   UNL     1      41.863 -30.909   2.968  1.00  0.00     0.000 A 
HETATM   30  C   UNL     1      43.058 -31.621   2.957  1.00  0.00     0.001 A 
HETATM   31  C   UNL     1      44.113 -31.218   2.133  1.00  0.00     0.008 A 
ENDBRANCH  12  26
ENDBRANCH  11  12
BRANCH  11  32
HETATM   32  C   UNL     1      46.916 -28.773   2.122  1.00  0.00     0.246 C 
BRANCH  32  33
HETATM   33  N   UNL     1      47.684 -29.403   3.275  1.00  0.00    -0.070 N 
HETATM   34  H   UNL     1      47.554 -28.794   4.112  1.00  0.00     0.279 HD
HETATM   35  C   UNL     1      47.242 -30.805   3.609  1.00  0.00     0.235 C 
HETATM   36  C   UNL     1      48.036 -31.353   4.786  1.00  0.00     0.028 C 
HETATM   37  C   UNL     1      49.536 -31.283   4.543  1.00  0.00     0.003 C 
HETATM   38  C   UNL     1      49.956 -29.862   4.197  1.00  0.00     0.028 C 
HETATM   39  C   UNL     1      49.178 -29.329   3.003  1.00  0.00     0.235 C 
ENDBRANCH  32  33
ENDBRANCH  11  32
ENDBRANCH   9  11
ENDBRANCH   5   8
ENDBRANCH   1   4
TORSDOF 9
ENDMDL
MODEL 6
REMARK VINA RESULT:      -7.7      3.861      6.460
REMARK  9 active torsions:
REMARK  status: ('A' for Active; 'I' for Inactive)
REMARK    1  A    between atoms: C_2  and  C_3 
REMARK    2  A    between atoms: C_3  and  C_4 
REMARK    3  A    between atoms: C_3  and  C_23 
REMARK    4  A    between atoms: C_4  and  C_5 
REMARK    5  A    between atoms: C_4  and  C_17 
REMARK    6  A    between atoms: C_15  and  O_16 
REMARK    7  A    between atoms: C_23  and  N_24 
REMARK    8  A    between atoms: N_31  and  N_32 
REMARK       I    between atoms: N_32  and  C_33 
REMARK    9  A    between atoms: C_33  and  C_34 
ROOT
HETATM    1  C   UNL     1      42.270  -6.626  -1.419  1.00  0.00     0.213 C 
HETATM    2  C   UNL     1      40.780  -6.334  -1.504  1.00  0.00    -0.011 C 
HETATM    3  N   UNL     1      39.545  -6.092  -1.576  1.00  0.00    -0.101 N 
ENDROOT
BRANCH   1   4
HETATM    4  C   UNL     1      42.492  -8.047  -0.941  1.00  0.00     0.249 C 
HETATM    5  N   UNL     1      41.737  -8.448   0.156  1.00  0.00    -0.246 N 
HETATM    6  H   UNL     1      41.144  -7.799   0.669  1.00  0.00     0.192 HD
HETATM    7  O   UNL     1      43.350  -8.775  -1.448  1.00  0.00    -0.271 OA
BRANCH   5   8
HETATM    8  N   UNL     1      41.713  -9.767   0.475  1.00  0.00    -0.181 NA
HETATM    9  C   UNL     1      40.591 -10.321   0.817  1.00  0.00     0.035 C 
HETATM   10  C   UNL     1      39.269  -9.592   0.914  1.00  0.00     0.068 C 
BRANCH   9  11
HETATM   11  C   UNL     1      40.594 -11.831   1.044  1.00  0.00     0.074 C 
BRANCH  11  12
HETATM   12  C   UNL     1      41.547 -12.339   2.174  1.00  0.00     0.072 C 
BRANCH  12  13
HETATM   13  C   UNL     1      41.507 -11.626   3.530  1.00  0.00     0.061 C 
HETATM   14  C   UNL     1      42.832 -11.142   4.013  1.00  0.00     0.298 C 
HETATM   15  O   UNL     1      43.802 -11.145   3.251  1.00  0.00    -0.259 OA
HETATM   16  O   UNL     1      42.933 -10.604   5.279  1.00  0.00    -0.274 OA
HETATM   17  C   UNL     1      41.792 -10.386   6.063  1.00  0.00     0.092 A 
HETATM   18  C   UNL     1      40.528 -10.734   5.598  1.00  0.00     0.032 A 
HETATM   19  C   UNL     1      41.986  -9.799   7.314  1.00  0.00     0.038 A 
HETATM   20  C   UNL     1      39.431 -10.494   6.435  1.00  0.00     0.017 A 
HETATM   21  C   UNL     1      40.425 -11.373   4.285  1.00  0.00     0.091 C 
HETATM   22  C   UNL     1      39.608  -9.906   7.692  1.00  0.00     0.001 A 
HETATM   23  C   UNL     1      40.884  -9.557   8.131  1.00  0.00     0.003 A 
BRANCH  21  24
HETATM   24  O   UNL     1      39.155 -11.679   3.860  1.00  0.00    -0.359 OA
HETATM   25  H   UNL     1      38.722 -12.180   4.591  1.00  0.00     0.218 HD
ENDBRANCH  21  24
ENDBRANCH  12  13
BRANCH  12  26
HETATM   26  C   UNL     1      41.721 -13.860   2.261  1.00  0.00    -0.049 A 
HETATM   27  C   UNL     1      42.971 -14.424   1.931  1.00  0.00     0.008 A 
HETATM   28  C   UNL     1      43.181 -15.804   1.985  1.00  0.00     0.001 A 
HETATM   29  C   UNL     1      42.151 -16.649   2.379  1.00  0.00     0.000 A 
HETATM   30  C   UNL     1      40.917 -16.113   2.731  1.00  0.00     0.001 A 
HETATM   31  C   UNL     1      40.707 -14.732   2.679  1.00  0.00     0.008 A 
ENDBRANCH  12  26
ENDBRANCH  11  12
BRANCH  11  32
HETATM   32  C   UNL     1      40.845 -12.452  -0.348  1.00  0.00     0.246 C 
BRANCH  32  33
HETATM   33  N   UNL     1      39.636 -13.127  -0.980  1.00  0.00    -0.070 N 
HETATM   34  H   UNL     1      39.168 -13.694  -0.241  1.00  0.00     0.279 HD
HETATM   35  C   UNL     1      38.639 -12.163  -1.572  1.00  0.00     0.235 C 
HETATM   36  C   UNL     1      37.450 -12.911  -2.157  1.00  0.00     0.028 C 
HETATM   37  C   UNL     1      37.881 -13.961  -3.170  1.00  0.00     0.003 C 
HETATM   38  C   UNL     1      38.894 -14.915  -2.554  1.00  0.00     0.028 C 
HETATM   39  C   UNL     1      40.093 -14.164  -1.994  1.00  0.00     0.235 C 
ENDBRANCH  32  33
ENDBRANCH  11  32
ENDBRANCH   9  11
ENDBRANCH   5   8
ENDBRANCH   1   4
TORSDOF 9
ENDMDL
MODEL 7
REMARK VINA RESULT:      -7.5      2.918      8.278
REMARK  9 active torsions:
REMARK  status: ('A' for Active; 'I' for Inactive)
REMARK    1  A    between atoms: C_2  and  C_3 
REMARK    2  A    between atoms: C_3  and  C_4 
REMARK    3  A    between atoms: C_3  and  C_23 
REMARK    4  A    between atoms: C_4  and  C_5 
REMARK    5  A    between atoms: C_4  and  C_17 
REMARK    6  A    between atoms: C_15  and  O_16 
REMARK    7  A    between atoms: C_23  and  N_24 
REMARK    8  A    between atoms: N_31  and  N_32 
REMARK       I    between atoms: N_32  and  C_33 
REMARK    9  A    between atoms: C_33  and  C_34 
ROOT
HETATM    1  C   UNL     1      41.142 -10.848  -1.639  1.00  0.00     0.213 C 
HETATM    2  C   UNL     1      40.070 -11.867  -1.289  1.00  0.00    -0.011 C 
HETATM    3  N   UNL     1      39.181 -12.714  -0.999  1.00  0.00    -0.101 N 
ENDROOT
BRANCH   1   4
HETATM    4  C   UNL     1      41.665 -10.193  -0.377  1.00  0.00     0.249 C 
HETATM    5  N   UNL     1      41.213 -10.729   0.823  1.00  0.00    -0.246 N 
HETATM    6  H   UNL     1      40.498 -11.454   0.855  1.00  0.00     0.192 HD
HETATM    7  O   UNL     1      42.385  -9.191  -0.417  1.00  0.00    -0.271 OA
BRANCH   5   8
HETATM    8  N   UNL     1      41.826 -10.347   1.972  1.00  0.00    -0.181 NA
HETATM    9  C   UNL     1      41.151 -10.330   3.080  1.00  0.00     0.035 C 
HETATM   10  C   UNL     1      39.687 -10.690   3.198  1.00  0.00     0.068 C 
BRANCH   9  11
HETATM   11  C   UNL     1      41.917 -10.015   4.363  1.00  0.00     0.074 C 
BRANCH  11  12
HETATM   12  C   UNL     1      42.261 -11.247   5.261  1.00  0.00     0.072 C 
BRANCH  12  13
HETATM   13  C   UNL     1      42.125 -12.647   4.652  1.00  0.00     0.061 C 
HETATM   14  C   UNL     1      41.041 -13.477   5.248  1.00  0.00     0.298 C 
HETATM   15  O   UNL     1      40.216 -12.959   6.005  1.00  0.00    -0.259 OA
HETATM   16  O   UNL     1      40.914 -14.797   4.868  1.00  0.00    -0.274 OA
HETATM   17  C   UNL     1      41.703 -15.330   3.838  1.00  0.00     0.092 A 
HETATM   18  C   UNL     1      42.655 -14.549   3.192  1.00  0.00     0.032 A 
HETATM   19  C   UNL     1      41.478 -16.663   3.494  1.00  0.00     0.038 A 
HETATM   20  C   UNL     1      43.413 -15.145   2.176  1.00  0.00     0.017 A 
HETATM   21  C   UNL     1      42.843 -13.169   3.643  1.00  0.00     0.091 C 
HETATM   22  C   UNL     1      43.199 -16.480   1.817  1.00  0.00     0.001 A 
HETATM   23  C   UNL     1      42.231 -17.238   2.474  1.00  0.00     0.003 A 
BRANCH  21  24
HETATM   24  O   UNL     1      43.780 -12.432   2.960  1.00  0.00    -0.359 OA
HETATM   25  H   UNL     1      44.629 -12.930   3.014  1.00  0.00     0.218 HD
ENDBRANCH  21  24
ENDBRANCH  12  13
BRANCH  12  26
HETATM   26  C   UNL     1      43.468 -11.073   6.191  1.00  0.00    -0.049 A 
HETATM   27  C   UNL     1      43.251 -10.636   7.514  1.00  0.00     0.008 A 
HETATM   28  C   UNL     1      44.315 -10.454   8.401  1.00  0.00     0.001 A 
HETATM   29  C   UNL     1      45.616 -10.712   7.989  1.00  0.00     0.000 A 
HETATM   30  C   UNL     1      45.851 -11.165   6.695  1.00  0.00     0.001 A 
HETATM   31  C   UNL     1      44.787 -11.350   5.808  1.00  0.00     0.008 A 
ENDBRANCH  12  26
ENDBRANCH  11  12
BRANCH  11  32
HETATM   32  C   UNL     1      41.100  -8.906   5.063  1.00  0.00     0.246 C 
BRANCH  32  33
HETATM   33  N   UNL     1      41.257  -7.515   4.466  1.00  0.00    -0.070 N 
HETATM   34  H   UNL     1      42.050  -7.549   3.789  1.00  0.00     0.279 HD
HETATM   35  C   UNL     1      40.023  -7.012   3.759  1.00  0.00     0.235 C 
HETATM   36  C   UNL     1      40.269  -5.632   3.167  1.00  0.00     0.028 C 
HETATM   37  C   UNL     1      40.756  -4.641   4.214  1.00  0.00     0.003 C 
HETATM   38  C   UNL     1      41.993  -5.176   4.921  1.00  0.00     0.028 C 
HETATM   39  C   UNL     1      41.735  -6.544   5.533  1.00  0.00     0.235 C 
ENDBRANCH  32  33
ENDBRANCH  11  32
ENDBRANCH   9  11
ENDBRANCH   5   8
ENDBRANCH   1   4
TORSDOF 9
ENDMDL
MODEL 8
REMARK VINA RESULT:      -7.5      2.845      7.033
REMARK  9 active torsions:
REMARK  status: ('A' for Active; 'I' for Inactive)
REMARK    1  A    between atoms: C_2  and  C_3 
REMARK    2  A    between atoms: C_3  and  C_4 
REMARK    3  A    between atoms: C_3  and  C_23 
REMARK    4  A    between atoms: C_4  and  C_5 
REMARK    5  A    between atoms: C_4  and  C_17 
REMARK    6  A    between atoms: C_15  and  O_16 
REMARK    7  A    between atoms: C_23  and  N_24 
REMARK    8  A    between atoms: N_31  and  N_32 
REMARK       I    between atoms: N_32  and  C_33 
REMARK    9  A    between atoms: C_33  and  C_34 
ROOT
HETATM    1  C   UNL     1      38.556  -8.127   4.831  1.00  0.00     0.213 C 
HETATM    2  C   UNL     1      37.774  -8.061   3.529  1.00  0.00    -0.011 C 
HETATM    3  N   UNL     1      37.125  -8.005   2.449  1.00  0.00    -0.101 N 
ENDROOT
BRANCH   1   4
HETATM    4  C   UNL     1      39.572  -9.250   4.767  1.00  0.00     0.249 C 
HETATM    5  N   UNL     1      39.133 -10.440   4.200  1.00  0.00    -0.246 N 
HETATM    6  H   UNL     1      38.161 -10.585   3.934  1.00  0.00     0.192 HD
HETATM    7  O   UNL     1      40.697  -9.135   5.263  1.00  0.00    -0.271 OA
BRANCH   5   8
HETATM    8  N   UNL     1      40.055 -11.389   3.897  1.00  0.00    -0.181 NA
HETATM    9  C   UNL     1      40.210 -12.404   4.690  1.00  0.00     0.035 C 
HETATM   10  C   UNL     1      39.441 -12.614   5.975  1.00  0.00     0.068 C 
BRANCH   9  11
HETATM   11  C   UNL     1      41.169 -13.505   4.242  1.00  0.00     0.074 C 
BRANCH  11  12
HETATM   12  C   UNL     1      42.164 -14.016   5.333  1.00  0.00     0.072 C 
BRANCH  12  13
HETATM   13  C   UNL     1      42.566 -15.495   5.311  1.00  0.00     0.061 C 
HETATM   14  C   UNL     1      42.322 -16.221   6.590  1.00  0.00     0.298 C 
HETATM   15  O   UNL     1      41.651 -15.690   7.479  1.00  0.00    -0.259 OA
HETATM   16  O   UNL     1      42.766 -17.520   6.725  1.00  0.00    -0.274 OA
HETATM   17  C   UNL     1      43.324 -18.208   5.638  1.00  0.00     0.092 A 
HETATM   18  C   UNL     1      43.472 -17.589   4.402  1.00  0.00     0.032 A 
HETATM   19  C   UNL     1      43.708 -19.531   5.856  1.00  0.00     0.038 A 
HETATM   20  C   UNL     1      44.043 -18.331   3.360  1.00  0.00     0.017 A 
HETATM   21  C   UNL     1      43.070 -16.187   4.275  1.00  0.00     0.091 C 
HETATM   22  C   UNL     1      44.432 -19.660   3.561  1.00  0.00     0.001 A 
HETATM   23  C   UNL     1      44.264 -20.260   4.808  1.00  0.00     0.003 A 
BRANCH  21  24
HETATM   24  O   UNL     1      43.216 -15.626   3.029  1.00  0.00    -0.359 OA
HETATM   25  H   UNL     1      43.725 -16.271   2.484  1.00  0.00     0.218 HD
ENDBRANCH  21  24
ENDBRANCH  12  13
BRANCH  12  26
HETATM   26  C   UNL     1      43.301 -13.054   5.697  1.00  0.00    -0.049 A 
HETATM   27  C   UNL     1      43.983 -12.382   4.662  1.00  0.00     0.008 A 
HETATM   28  C   UNL     1      45.032 -11.501   4.936  1.00  0.00     0.001 A 
HETATM   29  C   UNL     1      45.415 -11.265   6.251  1.00  0.00     0.000 A 
HETATM   30  C   UNL     1      44.741 -11.898   7.289  1.00  0.00     0.001 A 
HETATM   31  C   UNL     1      43.690 -12.779   7.015  1.00  0.00     0.008 A 
ENDBRANCH  12  26
ENDBRANCH  11  12
BRANCH  11  32
HETATM   32  C   UNL     1      41.834 -12.967   2.955  1.00  0.00     0.246 C 
BRANCH  32  33
HETATM   33  N   UNL     1      41.398 -13.654   1.669  1.00  0.00    -0.070 N 
HETATM   34  H   UNL     1      42.234 -14.132   1.267  1.00  0.00     0.279 HD
HETATM   35  C   UNL     1      40.294 -14.664   1.860  1.00  0.00     0.235 C 
HETATM   36  C   UNL     1      39.936 -15.325   0.537  1.00  0.00     0.028 C 
HETATM   37  C   UNL     1      39.580 -14.303  -0.532  1.00  0.00     0.003 C 
HETATM   38  C   UNL     1      40.703 -13.290  -0.699  1.00  0.00     0.028 C 
HETATM   39  C   UNL     1      41.039 -12.613   0.621  1.00  0.00     0.235 C 
ENDBRANCH  32  33
ENDBRANCH  11  32
ENDBRANCH   9  11
ENDBRANCH   5   8
ENDBRANCH   1   4
TORSDOF 9
ENDMDL
MODEL 9
REMARK VINA RESULT:      -7.5      2.522      5.702
REMARK  9 active torsions:
REMARK  status: ('A' for Active; 'I' for Inactive)
REMARK    1  A    between atoms: C_2  and  C_3 
REMARK    2  A    between atoms: C_3  and  C_4 
REMARK    3  A    between atoms: C_3  and  C_23 
REMARK    4  A    between atoms: C_4  and  C_5 
REMARK    5  A    between atoms: C_4  and  C_17 
REMARK    6  A    between atoms: C_15  and  O_16 
REMARK    7  A    between atoms: C_23  and  N_24 
REMARK    8  A    between atoms: N_31  and  N_32 
REMARK       I    between atoms: N_32  and  C_33 
REMARK    9  A    between atoms: C_33  and  C_34 
ROOT
HETATM    1  C   UNL     1      39.150  -8.273   7.915  1.00  0.00     0.213 C 
HETATM    2  C   UNL     1      38.937  -7.104   6.967  1.00  0.00    -0.011 C 
HETATM    3  N   UNL     1      38.761  -6.134   6.180  1.00  0.00    -0.101 N 
ENDROOT
BRANCH   1   4
HETATM    4  C   UNL     1      39.228  -9.568   7.131  1.00  0.00     0.249 C 
HETATM    5  N   UNL     1      39.688  -9.464   5.824  1.00  0.00    -0.246 N 
HETATM    6  H   UNL     1      39.868  -8.563   5.385  1.00  0.00     0.192 HD
HETATM    7  O   UNL     1      38.828 -10.636   7.603  1.00  0.00    -0.271 OA
BRANCH   5   8
HETATM    8  N   UNL     1      40.006 -10.604   5.160  1.00  0.00    -0.181 NA
HETATM    9  C   UNL     1      40.883 -10.563   4.205  1.00  0.00     0.035 C 
HETATM   10  C   UNL     1      41.589  -9.308   3.742  1.00  0.00     0.068 C 
BRANCH   9  11
HETATM   11  C   UNL     1      41.297 -11.892   3.575  1.00  0.00     0.074 C 
BRANCH  11  12
HETATM   12  C   UNL     1      42.447 -12.654   4.308  1.00  0.00     0.072 C 
BRANCH  12  13
HETATM   13  C   UNL     1      43.301 -11.880   5.319  1.00  0.00     0.061 C 
HETATM   14  C   UNL     1      44.634 -11.455   4.805  1.00  0.00     0.298 C 
HETATM   15  O   UNL     1      44.886 -11.550   3.601  1.00  0.00    -0.259 OA
HETATM   16  O   UNL     1      45.534 -10.867   5.669  1.00  0.00    -0.274 OA
HETATM   17  C   UNL     1      45.168 -10.546   6.984  1.00  0.00     0.092 A 
HETATM   18  C   UNL     1      43.896 -10.839   7.462  1.00  0.00     0.032 A 
HETATM   19  C   UNL     1      46.131  -9.917   7.773  1.00  0.00     0.038 A 
HETATM   20  C   UNL     1      43.598 -10.497   8.787  1.00  0.00     0.017 A 
HETATM   21  C   UNL     1      42.962 -11.529   6.571  1.00  0.00     0.091 C 
HETATM   22  C   UNL     1      44.552  -9.864   9.592  1.00  0.00     0.001 A 
HETATM   23  C   UNL     1      45.817  -9.573   9.085  1.00  0.00     0.003 A 
BRANCH  21  24
HETATM   24  O   UNL     1      41.711 -11.777   7.082  1.00  0.00    -0.359 OA
HETATM   25  H   UNL     1      41.613 -12.757   7.134  1.00  0.00     0.218 HD
ENDBRANCH  21  24
ENDBRANCH  12  13
BRANCH  12  26
HETATM   26  C   UNL     1      42.129 -14.098   4.719  1.00  0.00    -0.049 A 
HETATM   27  C   UNL     1      43.153 -15.065   4.659  1.00  0.00     0.008 A 
HETATM   28  C   UNL     1      42.916 -16.395   5.013  1.00  0.00     0.001 A 
HETATM   29  C   UNL     1      41.654 -16.785   5.444  1.00  0.00     0.000 A 
HETATM   30  C   UNL     1      40.635 -15.843   5.533  1.00  0.00     0.001 A 
HETATM   31  C   UNL     1      40.872 -14.511   5.181  1.00  0.00     0.008 A 
ENDBRANCH  12  26
ENDBRANCH  11  12
BRANCH  11  32
HETATM   32  C   UNL     1      41.573 -11.569   2.090  1.00  0.00     0.246 C 
BRANCH  32  33
HETATM   33  N   UNL     1      40.687 -12.306   1.095  1.00  0.00    -0.070 N 
HETATM   34  H   UNL     1      39.707 -12.260   1.449  1.00  0.00     0.279 HD
HETATM   35  C   UNL     1      40.735 -11.739  -0.302  1.00  0.00     0.235 C 
HETATM   36  C   UNL     1      39.804 -12.509  -1.227  1.00  0.00     0.028 C 
HETATM   37  C   UNL     1      40.100 -14.001  -1.219  1.00  0.00     0.003 C 
HETATM   38  C   UNL     1      40.057 -14.547   0.201  1.00  0.00     0.028 C 
HETATM   39  C   UNL     1      41.008 -13.791   1.115  1.00  0.00     0.235 C 
ENDBRANCH  32  33
ENDBRANCH  11  32
ENDBRANCH   9  11
ENDBRANCH   5   8
ENDBRANCH   1   4
TORSDOF 9
ENDMDL
MODEL 10
REMARK VINA RESULT:      -7.4      2.624      7.882
REMARK  9 active torsions:
REMARK  status: ('A' for Active; 'I' for Inactive)
REMARK    1  A    between atoms: C_2  and  C_3 
REMARK    2  A    between atoms: C_3  and  C_4 
REMARK    3  A    between atoms: C_3  and  C_23 
REMARK    4  A    between atoms: C_4  and  C_5 
REMARK    5  A    between atoms: C_4  and  C_17 
REMARK    6  A    between atoms: C_15  and  O_16 
REMARK    7  A    between atoms: C_23  and  N_24 
REMARK    8  A    between atoms: N_31  and  N_32 
REMARK       I    between atoms: N_32  and  C_33 
REMARK    9  A    between atoms: C_33  and  C_34 
ROOT
HETATM    1  C   UNL     1      41.004 -11.174  -0.891  1.00  0.00     0.213 C 
HETATM    2  C   UNL     1      39.607 -11.766  -0.984  1.00  0.00    -0.011 C 
HETATM    3  N   UNL     1      38.448 -12.259  -1.061  1.00  0.00    -0.101 N 
ENDROOT
BRANCH   1   4
HETATM    4  C   UNL     1      41.231 -10.600   0.493  1.00  0.00     0.249 C 
HETATM    5  N   UNL     1      40.363 -11.037   1.486  1.00  0.00    -0.246 N 
HETATM    6  H   UNL     1      39.561 -11.630   1.280  1.00  0.00     0.192 HD
HETATM    7  O   UNL     1      42.086  -9.734   0.703  1.00  0.00    -0.271 OA
BRANCH   5   8
HETATM    8  N   UNL     1      40.664 -10.750   2.778  1.00  0.00    -0.181 NA
HETATM    9  C   UNL     1      39.959 -11.278   3.730  1.00  0.00     0.035 C 
HETATM   10  C   UNL     1      38.779 -12.200   3.514  1.00  0.00     0.068 C 
BRANCH   9  11
HETATM   11  C   UNL     1      40.415 -11.023   5.166  1.00  0.00     0.074 C 
BRANCH  11  12
HETATM   12  C   UNL     1      41.401 -12.083   5.756  1.00  0.00     0.072 C 
BRANCH  12  13
HETATM   13  C   UNL     1      41.626 -13.379   4.970  1.00  0.00     0.061 C 
HETATM   14  C   UNL     1      40.923 -14.569   5.526  1.00  0.00     0.298 C 
HETATM   15  O   UNL     1      40.073 -14.423   6.408  1.00  0.00    -0.259 OA
HETATM   16  O   UNL     1      41.160 -15.812   4.976  1.00  0.00    -0.274 OA
HETATM   17  C   UNL     1      41.947 -15.953   3.825  1.00  0.00     0.092 A 
HETATM   18  C   UNL     1      42.535 -14.846   3.222  1.00  0.00     0.032 A 
HETATM   19  C   UNL     1      42.099 -17.243   3.315  1.00  0.00     0.038 A 
HETATM   20  C   UNL     1      43.315 -15.058   2.078  1.00  0.00     0.017 A 
HETATM   21  C   UNL     1      42.346 -13.535   3.846  1.00  0.00     0.091 C 
HETATM   22  C   UNL     1      43.476 -16.345   1.554  1.00  0.00     0.001 A 
HETATM   23  C   UNL     1      42.868 -17.436   2.171  1.00  0.00     0.003 A 
BRANCH  21  24
HETATM   24  O   UNL     1      42.929 -12.470   3.202  1.00  0.00    -0.359 OA
HETATM   25  H   UNL     1      43.868 -12.718   3.033  1.00  0.00     0.218 HD
ENDBRANCH  21  24
ENDBRANCH  12  13
BRANCH  12  26
HETATM   26  C   UNL     1      42.660 -11.516   6.423  1.00  0.00    -0.049 A 
HETATM   27  C   UNL     1      42.629 -10.204   6.935  1.00  0.00     0.008 A 
HETATM   28  C   UNL     1      43.750  -9.636   7.546  1.00  0.00     0.001 A 
HETATM   29  C   UNL     1      44.923 -10.371   7.666  1.00  0.00     0.000 A 
HETATM   30  C   UNL     1      44.970 -11.676   7.188  1.00  0.00     0.001 A 
HETATM   31  C   UNL     1      43.847 -12.245   6.579  1.00  0.00     0.008 A 
ENDBRANCH  12  26
ENDBRANCH  11  12
BRANCH  11  32
HETATM   32  C   UNL     1      39.115 -10.820   5.976  1.00  0.00     0.246 C 
BRANCH  32  33
HETATM   33  N   UNL     1      39.044  -9.521   6.765  1.00  0.00    -0.070 N 
HETATM   34  H   UNL     1      38.053  -9.198   6.755  1.00  0.00     0.279 HD
HETATM   35  C   UNL     1      39.510  -9.648   8.194  1.00  0.00     0.235 C 
HETATM   36  C   UNL     1      39.382  -8.318   8.922  1.00  0.00     0.028 C 
HETATM   37  C   UNL     1      40.112  -7.199   8.195  1.00  0.00     0.003 C 
HETATM   38  C   UNL     1      39.634  -7.097   6.753  1.00  0.00     0.028 C 
HETATM   39  C   UNL     1      39.789  -8.422   6.023  1.00  0.00     0.235 C 
ENDBRANCH  32  33
ENDBRANCH  11  32
ENDBRANCH   9  11
ENDBRANCH   5   8
ENDBRANCH   1   4
TORSDOF 9
ENDMDL
