MODEL 1
REMARK VINA RESULT:      -9.2      0.000      0.000
REMARK  8 active torsions:
REMARK  status: ('A' for Active; 'I' for Inactive)
REMARK    1  A    between atoms: C_7  and  C_8 
REMARK    2  A    between atoms: C_11  and  O_12 
REMARK    3  A    between atoms: O_12  and  C_13 
REMARK    4  A    between atoms: C_13  and  C_14 
REMARK       I    between atoms: C_14  and  N_15 
REMARK    5  A    between atoms: N_15  and  N_16 
REMARK       I    between atoms: N_16  and  C_17 
REMARK    6  A    between atoms: C_17  and  C_18 
REMARK    7  A    between atoms: C_18  and  N_19 
REMARK       I    between atoms: N_19  and  C_20 
REMARK    8  A    between atoms: C_20  and  C_21 
ROOT
HETATM    1  C   UNL     1      42.821  -7.105  14.747  1.00  0.00     0.023 A 
HETATM    2  C   UNL     1      41.779  -7.903  15.223  1.00  0.00     0.044 A 
HETATM    3  C   UNL     1      41.188  -7.632  16.501  1.00  0.00     0.099 C 
HETATM    4  N   UNL     1      40.710  -7.412  17.535  1.00  0.00    -0.191 NA
HETATM    5  C   UNL     1      41.318  -8.968  14.446  1.00  0.00     0.023 A 
HETATM    6  C   UNL     1      41.899  -9.232  13.200  1.00  0.00     0.014 A 
HETATM    7  C   UNL     1      42.948  -8.441  12.702  1.00  0.00    -0.026 A 
HETATM    8  C   UNL     1      43.397  -7.372  13.499  1.00  0.00     0.014 A 
ENDROOT
BRANCH   7   9
HETATM    9  C   UNL     1      43.561  -8.723  11.389  1.00  0.00    -0.026 A 
HETATM   10  C   UNL     1      44.350  -9.864  11.180  1.00  0.00     0.015 A 
HETATM   11  C   UNL     1      44.932 -10.125   9.935  1.00  0.00     0.037 A 
HETATM   12  C   UNL     1      44.734  -9.257   8.860  1.00  0.00     0.069 A 
HETATM   13  C   UNL     1      43.957  -8.115   9.049  1.00  0.00     0.037 A 
HETATM   14  C   UNL     1      43.380  -7.854  10.300  1.00  0.00     0.015 A 
BRANCH  12  15
HETATM   15  O   UNL     1      45.360  -9.621   7.700  1.00  0.00    -0.342 OA
BRANCH  15  16
HETATM   16  C   UNL     1      45.290 -10.998   7.346  1.00  0.00     0.280 C 
BRANCH  16  17
HETATM   17  C   UNL     1      44.110 -11.300   6.427  1.00  0.00     0.260 C 
HETATM   18  N   UNL     1      43.005 -11.838   7.056  1.00  0.00    -0.266 N 
HETATM   19  H   UNL     1      43.103 -12.222   7.997  1.00  0.00     0.190 HD
HETATM   20  O   UNL     1      44.159 -11.105   5.212  1.00  0.00    -0.269 OA
BRANCH  18  21
HETATM   21  N   UNL     1      42.015 -12.413   6.245  1.00  0.00    -0.266 N 
HETATM   22  C   UNL     1      40.818 -11.741   6.099  1.00  0.00     0.253 C 
HETATM   23  O   UNL     1      40.674 -10.554   6.394  1.00  0.00    -0.270 OA
HETATM   24  H   UNL     1      42.105 -13.409   6.040  1.00  0.00     0.190 HD
BRANCH  22  25
HETATM   25  C   UNL     1      39.717 -12.561   5.435  1.00  0.00     0.227 C 
BRANCH  25  26
HETATM   26  N   UNL     1      40.224 -13.856   5.032  1.00  0.00    -0.352 N 
HETATM   27  C   UNL     1      40.086 -14.286   3.730  1.00  0.00     0.222 C 
HETATM   28  O   UNL     1      39.565 -13.584   2.869  1.00  0.00    -0.273 OA
HETATM   29  H   UNL     1      40.389 -14.543   5.759  1.00  0.00     0.162 HD
BRANCH  27  30
HETATM   30  C   UNL     1      40.611 -15.703   3.481  1.00  0.00     0.078 C 
HETATM   31  C   UNL     1      40.732 -16.026   1.984  1.00  0.00     0.014 C 
HETATM   32  C   UNL     1      41.941 -15.372   1.316  1.00  0.00     0.001 C 
HETATM   33  C   UNL     1      43.234 -15.654   2.071  1.00  0.00     0.000 C 
HETATM   34  C   UNL     1      43.120 -15.264   3.539  1.00  0.00     0.001 C 
HETATM   35  C   UNL     1      41.937 -15.959   4.212  1.00  0.00     0.014 C 
ENDBRANCH  27  30
ENDBRANCH  25  26
ENDBRANCH  22  25
ENDBRANCH  18  21
ENDBRANCH  16  17
ENDBRANCH  15  16
ENDBRANCH  12  15
ENDBRANCH   7   9
TORSDOF 8
ENDMDL
MODEL 2
REMARK VINA RESULT:      -9.1      2.664      3.261
REMARK  8 active torsions:
REMARK  status: ('A' for Active; 'I' for Inactive)
REMARK    1  A    between atoms: C_7  and  C_8 
REMARK    2  A    between atoms: C_11  and  O_12 
REMARK    3  A    between atoms: O_12  and  C_13 
REMARK    4  A    between atoms: C_13  and  C_14 
REMARK       I    between atoms: C_14  and  N_15 
REMARK    5  A    between atoms: N_15  and  N_16 
REMARK       I    between atoms: N_16  and  C_17 
REMARK    6  A    between atoms: C_17  and  C_18 
REMARK    7  A    between atoms: C_18  and  N_19 
REMARK       I    between atoms: N_19  and  C_20 
REMARK    8  A    between atoms: C_20  and  C_21 
ROOT
HETATM    1  C   UNL     1      42.674  -6.755  14.464  1.00  0.00     0.023 A 
HETATM    2  C   UNL     1      41.860  -7.645  15.169  1.00  0.00     0.044 A 
HETATM    3  C   UNL     1      41.293  -7.261  16.429  1.00  0.00     0.099 C 
HETATM    4  N   UNL     1      40.834  -6.950  17.448  1.00  0.00    -0.191 NA
HETATM    5  C   UNL     1      41.606  -8.911  14.640  1.00  0.00     0.023 A 
HETATM    6  C   UNL     1      42.164  -9.284  13.411  1.00  0.00     0.014 A 
HETATM    7  C   UNL     1      42.984  -8.404  12.685  1.00  0.00    -0.026 A 
HETATM    8  C   UNL     1      43.227  -7.132  13.235  1.00  0.00     0.014 A 
ENDROOT
BRANCH   7   9
HETATM    9  C   UNL     1      43.574  -8.800  11.391  1.00  0.00    -0.026 A 
HETATM   10  C   UNL     1      43.440  -7.995  10.249  1.00  0.00     0.015 A 
HETATM   11  C   UNL     1      43.997  -8.378   9.024  1.00  0.00     0.037 A 
HETATM   12  C   UNL     1      44.713  -9.570   8.908  1.00  0.00     0.069 A 
HETATM   13  C   UNL     1      44.853 -10.385  10.030  1.00  0.00     0.037 A 
HETATM   14  C   UNL     1      44.288 -10.002  11.255  1.00  0.00     0.015 A 
BRANCH  12  15
HETATM   15  O   UNL     1      45.203  -9.831   7.657  1.00  0.00    -0.342 OA
BRANCH  15  16
HETATM   16  C   UNL     1      45.514 -11.190   7.369  1.00  0.00     0.280 C 
BRANCH  16  17
HETATM   17  C   UNL     1      44.312 -11.956   6.824  1.00  0.00     0.260 C 
HETATM   18  N   UNL     1      44.441 -13.330   6.838  1.00  0.00    -0.266 N 
HETATM   19  H   UNL     1      45.366 -13.743   6.966  1.00  0.00     0.190 HD
HETATM   20  O   UNL     1      43.317 -11.382   6.377  1.00  0.00    -0.269 OA
BRANCH  18  21
HETATM   21  N   UNL     1      43.520 -14.074   6.087  1.00  0.00    -0.266 N 
HETATM   22  C   UNL     1      42.843 -15.101   6.713  1.00  0.00     0.253 C 
HETATM   23  O   UNL     1      42.782 -15.217   7.938  1.00  0.00    -0.270 OA
HETATM   24  H   UNL     1      43.600 -14.019   5.070  1.00  0.00     0.190 HD
BRANCH  22  25
HETATM   25  C   UNL     1      42.080 -16.019   5.763  1.00  0.00     0.227 C 
BRANCH  25  26
HETATM   26  N   UNL     1      42.999 -16.714   4.885  1.00  0.00    -0.352 N 
HETATM   27  C   UNL     1      43.538 -17.926   5.258  1.00  0.00     0.222 C 
HETATM   28  O   UNL     1      43.240 -18.470   6.317  1.00  0.00    -0.273 OA
HETATM   29  H   UNL     1      43.465 -16.171   4.169  1.00  0.00     0.162 HD
BRANCH  27  30
HETATM   30  C   UNL     1      44.544 -18.497   4.253  1.00  0.00     0.078 C 
HETATM   31  C   UNL     1      44.709 -20.018   4.393  1.00  0.00     0.014 C 
HETATM   32  C   UNL     1      43.545 -20.814   3.805  1.00  0.00     0.001 C 
HETATM   33  C   UNL     1      43.234 -20.399   2.372  1.00  0.00     0.000 C 
HETATM   34  C   UNL     1      43.005 -18.897   2.262  1.00  0.00     0.001 C 
HETATM   35  C   UNL     1      44.194 -18.109   2.809  1.00  0.00     0.014 C 
ENDBRANCH  27  30
ENDBRANCH  25  26
ENDBRANCH  22  25
ENDBRANCH  18  21
ENDBRANCH  16  17
ENDBRANCH  15  16
ENDBRANCH  12  15
ENDBRANCH   7   9
TORSDOF 8
ENDMDL
MODEL 3
REMARK VINA RESULT:      -8.9      2.008      2.633
REMARK  8 active torsions:
REMARK  status: ('A' for Active; 'I' for Inactive)
REMARK    1  A    between atoms: C_7  and  C_8 
REMARK    2  A    between atoms: C_11  and  O_12 
REMARK    3  A    between atoms: O_12  and  C_13 
REMARK    4  A    between atoms: C_13  and  C_14 
REMARK       I    between atoms: C_14  and  N_15 
REMARK    5  A    between atoms: N_15  and  N_16 
REMARK       I    between atoms: N_16  and  C_17 
REMARK    6  A    between atoms: C_17  and  C_18 
REMARK    7  A    between atoms: C_18  and  N_19 
REMARK       I    between atoms: N_19  and  C_20 
REMARK    8  A    between atoms: C_20  and  C_21 
ROOT
HETATM    1  C   UNL     1      42.457  -6.399  15.481  1.00  0.00     0.023 A 
HETATM    2  C   UNL     1      41.366  -6.922  16.178  1.00  0.00     0.044 A 
HETATM    3  C   UNL     1      40.825  -6.220  17.304  1.00  0.00     0.099 C 
HETATM    4  N   UNL     1      40.388  -5.651  18.216  1.00  0.00    -0.191 NA
HETATM    5  C   UNL     1      40.807  -8.135  15.770  1.00  0.00     0.023 A 
HETATM    6  C   UNL     1      41.339  -8.820  14.672  1.00  0.00     0.014 A 
HETATM    7  C   UNL     1      42.436  -8.311  13.956  1.00  0.00    -0.026 A 
HETATM    8  C   UNL     1      42.984  -7.087  14.381  1.00  0.00     0.014 A 
ENDROOT
BRANCH   7   9
HETATM    9  C   UNL     1      42.998  -9.036  12.799  1.00  0.00    -0.026 A 
HETATM   10  C   UNL     1      43.555  -8.353  11.708  1.00  0.00     0.015 A 
HETATM   11  C   UNL     1      44.082  -9.046  10.612  1.00  0.00     0.037 A 
HETATM   12  C   UNL     1      44.076 -10.441  10.581  1.00  0.00     0.069 A 
HETATM   13  C   UNL     1      43.523 -11.137  11.655  1.00  0.00     0.037 A 
HETATM   14  C   UNL     1      42.990 -10.440  12.748  1.00  0.00     0.015 A 
BRANCH  12  15
HETATM   15  O   UNL     1      44.617 -10.997   9.454  1.00  0.00    -0.342 OA
BRANCH  15  16
HETATM   16  C   UNL     1      44.190 -10.451   8.210  1.00  0.00     0.280 C 
BRANCH  16  17
HETATM   17  C   UNL     1      43.937 -11.530   7.161  1.00  0.00     0.260 C 
HETATM   18  N   UNL     1      43.690 -11.059   5.887  1.00  0.00    -0.266 N 
HETATM   19  H   UNL     1      43.451 -10.074   5.758  1.00  0.00     0.190 HD
HETATM   20  O   UNL     1      43.925 -12.729   7.444  1.00  0.00    -0.269 OA
BRANCH  18  21
HETATM   21  N   UNL     1      43.158 -11.961   4.955  1.00  0.00    -0.266 N 
HETATM   22  C   UNL     1      43.739 -12.027   3.705  1.00  0.00     0.253 C 
HETATM   23  O   UNL     1      44.853 -11.563   3.456  1.00  0.00    -0.270 OA
HETATM   24  H   UNL     1      42.214 -12.309   5.133  1.00  0.00     0.190 HD
BRANCH  22  25
HETATM   25  C   UNL     1      42.934 -12.822   2.682  1.00  0.00     0.227 C 
BRANCH  25  26
HETATM   26  N   UNL     1      42.496 -14.080   3.250  1.00  0.00    -0.352 N 
HETATM   27  C   UNL     1      42.702 -15.262   2.572  1.00  0.00     0.222 C 
HETATM   28  O   UNL     1      43.284 -15.296   1.493  1.00  0.00    -0.273 OA
HETATM   29  H   UNL     1      41.785 -14.047   3.971  1.00  0.00     0.162 HD
BRANCH  27  30
HETATM   30  C   UNL     1      42.120 -16.494   3.273  1.00  0.00     0.078 C 
HETATM   31  C   UNL     1      42.628 -17.808   2.661  1.00  0.00     0.014 C 
HETATM   32  C   UNL     1      44.061 -18.154   3.064  1.00  0.00     0.001 C 
HETATM   33  C   UNL     1      44.257 -18.110   4.575  1.00  0.00     0.000 C 
HETATM   34  C   UNL     1      43.812 -16.774   5.157  1.00  0.00     0.001 C 
HETATM   35  C   UNL     1      42.363 -16.458   4.789  1.00  0.00     0.014 C 
ENDBRANCH  27  30
ENDBRANCH  25  26
ENDBRANCH  22  25
ENDBRANCH  18  21
ENDBRANCH  16  17
ENDBRANCH  15  16
ENDBRANCH  12  15
ENDBRANCH   7   9
TORSDOF 8
ENDMDL
MODEL 4
REMARK VINA RESULT:      -8.8      3.358     11.246
REMARK  8 active torsions:
REMARK  status: ('A' for Active; 'I' for Inactive)
REMARK    1  A    between atoms: C_7  and  C_8 
REMARK    2  A    between atoms: C_11  and  O_12 
REMARK    3  A    between atoms: O_12  and  C_13 
REMARK    4  A    between atoms: C_13  and  C_14 
REMARK       I    between atoms: C_14  and  N_15 
REMARK    5  A    between atoms: N_15  and  N_16 
REMARK       I    between atoms: N_16  and  C_17 
REMARK    6  A    between atoms: C_17  and  C_18 
REMARK    7  A    between atoms: C_18  and  N_19 
REMARK       I    between atoms: N_19  and  C_20 
REMARK    8  A    between atoms: C_20  and  C_21 
ROOT
HETATM    1  C   UNL     1      42.911 -17.617   2.233  1.00  0.00     0.023 A 
HETATM    2  C   UNL     1      43.554 -18.667   2.891  1.00  0.00     0.044 A 
HETATM    3  C   UNL     1      43.661 -19.953   2.266  1.00  0.00     0.099 C 
HETATM    4  N   UNL     1      43.747 -20.993   1.760  1.00  0.00    -0.191 NA
HETATM    5  C   UNL     1      44.091 -18.456   4.162  1.00  0.00     0.023 A 
HETATM    6  C   UNL     1      43.983 -17.199   4.771  1.00  0.00     0.014 A 
HETATM    7  C   UNL     1      43.340 -16.129   4.126  1.00  0.00    -0.026 A 
HETATM    8  C   UNL     1      42.807 -16.362   2.845  1.00  0.00     0.014 A 
ENDROOT
BRANCH   7   9
HETATM    9  C   UNL     1      43.224 -14.806   4.771  1.00  0.00    -0.026 A 
HETATM   10  C   UNL     1      42.857 -13.666   4.040  1.00  0.00     0.015 A 
HETATM   11  C   UNL     1      42.753 -12.414   4.656  1.00  0.00     0.037 A 
HETATM   12  C   UNL     1      43.003 -12.268   6.021  1.00  0.00     0.069 A 
HETATM   13  C   UNL     1      43.373 -13.388   6.763  1.00  0.00     0.037 A 
HETATM   14  C   UNL     1      43.483 -14.641   6.142  1.00  0.00     0.015 A 
BRANCH  12  15
HETATM   15  O   UNL     1      42.871 -10.993   6.500  1.00  0.00    -0.342 OA
BRANCH  15  16
HETATM   16  C   UNL     1      44.048 -10.388   7.025  1.00  0.00     0.280 C 
BRANCH  16  17
HETATM   17  C   UNL     1      43.819  -9.780   8.406  1.00  0.00     0.260 C 
HETATM   18  N   UNL     1      43.154 -10.597   9.300  1.00  0.00    -0.266 N 
HETATM   19  H   UNL     1      42.655 -11.416   8.950  1.00  0.00     0.190 HD
HETATM   20  O   UNL     1      44.175  -8.634   8.686  1.00  0.00    -0.269 OA
BRANCH  18  21
HETATM   21  N   UNL     1      42.650 -10.005  10.466  1.00  0.00    -0.266 N 
HETATM   22  C   UNL     1      43.049 -10.515  11.684  1.00  0.00     0.253 C 
HETATM   23  O   UNL     1      44.026 -11.255  11.815  1.00  0.00    -0.270 OA
HETATM   24  H   UNL     1      41.810  -9.431  10.368  1.00  0.00     0.190 HD
BRANCH  22  25
HETATM   25  C   UNL     1      42.247  -9.998  12.874  1.00  0.00     0.227 C 
BRANCH  25  26
HETATM   26  N   UNL     1      41.689  -8.694  12.578  1.00  0.00    -0.352 N 
HETATM   27  C   UNL     1      40.333  -8.544  12.379  1.00  0.00     0.222 C 
HETATM   28  O   UNL     1      39.556  -9.489  12.475  1.00  0.00    -0.273 OA
HETATM   29  H   UNL     1      42.317  -7.985  12.221  1.00  0.00     0.162 HD
BRANCH  27  30
HETATM   30  C   UNL     1      39.911  -7.119  12.007  1.00  0.00     0.078 C 
HETATM   31  C   UNL     1      38.389  -6.985  11.845  1.00  0.00     0.014 C 
HETATM   32  C   UNL     1      37.636  -6.950  13.174  1.00  0.00     0.001 C 
HETATM   33  C   UNL     1      38.207  -5.908  14.128  1.00  0.00     0.000 C 
HETATM   34  C   UNL     1      39.705  -6.096  14.331  1.00  0.00     0.001 C 
HETATM   35  C   UNL     1      40.456  -6.083  13.001  1.00  0.00     0.014 C 
ENDBRANCH  27  30
ENDBRANCH  25  26
ENDBRANCH  22  25
ENDBRANCH  18  21
ENDBRANCH  16  17
ENDBRANCH  15  16
ENDBRANCH  12  15
ENDBRANCH   7   9
TORSDOF 8
ENDMDL
MODEL 5
REMARK VINA RESULT:      -8.7      2.860     11.175
REMARK  8 active torsions:
REMARK  status: ('A' for Active; 'I' for Inactive)
REMARK    1  A    between atoms: C_7  and  C_8 
REMARK    2  A    between atoms: C_11  and  O_12 
REMARK    3  A    between atoms: O_12  and  C_13 
REMARK    4  A    between atoms: C_13  and  C_14 
REMARK       I    between atoms: C_14  and  N_15 
REMARK    5  A    between atoms: N_15  and  N_16 
REMARK       I    between atoms: N_16  and  C_17 
REMARK    6  A    between atoms: C_17  and  C_18 
REMARK    7  A    between atoms: C_18  and  N_19 
REMARK       I    between atoms: N_19  and  C_20 
REMARK    8  A    between atoms: C_20  and  C_21 
ROOT
HETATM    1  C   UNL     1      43.698 -18.103   4.169  1.00  0.00     0.023 A 
HETATM    2  C   UNL     1      43.538 -18.478   2.833  1.00  0.00     0.044 A 
HETATM    3  C   UNL     1      43.724 -19.843   2.439  1.00  0.00     0.099 C 
HETATM    4  N   UNL     1      43.875 -20.949   2.121  1.00  0.00    -0.191 NA
HETATM    5  C   UNL     1      43.199 -17.511   1.884  1.00  0.00     0.023 A 
HETATM    6  C   UNL     1      43.021 -16.178   2.271  1.00  0.00     0.014 A 
HETATM    7  C   UNL     1      43.176 -15.780   3.610  1.00  0.00    -0.026 A 
HETATM    8  C   UNL     1      43.516 -16.768   4.551  1.00  0.00     0.014 A 
ENDROOT
BRANCH   7   9
HETATM    9  C   UNL     1      42.991 -14.373   4.016  1.00  0.00    -0.026 A 
HETATM   10  C   UNL     1      42.902 -13.344   3.066  1.00  0.00     0.015 A 
HETATM   11  C   UNL     1      42.731 -12.011   3.456  1.00  0.00     0.037 A 
HETATM   12  C   UNL     1      42.634 -11.670   4.806  1.00  0.00     0.069 A 
HETATM   13  C   UNL     1      42.723 -12.679   5.765  1.00  0.00     0.037 A 
HETATM   14  C   UNL     1      42.901 -14.012   5.371  1.00  0.00     0.015 A 
BRANCH  12  15
HETATM   15  O   UNL     1      42.472 -10.335   5.056  1.00  0.00    -0.342 OA
BRANCH  15  16
HETATM   16  C   UNL     1      41.334  -9.966   5.827  1.00  0.00     0.280 C 
BRANCH  16  17
HETATM   17  C   UNL     1      41.702  -9.608   7.265  1.00  0.00     0.260 C 
HETATM   18  N   UNL     1      43.046  -9.377   7.483  1.00  0.00    -0.266 N 
HETATM   19  H   UNL     1      43.724  -9.681   6.782  1.00  0.00     0.190 HD
HETATM   20  O   UNL     1      40.861  -9.560   8.164  1.00  0.00    -0.269 OA
BRANCH  18  21
HETATM   21  N   UNL     1      43.489  -9.342   8.812  1.00  0.00    -0.266 N 
HETATM   22  C   UNL     1      44.009 -10.499   9.358  1.00  0.00     0.253 C 
HETATM   23  O   UNL     1      44.369 -11.460   8.677  1.00  0.00    -0.270 OA
HETATM   24  H   UNL     1      43.152  -8.573   9.393  1.00  0.00     0.190 HD
BRANCH  22  25
HETATM   25  C   UNL     1      44.205 -10.444  10.870  1.00  0.00     0.227 C 
BRANCH  25  26
HETATM   26  N   UNL     1      43.932  -9.112  11.367  1.00  0.00    -0.352 N 
HETATM   27  C   UNL     1      43.104  -8.929  12.454  1.00  0.00     0.222 C 
HETATM   28  O   UNL     1      42.600  -9.875  13.051  1.00  0.00    -0.273 OA
HETATM   29  H   UNL     1      44.094  -8.334  10.739  1.00  0.00     0.162 HD
BRANCH  27  30
HETATM   30  C   UNL     1      42.860  -7.459  12.812  1.00  0.00     0.078 C 
HETATM   31  C   UNL     1      41.532  -6.933  12.246  1.00  0.00     0.014 C 
HETATM   32  C   UNL     1      40.306  -7.412  13.023  1.00  0.00     0.001 C 
HETATM   33  C   UNL     1      40.438  -7.149  14.518  1.00  0.00     0.000 C 
HETATM   34  C   UNL     1      41.728  -7.737  15.078  1.00  0.00     0.001 C 
HETATM   35  C   UNL     1      42.952  -7.216  14.325  1.00  0.00     0.014 C 
ENDBRANCH  27  30
ENDBRANCH  25  26
ENDBRANCH  22  25
ENDBRANCH  18  21
ENDBRANCH  16  17
ENDBRANCH  15  16
ENDBRANCH  12  15
ENDBRANCH   7   9
TORSDOF 8
ENDMDL
MODEL 6
REMARK VINA RESULT:      -8.6      3.229     11.047
REMARK  8 active torsions:
REMARK  status: ('A' for Active; 'I' for Inactive)
REMARK    1  A    between atoms: C_7  and  C_8 
REMARK    2  A    between atoms: C_11  and  O_12 
REMARK    3  A    between atoms: O_12  and  C_13 
REMARK    4  A    between atoms: C_13  and  C_14 
REMARK       I    between atoms: C_14  and  N_15 
REMARK    5  A    between atoms: N_15  and  N_16 
REMARK       I    between atoms: N_16  and  C_17 
REMARK    6  A    between atoms: C_17  and  C_18 
REMARK    7  A    between atoms: C_18  and  N_19 
REMARK       I    between atoms: N_19  and  C_20 
REMARK    8  A    between atoms: C_20  and  C_21 
ROOT
HETATM    1  C   UNL     1      43.956 -18.140   4.268  1.00  0.00     0.023 A 
HETATM    2  C   UNL     1      43.496 -18.656   3.055  1.00  0.00     0.044 A 
HETATM    3  C   UNL     1      43.794 -20.009   2.686  1.00  0.00     0.099 C 
HETATM    4  N   UNL     1      44.036 -21.104   2.388  1.00  0.00    -0.191 NA
HETATM    5  C   UNL     1      42.746 -17.843   2.202  1.00  0.00     0.023 A 
HETATM    6  C   UNL     1      42.459 -16.522   2.563  1.00  0.00     0.014 A 
HETATM    7  C   UNL     1      42.911 -15.983   3.780  1.00  0.00    -0.026 A 
HETATM    8  C   UNL     1      43.664 -16.818   4.626  1.00  0.00     0.014 A 
ENDROOT
BRANCH   7   9
HETATM    9  C   UNL     1      42.610 -14.588   4.158  1.00  0.00    -0.026 A 
HETATM   10  C   UNL     1      42.692 -14.157   5.491  1.00  0.00     0.015 A 
HETATM   11  C   UNL     1      42.401 -12.835   5.844  1.00  0.00     0.037 A 
HETATM   12  C   UNL     1      42.031 -11.903   4.873  1.00  0.00     0.069 A 
HETATM   13  C   UNL     1      41.941 -12.313   3.544  1.00  0.00     0.037 A 
HETATM   14  C   UNL     1      42.226 -13.641   3.194  1.00  0.00     0.015 A 
BRANCH  12  15
HETATM   15  O   UNL     1      41.769 -10.647   5.347  1.00  0.00    -0.342 OA
BRANCH  15  16
HETATM   16  C   UNL     1      40.427 -10.190   5.226  1.00  0.00     0.280 C 
BRANCH  16  17
HETATM   17  C   UNL     1      39.571 -10.581   6.427  1.00  0.00     0.260 C 
HETATM   18  N   UNL     1      39.797  -9.839   7.570  1.00  0.00    -0.266 N 
HETATM   19  H   UNL     1      40.642  -9.270   7.637  1.00  0.00     0.190 HD
HETATM   20  O   UNL     1      38.764 -11.511   6.383  1.00  0.00    -0.269 OA
BRANCH  18  21
HETATM   21  N   UNL     1      39.276 -10.333   8.775  1.00  0.00    -0.266 N 
HETATM   22  C   UNL     1      39.511  -9.616   9.931  1.00  0.00     0.253 C 
HETATM   23  O   UNL     1      39.892  -8.444   9.928  1.00  0.00    -0.270 OA
HETATM   24  H   UNL     1      39.006 -11.317   8.794  1.00  0.00     0.190 HD
BRANCH  22  25
HETATM   25  C   UNL     1      39.152 -10.359  11.213  1.00  0.00     0.227 C 
BRANCH  25  26
HETATM   26  N   UNL     1      40.263 -10.335  12.140  1.00  0.00    -0.352 N 
HETATM   27  C   UNL     1      40.317  -9.389  13.141  1.00  0.00     0.222 C 
HETATM   28  O   UNL     1      39.423  -8.564  13.301  1.00  0.00    -0.273 OA
HETATM   29  H   UNL     1      41.119 -10.800  11.860  1.00  0.00     0.162 HD
BRANCH  27  30
HETATM   30  C   UNL     1      41.590  -9.453  13.992  1.00  0.00     0.078 C 
HETATM   31  C   UNL     1      42.862  -9.531  13.135  1.00  0.00     0.014 C 
HETATM   32  C   UNL     1      43.253  -8.196  12.502  1.00  0.00     0.001 C 
HETATM   33  C   UNL     1      43.321  -7.073  13.530  1.00  0.00     0.000 C 
HETATM   34  C   UNL     1      42.026  -6.964  14.325  1.00  0.00     0.001 C 
HETATM   35  C   UNL     1      41.667  -8.291  14.993  1.00  0.00     0.014 C 
ENDBRANCH  27  30
ENDBRANCH  25  26
ENDBRANCH  22  25
ENDBRANCH  18  21
ENDBRANCH  16  17
ENDBRANCH  15  16
ENDBRANCH  12  15
ENDBRANCH   7   9
TORSDOF 8
ENDMDL
MODEL 7
REMARK VINA RESULT:      -8.5      3.198     11.474
REMARK  8 active torsions:
REMARK  status: ('A' for Active; 'I' for Inactive)
REMARK    1  A    between atoms: C_7  and  C_8 
REMARK    2  A    between atoms: C_11  and  O_12 
REMARK    3  A    between atoms: O_12  and  C_13 
REMARK    4  A    between atoms: C_13  and  C_14 
REMARK       I    between atoms: C_14  and  N_15 
REMARK    5  A    between atoms: N_15  and  N_16 
REMARK       I    between atoms: N_16  and  C_17 
REMARK    6  A    between atoms: C_17  and  C_18 
REMARK    7  A    between atoms: C_18  and  N_19 
REMARK       I    between atoms: N_19  and  C_20 
REMARK    8  A    between atoms: C_20  and  C_21 
ROOT
HETATM    1  C   UNL     1      44.034 -18.417   4.217  1.00  0.00     0.023 A 
HETATM    2  C   UNL     1      43.567 -18.607   2.915  1.00  0.00     0.044 A 
HETATM    3  C   UNL     1      43.674 -19.892   2.290  1.00  0.00     0.099 C 
HETATM    4  N   UNL     1      43.761 -20.933   1.785  1.00  0.00    -0.191 NA
HETATM    5  C   UNL     1      42.997 -17.535   2.225  1.00  0.00     0.023 A 
HETATM    6  C   UNL     1      42.896 -16.279   2.837  1.00  0.00     0.014 A 
HETATM    7  C   UNL     1      43.359 -16.067   4.147  1.00  0.00    -0.026 A 
HETATM    8  C   UNL     1      43.929 -17.160   4.825  1.00  0.00     0.014 A 
ENDROOT
BRANCH   7   9
HETATM    9  C   UNL     1      43.255 -14.742   4.789  1.00  0.00    -0.026 A 
HETATM   10  C   UNL     1      42.816 -13.616   4.076  1.00  0.00     0.015 A 
HETATM   11  C   UNL     1      42.723 -12.361   4.689  1.00  0.00     0.037 A 
HETATM   12  C   UNL     1      43.056 -12.199   6.034  1.00  0.00     0.069 A 
HETATM   13  C   UNL     1      43.498 -13.305   6.758  1.00  0.00     0.037 A 
HETATM   14  C   UNL     1      43.596 -14.559   6.140  1.00  0.00     0.015 A 
BRANCH  12  15
HETATM   15  O   UNL     1      42.927 -10.923   6.512  1.00  0.00    -0.342 OA
BRANCH  15  16
HETATM   16  C   UNL     1      43.993 -10.437   7.320  1.00  0.00     0.280 C 
BRANCH  16  17
HETATM   17  C   UNL     1      43.493  -9.610   8.501  1.00  0.00     0.260 C 
HETATM   18  N   UNL     1      42.665 -10.285   9.376  1.00  0.00    -0.266 N 
HETATM   19  H   UNL     1      42.245 -11.169   9.084  1.00  0.00     0.190 HD
HETATM   20  O   UNL     1      43.786  -8.422   8.640  1.00  0.00    -0.269 OA
BRANCH  18  21
HETATM   21  N   UNL     1      41.937  -9.520  10.299  1.00  0.00    -0.266 N 
HETATM   22  C   UNL     1      40.654  -9.137   9.963  1.00  0.00     0.253 C 
HETATM   23  O   UNL     1      40.016  -9.658   9.048  1.00  0.00    -0.270 OA
HETATM   24  H   UNL     1      42.470  -9.046  11.030  1.00  0.00     0.190 HD
BRANCH  22  25
HETATM   25  C   UNL     1      40.050  -8.090  10.893  1.00  0.00     0.227 C 
BRANCH  25  26
HETATM   26  N   UNL     1      41.056  -7.578  11.800  1.00  0.00    -0.352 N 
HETATM   27  C   UNL     1      40.857  -6.387  12.463  1.00  0.00     0.222 C 
HETATM   28  O   UNL     1      39.821  -5.741  12.337  1.00  0.00    -0.273 OA
HETATM   29  H   UNL     1      42.001  -7.931  11.700  1.00  0.00     0.162 HD
BRANCH  27  30
HETATM   30  C   UNL     1      42.042  -5.949  13.330  1.00  0.00     0.078 C 
HETATM   31  C   UNL     1      41.604  -5.093  14.528  1.00  0.00     0.014 C 
HETATM   32  C   UNL     1      40.972  -5.906  15.658  1.00  0.00     0.001 C 
HETATM   33  C   UNL     1      41.849  -7.079  16.079  1.00  0.00     0.000 C 
HETATM   34  C   UNL     1      42.218  -7.956  14.889  1.00  0.00     0.001 C 
HETATM   35  C   UNL     1      42.892  -7.145  13.783  1.00  0.00     0.014 C 
ENDBRANCH  27  30
ENDBRANCH  25  26
ENDBRANCH  22  25
ENDBRANCH  18  21
ENDBRANCH  16  17
ENDBRANCH  15  16
ENDBRANCH  12  15
ENDBRANCH   7   9
TORSDOF 8
ENDMDL
MODEL 8
REMARK VINA RESULT:      -8.3      3.631     11.507
REMARK  8 active torsions:
REMARK  status: ('A' for Active; 'I' for Inactive)
REMARK    1  A    between atoms: C_7  and  C_8 
REMARK    2  A    between atoms: C_11  and  O_12 
REMARK    3  A    between atoms: O_12  and  C_13 
REMARK    4  A    between atoms: C_13  and  C_14 
REMARK       I    between atoms: C_14  and  N_15 
REMARK    5  A    between atoms: N_15  and  N_16 
REMARK       I    between atoms: N_16  and  C_17 
REMARK    6  A    between atoms: C_17  and  C_18 
REMARK    7  A    between atoms: C_18  and  N_19 
REMARK       I    between atoms: N_19  and  C_20 
REMARK    8  A    between atoms: C_20  and  C_21 
ROOT
HETATM    1  C   UNL     1      44.068 -18.502   4.170  1.00  0.00     0.023 A 
HETATM    2  C   UNL     1      43.509 -18.632   2.897  1.00  0.00     0.044 A 
HETATM    3  C   UNL     1      43.598 -19.877   2.193  1.00  0.00     0.099 C 
HETATM    4  N   UNL     1      43.671 -20.885   1.623  1.00  0.00    -0.191 NA
HETATM    5  C   UNL     1      42.864 -17.539   2.315  1.00  0.00     0.023 A 
HETATM    6  C   UNL     1      42.780 -16.323   3.005  1.00  0.00     0.014 A 
HETATM    7  C   UNL     1      43.336 -16.172   4.287  1.00  0.00    -0.026 A 
HETATM    8  C   UNL     1      43.979 -17.285   4.856  1.00  0.00     0.014 A 
ENDROOT
BRANCH   7   9
HETATM    9  C   UNL     1      43.249 -14.888   5.011  1.00  0.00    -0.026 A 
HETATM   10  C   UNL     1      42.779 -13.725   4.383  1.00  0.00     0.015 A 
HETATM   11  C   UNL     1      42.703 -12.509   5.073  1.00  0.00     0.037 A 
HETATM   12  C   UNL     1      43.086 -12.425   6.412  1.00  0.00     0.069 A 
HETATM   13  C   UNL     1      43.559 -13.570   7.052  1.00  0.00     0.037 A 
HETATM   14  C   UNL     1      43.640 -14.784   6.356  1.00  0.00     0.015 A 
BRANCH  12  15
HETATM   15  O   UNL     1      42.968 -11.182   6.970  1.00  0.00    -0.342 OA
BRANCH  15  16
HETATM   16  C   UNL     1      44.180 -10.539   7.348  1.00  0.00     0.280 C 
BRANCH  16  17
HETATM   17  C   UNL     1      44.101  -9.931   8.746  1.00  0.00     0.260 C 
HETATM   18  N   UNL     1      43.284 -10.606   9.630  1.00  0.00    -0.266 N 
HETATM   19  H   UNL     1      42.615 -11.289   9.269  1.00  0.00     0.190 HD
HETATM   20  O   UNL     1      44.701  -8.897   9.046  1.00  0.00    -0.269 OA
BRANCH  18  21
HETATM   21  N   UNL     1      42.930  -9.948  10.816  1.00  0.00    -0.266 N 
HETATM   22  C   UNL     1      41.721  -9.282  10.860  1.00  0.00     0.253 C 
HETATM   23  O   UNL     1      40.822  -9.469  10.038  1.00  0.00    -0.270 OA
HETATM   24  H   UNL     1      43.683  -9.747  11.477  1.00  0.00     0.190 HD
BRANCH  22  25
HETATM   25  C   UNL     1      41.549  -8.377  12.075  1.00  0.00     0.227 C 
BRANCH  25  26
HETATM   26  N   UNL     1      41.244  -7.024  11.658  1.00  0.00    -0.352 N 
HETATM   27  C   UNL     1      41.224  -5.998  12.577  1.00  0.00     0.222 C 
HETATM   28  O   UNL     1      41.491  -6.183  13.761  1.00  0.00    -0.273 OA
HETATM   29  H   UNL     1      40.756  -6.903  10.778  1.00  0.00     0.162 HD
BRANCH  27  30
HETATM   30  C   UNL     1      40.817  -4.642  11.991  1.00  0.00     0.078 C 
HETATM   31  C   UNL     1      41.242  -3.468  12.886  1.00  0.00     0.014 C 
HETATM   32  C   UNL     1      42.734  -3.149  12.804  1.00  0.00     0.001 C 
HETATM   33  C   UNL     1      43.203  -2.973  11.365  1.00  0.00     0.000 C 
HETATM   34  C   UNL     1      42.834  -4.176  10.506  1.00  0.00     0.001 C 
HETATM   35  C   UNL     1      41.333  -4.460  10.557  1.00  0.00     0.014 C 
ENDBRANCH  27  30
ENDBRANCH  25  26
ENDBRANCH  22  25
ENDBRANCH  18  21
ENDBRANCH  16  17
ENDBRANCH  15  16
ENDBRANCH  12  15
ENDBRANCH   7   9
TORSDOF 8
ENDMDL
MODEL 9
REMARK VINA RESULT:      -8.2      3.189     11.333
REMARK  8 active torsions:
REMARK  status: ('A' for Active; 'I' for Inactive)
REMARK    1  A    between atoms: C_7  and  C_8 
REMARK    2  A    between atoms: C_11  and  O_12 
REMARK    3  A    between atoms: O_12  and  C_13 
REMARK    4  A    between atoms: C_13  and  C_14 
REMARK       I    between atoms: C_14  and  N_15 
REMARK    5  A    between atoms: N_15  and  N_16 
REMARK       I    between atoms: N_16  and  C_17 
REMARK    6  A    between atoms: C_17  and  C_18 
REMARK    7  A    between atoms: C_18  and  N_19 
REMARK       I    between atoms: N_19  and  C_20 
REMARK    8  A    between atoms: C_20  and  C_21 
ROOT
HETATM    1  C   UNL     1      43.907 -18.320   4.092  1.00  0.00     0.023 A 
HETATM    2  C   UNL     1      43.442 -18.756   2.849  1.00  0.00     0.044 A 
HETATM    3  C   UNL     1      43.790 -20.061   2.366  1.00  0.00     0.099 C 
HETATM    4  N   UNL     1      44.071 -21.116   1.975  1.00  0.00    -0.191 NA
HETATM    5  C   UNL     1      42.639 -17.912   2.080  1.00  0.00     0.023 A 
HETATM    6  C   UNL     1      42.304 -16.638   2.554  1.00  0.00     0.014 A 
HETATM    7  C   UNL     1      42.760 -16.180   3.802  1.00  0.00    -0.026 A 
HETATM    8  C   UNL     1      43.567 -17.046   4.562  1.00  0.00     0.014 A 
ENDROOT
BRANCH   7   9
HETATM    9  C   UNL     1      42.409 -14.834   4.298  1.00  0.00    -0.026 A 
HETATM   10  C   UNL     1      43.015 -14.295   5.443  1.00  0.00     0.015 A 
HETATM   11  C   UNL     1      42.674 -13.021   5.911  1.00  0.00     0.037 A 
HETATM   12  C   UNL     1      41.726 -12.246   5.242  1.00  0.00     0.069 A 
HETATM   13  C   UNL     1      41.110 -12.766   4.104  1.00  0.00     0.037 A 
HETATM   14  C   UNL     1      41.449 -14.045   3.641  1.00  0.00     0.015 A 
BRANCH  12  15
HETATM   15  O   UNL     1      41.480 -11.022   5.802  1.00  0.00    -0.342 OA
BRANCH  15  16
HETATM   16  C   UNL     1      42.604 -10.328   6.330  1.00  0.00     0.280 C 
BRANCH  16  17
HETATM   17  C   UNL     1      42.275  -9.597   7.629  1.00  0.00     0.260 C 
HETATM   18  N   UNL     1      41.328  -8.598   7.512  1.00  0.00    -0.266 N 
HETATM   19  H   UNL     1      41.090  -8.243   6.584  1.00  0.00     0.190 HD
HETATM   20  O   UNL     1      42.838  -9.863   8.692  1.00  0.00    -0.269 OA
BRANCH  18  21
HETATM   21  N   UNL     1      41.201  -7.699   8.579  1.00  0.00    -0.266 N 
HETATM   22  C   UNL     1      41.938  -6.532   8.543  1.00  0.00     0.253 C 
HETATM   23  O   UNL     1      42.468  -6.104   7.516  1.00  0.00    -0.270 OA
HETATM   24  H   UNL     1      40.809  -8.064   9.449  1.00  0.00     0.190 HD
BRANCH  22  25
HETATM   25  C   UNL     1      41.949  -5.757   9.856  1.00  0.00     0.227 C 
BRANCH  25  26
HETATM   26  N   UNL     1      42.712  -6.471  10.859  1.00  0.00    -0.352 N 
HETATM   27  C   UNL     1      42.070  -7.207  11.830  1.00  0.00     0.222 C 
HETATM   28  O   UNL     1      40.848  -7.311  11.863  1.00  0.00    -0.273 OA
HETATM   29  H   UNL     1      43.667  -6.175  11.019  1.00  0.00     0.162 HD
BRANCH  27  30
HETATM   30  C   UNL     1      43.014  -7.844  12.856  1.00  0.00     0.078 C 
HETATM   31  C   UNL     1      43.279  -6.922  14.055  1.00  0.00     0.014 C 
HETATM   32  C   UNL     1      42.115  -6.857  15.043  1.00  0.00     0.001 C 
HETATM   33  C   UNL     1      41.653  -8.243  15.475  1.00  0.00     0.000 C 
HETATM   34  C   UNL     1      41.328  -9.123  14.275  1.00  0.00     0.001 C 
HETATM   35  C   UNL     1      42.513  -9.221  13.316  1.00  0.00     0.014 C 
ENDBRANCH  27  30
ENDBRANCH  25  26
ENDBRANCH  22  25
ENDBRANCH  18  21
ENDBRANCH  16  17
ENDBRANCH  15  16
ENDBRANCH  12  15
ENDBRANCH   7   9
TORSDOF 8
ENDMDL
MODEL 10
REMARK VINA RESULT:      -8.2     19.990     21.983
REMARK  8 active torsions:
REMARK  status: ('A' for Active; 'I' for Inactive)
REMARK    1  A    between atoms: C_7  and  C_8 
REMARK    2  A    between atoms: C_11  and  O_12 
REMARK    3  A    between atoms: O_12  and  C_13 
REMARK    4  A    between atoms: C_13  and  C_14 
REMARK       I    between atoms: C_14  and  N_15 
REMARK    5  A    between atoms: N_15  and  N_16 
REMARK       I    between atoms: N_16  and  C_17 
REMARK    6  A    between atoms: C_17  and  C_18 
REMARK    7  A    between atoms: C_18  and  N_19 
REMARK       I    between atoms: N_19  and  C_20 
REMARK    8  A    between atoms: C_20  and  C_21 
ROOT
HETATM    1  C   UNL     1      40.424 -32.222   2.791  1.00  0.00     0.023 A 
HETATM    2  C   UNL     1      40.581 -31.569   4.016  1.00  0.00     0.044 A 
HETATM    3  C   UNL     1      39.766 -31.930   5.137  1.00  0.00     0.099 C 
HETATM    4  N   UNL     1      39.105 -32.223   6.045  1.00  0.00    -0.191 NA
HETATM    5  C   UNL     1      41.539 -30.559   4.138  1.00  0.00     0.023 A 
HETATM    6  C   UNL     1      42.332 -30.207   3.040  1.00  0.00     0.014 A 
HETATM    7  C   UNL     1      42.190 -30.852   1.799  1.00  0.00    -0.026 A 
HETATM    8  C   UNL     1      41.221 -31.867   1.697  1.00  0.00     0.014 A 
ENDROOT
BRANCH   7   9
HETATM    9  C   UNL     1      43.025 -30.476   0.642  1.00  0.00    -0.026 A 
HETATM   10  C   UNL     1      43.263 -29.132   0.317  1.00  0.00     0.015 A 
HETATM   11  C   UNL     1      44.052 -28.781  -0.784  1.00  0.00     0.037 A 
HETATM   12  C   UNL     1      44.635 -29.764  -1.585  1.00  0.00     0.069 A 
HETATM   13  C   UNL     1      44.407 -31.106  -1.280  1.00  0.00     0.037 A 
HETATM   14  C   UNL     1      43.610 -31.454  -0.181  1.00  0.00     0.015 A 
BRANCH  12  15
HETATM   15  O   UNL     1      45.379 -29.292  -2.631  1.00  0.00    -0.342 OA
BRANCH  15  16
HETATM   16  C   UNL     1      46.615 -29.953  -2.880  1.00  0.00     0.280 C 
BRANCH  16  17
HETATM   17  C   UNL     1      47.741 -29.426  -1.996  1.00  0.00     0.260 C 
HETATM   18  N   UNL     1      48.701 -30.359  -1.656  1.00  0.00    -0.266 N 
HETATM   19  H   UNL     1      48.501 -31.352  -1.789  1.00  0.00     0.190 HD
HETATM   20  O   UNL     1      47.769 -28.262  -1.593  1.00  0.00    -0.269 OA
BRANCH  18  21
HETATM   21  N   UNL     1      49.584 -30.030  -0.618  1.00  0.00    -0.266 N 
HETATM   22  C   UNL     1      50.433 -31.011  -0.147  1.00  0.00     0.253 C 
HETATM   23  O   UNL     1      50.663 -32.053  -0.762  1.00  0.00    -0.270 OA
HETATM   24  H   UNL     1      49.368 -29.194  -0.073  1.00  0.00     0.190 HD
BRANCH  22  25
HETATM   25  C   UNL     1      51.151 -30.648   1.149  1.00  0.00     0.227 C 
BRANCH  25  26
HETATM   26  N   UNL     1      50.299 -29.829   1.987  1.00  0.00    -0.352 N 
HETATM   27  C   UNL     1      49.600 -30.391   3.032  1.00  0.00     0.222 C 
HETATM   28  O   UNL     1      49.695 -31.583   3.309  1.00  0.00    -0.273 OA
HETATM   29  H   UNL     1      49.992 -28.938   1.614  1.00  0.00     0.162 HD
BRANCH  27  30
HETATM   30  C   UNL     1      48.692 -29.407   3.776  1.00  0.00     0.078 C 
HETATM   31  C   UNL     1      48.159 -28.296   2.858  1.00  0.00     0.014 C 
HETATM   32  C   UNL     1      47.036 -28.758   1.930  1.00  0.00     0.001 C 
HETATM   33  C   UNL     1      45.918 -29.461   2.691  1.00  0.00     0.000 C 
HETATM   34  C   UNL     1      46.454 -30.604   3.544  1.00  0.00     0.001 C 
HETATM   35  C   UNL     1      47.544 -30.124   4.502  1.00  0.00     0.014 C 
ENDBRANCH  27  30
ENDBRANCH  25  26
ENDBRANCH  22  25
ENDBRANCH  18  21
ENDBRANCH  16  17
ENDBRANCH  15  16
ENDBRANCH  12  15
ENDBRANCH   7   9
TORSDOF 8
ENDMDL
