MODEL 1
REMARK VINA RESULT:      -8.9      0.000      0.000
REMARK  7 active torsions:
REMARK  status: ('A' for Active; 'I' for Inactive)
REMARK    1  A    between atoms: S_2  and  C_3 
REMARK    2  A    between atoms: C_3  and  C_4 
REMARK    3  A    between atoms: C_4  and  C_5 
REMARK    4  A    between atoms: C_5  and  N_6 
REMARK    5  A    between atoms: C_5  and  C_26 
REMARK       I    between atoms: N_6  and  C_7 
REMARK    6  A    between atoms: C_7  and  C_8 
REMARK    7  A    between atoms: C_8  and  N_9 
ROOT
HETATM    1  N   UNL     1      41.708 -13.037   5.381  1.00  0.00    -0.348 N 
HETATM    2  C   UNL     1      40.387 -12.716   5.585  1.00  0.00     0.236 C 
HETATM    3  O   UNL     1      39.717 -13.250   6.470  1.00  0.00    -0.272 OA
HETATM    4  H   UNL     1      42.131 -12.812   4.492  1.00  0.00     0.163 HD
ENDROOT
BRANCH   2   5
HETATM    5  C   UNL     1      39.809 -11.593   4.723  1.00  0.00     0.239 C 
BRANCH   5   6
HETATM    6  N   UNL     1      40.109 -11.680   3.308  1.00  0.00    -0.259 N 
HETATM    7  C   UNL     1      41.007 -10.895   2.661  1.00  0.00     0.326 A 
HETATM    8  O   UNL     1      41.627  -9.951   3.117  1.00  0.00    -0.247 OA
HETATM    9  N   UNL     1      41.120 -11.334   1.365  1.00  0.00    -0.320 N 
HETATM   10  C   UNL     1      40.269 -12.470   1.075  1.00  0.00     0.144 A 
HETATM   11  H   UNL     1      41.706 -10.858   0.693  1.00  0.00     0.165 HD
HETATM   12  C   UNL     1      39.250 -12.148  -0.007  1.00  0.00    -0.014 A 
HETATM   13  C   UNL     1      41.134 -13.701   0.764  1.00  0.00     0.047 C 
HETATM   14  C   UNL     1      39.615 -12.642   2.470  1.00  0.00     0.261 A 
HETATM   15  C   UNL     1      38.903 -13.111  -0.979  1.00  0.00    -0.049 A 
HETATM   16  C   UNL     1      38.619 -10.888  -0.055  1.00  0.00     0.011 A 
HETATM   17  C   UNL     1      37.964 -12.790  -1.973  1.00  0.00     0.007 A 
HETATM   18  C   UNL     1      39.567 -14.467  -1.041  1.00  0.00     0.039 C 
HETATM   19  C   UNL     1      37.357 -11.537  -2.005  1.00  0.00     0.001 A 
HETATM   20  C   UNL     1      37.684 -10.586  -1.046  1.00  0.00     0.001 A 
HETATM   21  C   UNL     1      40.289 -14.857   0.243  1.00  0.00     0.008 C 
HETATM   22  O   UNL     1      38.790 -13.489   2.782  1.00  0.00    -0.270 OA
ENDBRANCH   5   6
ENDBRANCH   2   5
BRANCH   1  23
HETATM   23  C   UNL     1      42.406 -13.992   6.229  1.00  0.00     0.155 C 
BRANCH  23  24
HETATM   24  C   UNL     1      43.670 -13.375   6.847  1.00  0.00     0.043 C 
BRANCH  24  25
HETATM   25  C   UNL     1      43.844 -11.878   6.581  1.00  0.00     0.076 C 
BRANCH  25  26
HETATM   26  S   UNL     1      45.571 -11.289   6.595  1.00  0.00    -0.173 SA
HETATM   27  C   UNL     1      45.641 -10.576   8.256  1.00  0.00     0.089 C 
ENDBRANCH  25  26
ENDBRANCH  24  25
ENDBRANCH  23  24
BRANCH  23  28
HETATM   28  C   UNL     1      42.734 -15.196   5.393  1.00  0.00     0.128 A 
HETATM   29  N   UNL     1      43.567 -16.181   5.668  1.00  0.00    -0.231 NA
HETATM   30  C   UNL     1      43.493 -17.034   4.590  1.00  0.00     0.085 A 
HETATM   31  C   UNL     1      42.612 -16.551   3.630  1.00  0.00     0.062 A 
HETATM   32  C   UNL     1      44.158 -18.247   4.358  1.00  0.00     0.034 A 
HETATM   33  N   UNL     1      42.149 -15.376   4.159  1.00  0.00    -0.341 N 
HETATM   34  C   UNL     1      42.346 -17.209   2.428  1.00  0.00     0.032 A 
HETATM   35  H   UNL     1      41.520 -14.715   3.719  1.00  0.00     0.167 HD
HETATM   36  C   UNL     1      43.018 -18.419   2.215  1.00  0.00     0.002 A 
HETATM   37  C   UNL     1      43.908 -18.932   3.161  1.00  0.00     0.002 A 
ENDBRANCH  23  28
ENDBRANCH   1  23
TORSDOF 7
ENDMDL
MODEL 2
REMARK VINA RESULT:      -8.7      3.153      7.259
REMARK  7 active torsions:
REMARK  status: ('A' for Active; 'I' for Inactive)
REMARK    1  A    between atoms: S_2  and  C_3 
REMARK    2  A    between atoms: C_3  and  C_4 
REMARK    3  A    between atoms: C_4  and  C_5 
REMARK    4  A    between atoms: C_5  and  N_6 
REMARK    5  A    between atoms: C_5  and  C_26 
REMARK       I    between atoms: N_6  and  C_7 
REMARK    6  A    between atoms: C_7  and  C_8 
REMARK    7  A    between atoms: C_8  and  N_9 
ROOT
HETATM    1  N   UNL     1      40.883 -11.788   5.044  1.00  0.00    -0.348 N 
HETATM    2  C   UNL     1      40.061 -12.889   5.091  1.00  0.00     0.236 C 
HETATM    3  O   UNL     1      39.162 -12.994   5.927  1.00  0.00    -0.272 OA
HETATM    4  H   UNL     1      41.766 -11.862   4.560  1.00  0.00     0.163 HD
ENDROOT
BRANCH   2   5
HETATM    5  C   UNL     1      40.250 -13.939   3.995  1.00  0.00     0.239 C 
BRANCH   5   6
HETATM    6  N   UNL     1      41.475 -14.708   4.078  1.00  0.00    -0.259 N 
HETATM    7  C   UNL     1      42.674 -14.304   3.589  1.00  0.00     0.326 A 
HETATM    8  O   UNL     1      42.905 -13.303   2.933  1.00  0.00    -0.247 OA
HETATM    9  N   UNL     1      43.628 -15.222   3.950  1.00  0.00    -0.320 N 
HETATM   10  C   UNL     1      43.091 -16.324   4.723  1.00  0.00     0.144 A 
HETATM   11  H   UNL     1      44.589 -15.136   3.647  1.00  0.00     0.165 HD
HETATM   12  C   UNL     1      43.281 -17.655   4.011  1.00  0.00    -0.014 A 
HETATM   13  C   UNL     1      43.672 -16.294   6.144  1.00  0.00     0.047 C 
HETATM   14  C   UNL     1      41.605 -15.884   4.766  1.00  0.00     0.261 A 
HETATM   15  C   UNL     1      43.605 -18.820   4.739  1.00  0.00    -0.049 A 
HETATM   16  C   UNL     1      43.122 -17.758   2.614  1.00  0.00     0.011 A 
HETATM   17  C   UNL     1      43.782 -20.037   4.061  1.00  0.00     0.007 A 
HETATM   18  C   UNL     1      43.850 -18.796   6.229  1.00  0.00     0.039 C 
HETATM   19  C   UNL     1      43.626 -20.114   2.679  1.00  0.00     0.001 A 
HETATM   20  C   UNL     1      43.296 -18.976   1.955  1.00  0.00     0.001 A 
HETATM   21  C   UNL     1      43.306 -17.552   6.922  1.00  0.00     0.008 C 
HETATM   22  O   UNL     1      40.690 -16.481   5.316  1.00  0.00    -0.270 OA
ENDBRANCH   5   6
ENDBRANCH   2   5
BRANCH   1  23
HETATM   23  C   UNL     1      40.709 -10.661   5.949  1.00  0.00     0.155 C 
BRANCH  23  24
HETATM   24  C   UNL     1      40.340  -9.380   5.185  1.00  0.00     0.043 C 
BRANCH  24  25
HETATM   25  C   UNL     1      41.120  -9.165   3.886  1.00  0.00     0.076 C 
BRANCH  25  26
HETATM   26  S   UNL     1      40.138  -9.346   2.358  1.00  0.00    -0.173 SA
HETATM   27  C   UNL     1      38.523  -9.738   3.074  1.00  0.00     0.089 C 
ENDBRANCH  25  26
ENDBRANCH  24  25
ENDBRANCH  23  24
BRANCH  23  28
HETATM   28  C   UNL     1      41.985 -10.492   6.722  1.00  0.00     0.128 A 
HETATM   29  N   UNL     1      43.214 -10.802   6.353  1.00  0.00    -0.231 NA
HETATM   30  C   UNL     1      44.016 -10.437   7.410  1.00  0.00     0.085 A 
HETATM   31  C   UNL     1      43.262  -9.910   8.451  1.00  0.00     0.062 A 
HETATM   32  C   UNL     1      45.409 -10.530   7.553  1.00  0.00     0.034 A 
HETATM   33  N   UNL     1      41.973  -9.965   7.995  1.00  0.00    -0.341 N 
HETATM   34  C   UNL     1      43.815  -9.464   9.653  1.00  0.00     0.032 A 
HETATM   35  H   UNL     1      41.134  -9.709   8.503  1.00  0.00     0.167 HD
HETATM   36  C   UNL     1      45.206  -9.563   9.777  1.00  0.00     0.002 A 
HETATM   37  C   UNL     1      45.992 -10.086   8.748  1.00  0.00     0.002 A 
ENDBRANCH  23  28
ENDBRANCH   1  23
TORSDOF 7
ENDMDL
MODEL 3
REMARK VINA RESULT:      -8.6      3.206      7.260
REMARK  7 active torsions:
REMARK  status: ('A' for Active; 'I' for Inactive)
REMARK    1  A    between atoms: S_2  and  C_3 
REMARK    2  A    between atoms: C_3  and  C_4 
REMARK    3  A    between atoms: C_4  and  C_5 
REMARK    4  A    between atoms: C_5  and  N_6 
REMARK    5  A    between atoms: C_5  and  C_26 
REMARK       I    between atoms: N_6  and  C_7 
REMARK    6  A    between atoms: C_7  and  C_8 
REMARK    7  A    between atoms: C_8  and  N_9 
ROOT
HETATM    1  N   UNL     1      40.303 -10.529   5.860  1.00  0.00    -0.348 N 
HETATM    2  C   UNL     1      39.477 -11.627   5.906  1.00  0.00     0.236 C 
HETATM    3  O   UNL     1      38.599 -11.745   6.763  1.00  0.00    -0.272 OA
HETATM    4  H   UNL     1      41.172 -10.597   5.351  1.00  0.00     0.163 HD
ENDROOT
BRANCH   2   5
HETATM    5  C   UNL     1      39.632 -12.656   4.785  1.00  0.00     0.239 C 
BRANCH   5   6
HETATM    6  N   UNL     1      40.951 -13.241   4.660  1.00  0.00    -0.259 N 
HETATM    7  C   UNL     1      41.993 -12.665   4.009  1.00  0.00     0.326 A 
HETATM    8  O   UNL     1      41.977 -11.636   3.356  1.00  0.00    -0.247 OA
HETATM    9  N   UNL     1      43.110 -13.440   4.194  1.00  0.00    -0.320 N 
HETATM   10  C   UNL     1      42.857 -14.614   5.005  1.00  0.00     0.144 A 
HETATM   11  H   UNL     1      43.991 -13.215   3.753  1.00  0.00     0.165 HD
HETATM   12  C   UNL     1      43.122 -15.898   4.234  1.00  0.00    -0.014 A 
HETATM   13  C   UNL     1      43.640 -14.512   6.323  1.00  0.00     0.047 C 
HETATM   14  C   UNL     1      41.349 -14.393   5.284  1.00  0.00     0.261 A 
HETATM   15  C   UNL     1      43.715 -17.010   4.868  1.00  0.00    -0.049 A 
HETATM   16  C   UNL     1      42.767 -16.010   2.874  1.00  0.00     0.011 A 
HETATM   17  C   UNL     1      43.955 -18.184   4.135  1.00  0.00     0.007 A 
HETATM   18  C   UNL     1      44.179 -16.964   6.305  1.00  0.00     0.039 C 
HETATM   19  C   UNL     1      43.602 -18.271   2.790  1.00  0.00     0.001 A 
HETATM   20  C   UNL     1      43.008 -17.185   2.159  1.00  0.00     0.001 A 
HETATM   21  C   UNL     1      43.577 -15.817   7.109  1.00  0.00     0.008 C 
HETATM   22  O   UNL     1      40.622 -15.119   5.947  1.00  0.00    -0.270 OA
ENDBRANCH   5   6
ENDBRANCH   2   5
BRANCH   1  23
HETATM   23  C   UNL     1      40.158  -9.419   6.791  1.00  0.00     0.155 C 
BRANCH  23  24
HETATM   24  C   UNL     1      40.075  -8.074   6.053  1.00  0.00     0.043 C 
BRANCH  24  25
HETATM   25  C   UNL     1      40.004  -8.187   4.528  1.00  0.00     0.076 C 
BRANCH  25  26
HETATM   26  S   UNL     1      38.318  -8.169   3.831  1.00  0.00    -0.173 SA
HETATM   27  C   UNL     1      38.374  -9.684   2.844  1.00  0.00     0.089 C 
ENDBRANCH  25  26
ENDBRANCH  24  25
ENDBRANCH  23  24
BRANCH  23  28
HETATM   28  C   UNL     1      41.324  -9.457   7.736  1.00  0.00     0.128 A 
HETATM   29  N   UNL     1      41.401  -8.974   8.961  1.00  0.00    -0.231 NA
HETATM   30  C   UNL     1      42.670  -9.280   9.396  1.00  0.00     0.085 A 
HETATM   31  C   UNL     1      43.388  -9.948   8.411  1.00  0.00     0.062 A 
HETATM   32  C   UNL     1      43.285  -9.015  10.629  1.00  0.00     0.034 A 
HETATM   33  N   UNL     1      42.515 -10.040   7.362  1.00  0.00    -0.341 N 
HETATM   34  C   UNL     1      44.708 -10.375   8.576  1.00  0.00     0.032 A 
HETATM   35  H   UNL     1      42.702 -10.425   6.444  1.00  0.00     0.167 HD
HETATM   36  C   UNL     1      45.304 -10.102   9.812  1.00  0.00     0.002 A 
HETATM   37  C   UNL     1      44.608  -9.435  10.824  1.00  0.00     0.002 A 
ENDBRANCH  23  28
ENDBRANCH   1  23
TORSDOF 7
ENDMDL
MODEL 4
REMARK VINA RESULT:      -8.6      2.603      6.921
REMARK  7 active torsions:
REMARK  status: ('A' for Active; 'I' for Inactive)
REMARK    1  A    between atoms: S_2  and  C_3 
REMARK    2  A    between atoms: C_3  and  C_4 
REMARK    3  A    between atoms: C_4  and  C_5 
REMARK    4  A    between atoms: C_5  and  N_6 
REMARK    5  A    between atoms: C_5  and  C_26 
REMARK       I    between atoms: N_6  and  C_7 
REMARK    6  A    between atoms: C_7  and  C_8 
REMARK    7  A    between atoms: C_8  and  N_9 
ROOT
HETATM    1  N   UNL     1      41.449 -11.384   3.360  1.00  0.00    -0.348 N 
HETATM    2  C   UNL     1      42.137 -11.156   4.528  1.00  0.00     0.236 C 
HETATM    3  O   UNL     1      42.831 -10.150   4.689  1.00  0.00    -0.272 OA
HETATM    4  H   UNL     1      41.143 -12.323   3.153  1.00  0.00     0.163 HD
ENDROOT
BRANCH   2   5
HETATM    5  C   UNL     1      41.928 -12.162   5.661  1.00  0.00     0.239 C 
BRANCH   5   6
HETATM    6  N   UNL     1      41.629 -13.516   5.240  1.00  0.00    -0.259 N 
HETATM    7  C   UNL     1      40.519 -14.209   5.599  1.00  0.00     0.326 A 
HETATM    8  O   UNL     1      39.657 -13.864   6.388  1.00  0.00    -0.247 OA
HETATM    9  N   UNL     1      40.509 -15.403   4.924  1.00  0.00    -0.320 N 
HETATM   10  C   UNL     1      41.655 -15.572   4.052  1.00  0.00     0.144 A 
HETATM   11  H   UNL     1      39.789 -16.096   5.081  1.00  0.00     0.165 HD
HETATM   12  C   UNL     1      42.500 -16.769   4.459  1.00  0.00    -0.014 A 
HETATM   13  C   UNL     1      41.191 -15.611   2.588  1.00  0.00     0.047 C 
HETATM   14  C   UNL     1      42.367 -14.224   4.330  1.00  0.00     0.261 A 
HETATM   15  C   UNL     1      43.093 -17.597   3.482  1.00  0.00    -0.049 A 
HETATM   16  C   UNL     1      42.721 -17.070   5.819  1.00  0.00     0.011 A 
HETATM   17  C   UNL     1      43.865 -18.700   3.881  1.00  0.00     0.007 A 
HETATM   18  C   UNL     1      42.867 -17.386   2.004  1.00  0.00     0.039 C 
HETATM   19  C   UNL     1      44.066 -18.982   5.230  1.00  0.00     0.001 A 
HETATM   20  C   UNL     1      43.495 -18.168   6.199  1.00  0.00     0.001 A 
HETATM   21  C   UNL     1      42.331 -16.003   1.655  1.00  0.00     0.008 C 
HETATM   22  O   UNL     1      43.417 -13.845   3.830  1.00  0.00    -0.270 OA
ENDBRANCH   5   6
ENDBRANCH   2   5
BRANCH   1  23
HETATM   23  C   UNL     1      41.461 -10.428   2.263  1.00  0.00     0.155 C 
BRANCH  23  24
HETATM   24  C   UNL     1      40.436  -9.306   2.484  1.00  0.00     0.043 C 
BRANCH  24  25
HETATM   25  C   UNL     1      39.002  -9.790   2.715  1.00  0.00     0.076 C 
BRANCH  25  26
HETATM   26  S   UNL     1      37.723  -8.883   1.780  1.00  0.00    -0.173 SA
HETATM   27  C   UNL     1      38.684  -8.406   0.324  1.00  0.00     0.089 C 
ENDBRANCH  25  26
ENDBRANCH  24  25
ENDBRANCH  23  24
BRANCH  23  28
HETATM   28  C   UNL     1      41.187 -11.182   0.993  1.00  0.00     0.128 A 
HETATM   29  N   UNL     1      41.373 -10.785  -0.251  1.00  0.00    -0.231 NA
HETATM   30  C   UNL     1      40.981 -11.845  -1.036  1.00  0.00     0.085 A 
HETATM   31  C   UNL     1      40.529 -12.903  -0.256  1.00  0.00     0.062 A 
HETATM   32  C   UNL     1      40.979 -11.976  -2.433  1.00  0.00     0.034 A 
HETATM   33  N   UNL     1      40.660 -12.454   1.030  1.00  0.00    -0.341 N 
HETATM   34  C   UNL     1      40.062 -14.107  -0.788  1.00  0.00     0.032 A 
HETATM   35  H   UNL     1      40.383 -12.937   1.876  1.00  0.00     0.167 HD
HETATM   36  C   UNL     1      40.069 -14.219  -2.183  1.00  0.00     0.002 A 
HETATM   37  C   UNL     1      40.519 -13.175  -2.995  1.00  0.00     0.002 A 
ENDBRANCH  23  28
ENDBRANCH   1  23
TORSDOF 7
ENDMDL
MODEL 5
REMARK VINA RESULT:      -8.5      2.733      7.197
REMARK  7 active torsions:
REMARK  status: ('A' for Active; 'I' for Inactive)
REMARK    1  A    between atoms: S_2  and  C_3 
REMARK    2  A    between atoms: C_3  and  C_4 
REMARK    3  A    between atoms: C_4  and  C_5 
REMARK    4  A    between atoms: C_5  and  N_6 
REMARK    5  A    between atoms: C_5  and  C_26 
REMARK       I    between atoms: N_6  and  C_7 
REMARK    6  A    between atoms: C_7  and  C_8 
REMARK    7  A    between atoms: C_8  and  N_9 
ROOT
HETATM    1  N   UNL     1      41.011 -12.545   3.127  1.00  0.00    -0.348 N 
HETATM    2  C   UNL     1      39.846 -13.247   2.924  1.00  0.00     0.236 C 
HETATM    3  O   UNL     1      38.739 -12.720   3.045  1.00  0.00    -0.272 OA
HETATM    4  H   UNL     1      41.861 -13.058   3.306  1.00  0.00     0.163 HD
ENDROOT
BRANCH   2   5
HETATM    5  C   UNL     1      39.986 -14.693   2.445  1.00  0.00     0.239 C 
BRANCH   5   6
HETATM    6  N   UNL     1      41.263 -15.316   2.723  1.00  0.00    -0.259 N 
HETATM    7  C   UNL     1      42.421 -15.025   2.078  1.00  0.00     0.326 A 
HETATM    8  O   UNL     1      42.568 -14.286   1.120  1.00  0.00    -0.247 OA
HETATM    9  N   UNL     1      43.445 -15.715   2.679  1.00  0.00    -0.320 N 
HETATM   10  C   UNL     1      43.002 -16.530   3.793  1.00  0.00     0.144 A 
HETATM   11  H   UNL     1      44.391 -15.676   2.324  1.00  0.00     0.165 HD
HETATM   12  C   UNL     1      43.271 -18.007   3.550  1.00  0.00    -0.014 A 
HETATM   13  C   UNL     1      43.610 -15.997   5.099  1.00  0.00     0.047 C 
HETATM   14  C   UNL     1      41.491 -16.190   3.753  1.00  0.00     0.261 A 
HETATM   15  C   UNL     1      43.692 -18.845   4.605  1.00  0.00    -0.049 A 
HETATM   16  C   UNL     1      43.091 -18.574   2.272  1.00  0.00     0.011 A 
HETATM   17  C   UNL     1      43.940 -20.205   4.357  1.00  0.00     0.007 A 
HETATM   18  C   UNL     1      43.965 -18.315   5.993  1.00  0.00     0.039 C 
HETATM   19  C   UNL     1      43.762 -20.743   3.085  1.00  0.00     0.001 A 
HETATM   20  C   UNL     1      43.337 -19.929   2.042  1.00  0.00     0.001 A 
HETATM   21  C   UNL     1      43.349 -16.947   6.262  1.00  0.00     0.008 C 
HETATM   22  O   UNL     1      40.632 -16.625   4.507  1.00  0.00    -0.270 OA
ENDBRANCH   5   6
ENDBRANCH   2   5
BRANCH   1  23
HETATM   23  C   UNL     1      41.004 -11.125   3.451  1.00  0.00     0.155 C 
BRANCH  23  24
HETATM   24  C   UNL     1      41.424 -10.273   2.244  1.00  0.00     0.043 C 
BRANCH  24  25
HETATM   25  C   UNL     1      40.347  -9.309   1.738  1.00  0.00     0.076 C 
BRANCH  25  26
HETATM   26  S   UNL     1      38.885  -9.152   2.819  1.00  0.00    -0.173 SA
HETATM   27  C   UNL     1      37.587  -9.631   1.653  1.00  0.00     0.089 C 
ENDBRANCH  25  26
ENDBRANCH  24  25
ENDBRANCH  23  24
BRANCH  23  28
HETATM   28  C   UNL     1      41.925 -10.917   4.619  1.00  0.00     0.128 A 
HETATM   29  N   UNL     1      41.768 -10.110   5.651  1.00  0.00    -0.231 NA
HETATM   30  C   UNL     1      42.879 -10.304   6.439  1.00  0.00     0.085 A 
HETATM   31  C   UNL     1      43.741 -11.234   5.868  1.00  0.00     0.062 A 
HETATM   32  C   UNL     1      43.225  -9.714   7.664  1.00  0.00     0.034 A 
HETATM   33  N   UNL     1      43.117 -11.601   4.707  1.00  0.00    -0.341 N 
HETATM   34  C   UNL     1      44.951 -11.619   6.448  1.00  0.00     0.032 A 
HETATM   35  H   UNL     1      43.471 -12.232   3.997  1.00  0.00     0.167 HD
HETATM   36  C   UNL     1      45.279 -11.021   7.670  1.00  0.00     0.002 A 
HETATM   37  C   UNL     1      44.433 -10.085   8.271  1.00  0.00     0.002 A 
ENDBRANCH  23  28
ENDBRANCH   1  23
TORSDOF 7
ENDMDL
MODEL 6
REMARK VINA RESULT:      -8.4      3.529      7.500
REMARK  7 active torsions:
REMARK  status: ('A' for Active; 'I' for Inactive)
REMARK    1  A    between atoms: S_2  and  C_3 
REMARK    2  A    between atoms: C_3  and  C_4 
REMARK    3  A    between atoms: C_4  and  C_5 
REMARK    4  A    between atoms: C_5  and  N_6 
REMARK    5  A    between atoms: C_5  and  C_26 
REMARK       I    between atoms: N_6  and  C_7 
REMARK    6  A    between atoms: C_7  and  C_8 
REMARK    7  A    between atoms: C_8  and  N_9 
ROOT
HETATM    1  N   UNL     1      41.143 -10.843   7.164  1.00  0.00    -0.348 N 
HETATM    2  C   UNL     1      40.020 -11.079   6.406  1.00  0.00     0.236 C 
HETATM    3  O   UNL     1      39.221 -10.183   6.130  1.00  0.00    -0.272 OA
HETATM    4  H   UNL     1      41.602 -11.626   7.607  1.00  0.00     0.163 HD
ENDROOT
BRANCH   2   5
HETATM    5  C   UNL     1      39.856 -12.489   5.837  1.00  0.00     0.239 C 
BRANCH   5   6
HETATM    6  N   UNL     1      41.074 -13.112   5.361  1.00  0.00    -0.259 N 
HETATM    7  C   UNL     1      41.980 -12.512   4.547  1.00  0.00     0.326 A 
HETATM    8  O   UNL     1      41.885 -11.421   4.014  1.00  0.00    -0.247 OA
HETATM    9  N   UNL     1      43.059 -13.348   4.401  1.00  0.00    -0.320 N 
HETATM   10  C   UNL     1      42.918 -14.590   5.134  1.00  0.00     0.144 A 
HETATM   11  H   UNL     1      43.833 -13.113   3.795  1.00  0.00     0.165 HD
HETATM   12  C   UNL     1      42.923 -15.795   4.206  1.00  0.00    -0.014 A 
HETATM   13  C   UNL     1      43.978 -14.660   6.244  1.00  0.00     0.047 C 
HETATM   14  C   UNL     1      41.527 -14.338   5.768  1.00  0.00     0.261 A 
HETATM   15  C   UNL     1      43.570 -16.991   4.583  1.00  0.00    -0.049 A 
HETATM   16  C   UNL     1      42.269 -15.748   2.958  1.00  0.00     0.011 A 
HETATM   17  C   UNL     1      43.566 -18.089   3.707  1.00  0.00     0.007 A 
HETATM   18  C   UNL     1      44.343 -17.116   5.875  1.00  0.00     0.039 C 
HETATM   19  C   UNL     1      42.920 -18.019   2.476  1.00  0.00     0.001 A 
HETATM   20  C   UNL     1      42.270 -16.850   2.101  1.00  0.00     0.001 A 
HETATM   21  C   UNL     1      44.009 -16.036   6.898  1.00  0.00     0.008 C 
HETATM   22  O   UNL     1      40.920 -15.100   6.508  1.00  0.00    -0.270 OA
ENDBRANCH   5   6
ENDBRANCH   2   5
BRANCH   1  23
HETATM   23  C   UNL     1      41.478  -9.511   7.646  1.00  0.00     0.155 C 
BRANCH  23  24
HETATM   24  C   UNL     1      42.918  -9.127   7.276  1.00  0.00     0.043 C 
BRANCH  24  25
HETATM   25  C   UNL     1      43.790 -10.295   6.809  1.00  0.00     0.076 C 
BRANCH  25  26
HETATM   26  S   UNL     1      45.171 -10.721   7.925  1.00  0.00    -0.173 SA
HETATM   27  C   UNL     1      45.828  -9.066   8.249  1.00  0.00     0.089 C 
ENDBRANCH  25  26
ENDBRANCH  24  25
ENDBRANCH  23  24
BRANCH  23  28
HETATM   28  C   UNL     1      41.268  -9.494   9.133  1.00  0.00     0.128 A 
HETATM   29  N   UNL     1      40.141  -9.331   9.799  1.00  0.00    -0.231 NA
HETATM   30  C   UNL     1      40.486  -9.411  11.129  1.00  0.00     0.085 A 
HETATM   31  C   UNL     1      41.854  -9.609  11.278  1.00  0.00     0.062 A 
HETATM   32  C   UNL     1      39.680  -9.320  12.273  1.00  0.00     0.034 A 
HETATM   33  N   UNL     1      42.331  -9.648   9.996  1.00  0.00    -0.341 N 
HETATM   34  C   UNL     1      42.484  -9.720  12.519  1.00  0.00     0.032 A 
HETATM   35  H   UNL     1      43.298  -9.730   9.707  1.00  0.00     0.167 HD
HETATM   36  C   UNL     1      41.664  -9.628  13.649  1.00  0.00     0.002 A 
HETATM   37  C   UNL     1      40.286  -9.432  13.532  1.00  0.00     0.002 A 
ENDBRANCH  23  28
ENDBRANCH   1  23
TORSDOF 7
ENDMDL
MODEL 7
REMARK VINA RESULT:      -8.3      3.120      7.958
REMARK  7 active torsions:
REMARK  status: ('A' for Active; 'I' for Inactive)
REMARK    1  A    between atoms: S_2  and  C_3 
REMARK    2  A    between atoms: C_3  and  C_4 
REMARK    3  A    between atoms: C_4  and  C_5 
REMARK    4  A    between atoms: C_5  and  N_6 
REMARK    5  A    between atoms: C_5  and  C_26 
REMARK       I    between atoms: N_6  and  C_7 
REMARK    6  A    between atoms: C_7  and  C_8 
REMARK    7  A    between atoms: C_8  and  N_9 
ROOT
HETATM    1  N   UNL     1      40.271 -10.755   2.199  1.00  0.00    -0.348 N 
HETATM    2  C   UNL     1      39.844 -10.729   3.505  1.00  0.00     0.236 C 
HETATM    3  O   UNL     1      38.718 -10.336   3.814  1.00  0.00    -0.272 OA
HETATM    4  H   UNL     1      41.263 -10.798   2.014  1.00  0.00     0.163 HD
ENDROOT
BRANCH   2   5
HETATM    5  C   UNL     1      40.797 -11.302   4.555  1.00  0.00     0.239 C 
BRANCH   5   6
HETATM    6  N   UNL     1      40.789 -12.745   4.678  1.00  0.00    -0.259 N 
HETATM    7  C   UNL     1      40.065 -13.437   5.595  1.00  0.00     0.326 A 
HETATM    8  O   UNL     1      39.395 -12.981   6.505  1.00  0.00    -0.247 OA
HETATM    9  N   UNL     1      40.205 -14.779   5.343  1.00  0.00    -0.320 N 
HETATM   10  C   UNL     1      41.062 -15.056   4.207  1.00  0.00     0.144 A 
HETATM   11  H   UNL     1      39.783 -15.478   5.939  1.00  0.00     0.165 HD
HETATM   12  C   UNL     1      42.289 -15.859   4.611  1.00  0.00    -0.014 A 
HETATM   13  C   UNL     1      40.240 -15.706   3.084  1.00  0.00     0.047 C 
HETATM   14  C   UNL     1      41.413 -13.600   3.810  1.00  0.00     0.261 A 
HETATM   15  C   UNL     1      42.795 -16.872   3.769  1.00  0.00    -0.049 A 
HETATM   16  C   UNL     1      42.955 -15.599   5.826  1.00  0.00     0.011 A 
HETATM   17  C   UNL     1      43.926 -17.605   4.165  1.00  0.00     0.007 A 
HETATM   18  C   UNL     1      42.116 -17.259   2.477  1.00  0.00     0.039 C 
HETATM   19  C   UNL     1      44.566 -17.335   5.373  1.00  0.00     0.001 A 
HETATM   20  C   UNL     1      44.081 -16.333   6.203  1.00  0.00     0.001 A 
HETATM   21  C   UNL     1      41.136 -16.212   1.960  1.00  0.00     0.008 C 
HETATM   22  O   UNL     1      42.130 -13.257   2.881  1.00  0.00    -0.270 OA
ENDBRANCH   5   6
ENDBRANCH   2   5
BRANCH   1  23
HETATM   23  C   UNL     1      39.402 -10.364   1.099  1.00  0.00     0.155 C 
BRANCH  23  24
HETATM   24  C   UNL     1      38.700 -11.582   0.478  1.00  0.00     0.043 C 
BRANCH  24  25
HETATM   25  C   UNL     1      39.538 -12.863   0.466  1.00  0.00     0.076 C 
BRANCH  25  26
HETATM   26  S   UNL     1      40.053 -13.432  -1.189  1.00  0.00    -0.173 SA
HETATM   27  C   UNL     1      38.433 -13.605  -1.975  1.00  0.00     0.089 C 
ENDBRANCH  25  26
ENDBRANCH  24  25
ENDBRANCH  23  24
BRANCH  23  28
HETATM   28  C   UNL     1      40.240  -9.637   0.087  1.00  0.00     0.128 A 
HETATM   29  N   UNL     1      41.384  -9.007   0.273  1.00  0.00    -0.231 NA
HETATM   30  C   UNL     1      41.743  -8.527  -0.966  1.00  0.00     0.085 A 
HETATM   31  C   UNL     1      40.790  -8.853  -1.923  1.00  0.00     0.062 A 
HETATM   32  C   UNL     1      42.875  -7.794  -1.351  1.00  0.00     0.034 A 
HETATM   33  N   UNL     1      39.839  -9.550  -1.228  1.00  0.00    -0.341 N 
HETATM   34  C   UNL     1      40.891  -8.487  -3.267  1.00  0.00     0.032 A 
HETATM   35  H   UNL     1      38.963  -9.911  -1.586  1.00  0.00     0.167 HD
HETATM   36  C   UNL     1      42.028  -7.758  -3.633  1.00  0.00     0.002 A 
HETATM   37  C   UNL     1      43.005  -7.416  -2.695  1.00  0.00     0.002 A 
ENDBRANCH  23  28
ENDBRANCH   1  23
TORSDOF 7
ENDMDL
MODEL 8
REMARK VINA RESULT:      -8.2      3.791      7.679
REMARK  7 active torsions:
REMARK  status: ('A' for Active; 'I' for Inactive)
REMARK    1  A    between atoms: S_2  and  C_3 
REMARK    2  A    between atoms: C_3  and  C_4 
REMARK    3  A    between atoms: C_4  and  C_5 
REMARK    4  A    between atoms: C_5  and  N_6 
REMARK    5  A    between atoms: C_5  and  C_26 
REMARK       I    between atoms: N_6  and  C_7 
REMARK    6  A    between atoms: C_7  and  C_8 
REMARK    7  A    between atoms: C_8  and  N_9 
ROOT
HETATM    1  N   UNL     1      40.412 -10.787   7.052  1.00  0.00    -0.348 N 
HETATM    2  C   UNL     1      39.476 -11.146   6.111  1.00  0.00     0.236 C 
HETATM    3  O   UNL     1      38.712 -10.321   5.606  1.00  0.00    -0.272 OA
HETATM    4  H   UNL     1      40.806 -11.505   7.642  1.00  0.00     0.163 HD
ENDROOT
BRANCH   2   5
HETATM    5  C   UNL     1      39.488 -12.603   5.646  1.00  0.00     0.239 C 
BRANCH   5   6
HETATM    6  N   UNL     1      40.792 -13.136   5.313  1.00  0.00    -0.259 N 
HETATM    7  C   UNL     1      41.747 -12.464   4.620  1.00  0.00     0.326 A 
HETATM    8  O   UNL     1      41.645 -11.371   4.092  1.00  0.00    -0.247 OA
HETATM    9  N   UNL     1      42.889 -13.225   4.595  1.00  0.00    -0.320 N 
HETATM   10  C   UNL     1      42.745 -14.488   5.293  1.00  0.00     0.144 A 
HETATM   11  H   UNL     1      43.713 -12.930   4.089  1.00  0.00     0.165 HD
HETATM   12  C   UNL     1      42.940 -15.672   4.359  1.00  0.00    -0.014 A 
HETATM   13  C   UNL     1      43.667 -14.510   6.521  1.00  0.00     0.047 C 
HETATM   14  C   UNL     1      41.274 -14.338   5.758  1.00  0.00     0.261 A 
HETATM   15  C   UNL     1      43.615 -16.831   4.797  1.00  0.00    -0.049 A 
HETATM   16  C   UNL     1      42.438 -15.644   3.041  1.00  0.00     0.011 A 
HETATM   17  C   UNL     1      43.789 -17.910   3.915  1.00  0.00     0.007 A 
HETATM   18  C   UNL     1      44.236 -16.930   6.171  1.00  0.00     0.039 C 
HETATM   19  C   UNL     1      43.290 -17.859   2.616  1.00  0.00     0.001 A 
HETATM   20  C   UNL     1      42.614 -16.727   2.179  1.00  0.00     0.001 A 
HETATM   21  C   UNL     1      43.711 -15.894   7.158  1.00  0.00     0.008 C 
HETATM   22  O   UNL     1      40.636 -15.152   6.411  1.00  0.00    -0.270 OA
ENDBRANCH   5   6
ENDBRANCH   2   5
BRANCH   1  23
HETATM   23  C   UNL     1      40.588  -9.404   7.471  1.00  0.00     0.155 C 
BRANCH  23  24
HETATM   24  C   UNL     1      41.663  -8.696   6.634  1.00  0.00     0.043 C 
BRANCH  24  25
HETATM   25  C   UNL     1      41.279  -7.292   6.159  1.00  0.00     0.076 C 
BRANCH  25  26
HETATM   26  S   UNL     1      41.156  -7.099   4.348  1.00  0.00    -0.173 SA
HETATM   27  C   UNL     1      42.084  -5.560   4.138  1.00  0.00     0.089 C 
ENDBRANCH  25  26
ENDBRANCH  24  25
ENDBRANCH  23  24
BRANCH  23  28
HETATM   28  C   UNL     1      40.941  -9.409   8.931  1.00  0.00     0.128 A 
HETATM   29  N   UNL     1      42.102  -9.129   9.493  1.00  0.00    -0.231 NA
HETATM   30  C   UNL     1      41.895  -9.265  10.847  1.00  0.00     0.085 A 
HETATM   31  C   UNL     1      40.588  -9.653  11.116  1.00  0.00     0.062 A 
HETATM   32  C   UNL     1      42.785  -9.076  11.914  1.00  0.00     0.034 A 
HETATM   33  N   UNL     1      40.004  -9.747   9.881  1.00  0.00    -0.341 N 
HETATM   34  C   UNL     1      40.100  -9.872  12.405  1.00  0.00     0.032 A 
HETATM   35  H   UNL     1      39.061 -10.054   9.674  1.00  0.00     0.167 HD
HETATM   36  C   UNL     1      41.001  -9.677  13.458  1.00  0.00     0.002 A 
HETATM   37  C   UNL     1      42.321  -9.285  13.221  1.00  0.00     0.002 A 
ENDBRANCH  23  28
ENDBRANCH   1  23
TORSDOF 7
ENDMDL
MODEL 9
REMARK VINA RESULT:      -8.1      2.865      7.320
REMARK  7 active torsions:
REMARK  status: ('A' for Active; 'I' for Inactive)
REMARK    1  A    between atoms: S_2  and  C_3 
REMARK    2  A    between atoms: C_3  and  C_4 
REMARK    3  A    between atoms: C_4  and  C_5 
REMARK    4  A    between atoms: C_5  and  N_6 
REMARK    5  A    between atoms: C_5  and  C_26 
REMARK       I    between atoms: N_6  and  C_7 
REMARK    6  A    between atoms: C_7  and  C_8 
REMARK    7  A    between atoms: C_8  and  N_9 
ROOT
HETATM    1  N   UNL     1      42.006 -10.451   1.493  1.00  0.00    -0.348 N 
HETATM    2  C   UNL     1      41.081 -10.448   2.510  1.00  0.00     0.236 C 
HETATM    3  O   UNL     1      39.950  -9.982   2.360  1.00  0.00    -0.272 OA
HETATM    4  H   UNL     1      42.982 -10.564   1.726  1.00  0.00     0.163 HD
ENDROOT
BRANCH   2   5
HETATM    5  C   UNL     1      41.485 -11.139   3.814  1.00  0.00     0.239 C 
BRANCH   5   6
HETATM    6  N   UNL     1      41.329 -12.579   3.826  1.00  0.00    -0.259 N 
HETATM    7  C   UNL     1      40.205 -13.229   4.222  1.00  0.00     0.326 A 
HETATM    8  O   UNL     1      39.201 -12.740   4.709  1.00  0.00    -0.247 OA
HETATM    9  N   UNL     1      40.369 -14.571   3.990  1.00  0.00    -0.320 N 
HETATM   10  C   UNL     1      41.658 -14.893   3.409  1.00  0.00     0.144 A 
HETATM   11  H   UNL     1      39.665 -15.246   4.255  1.00  0.00     0.165 HD
HETATM   12  C   UNL     1      42.471 -15.805   4.315  1.00  0.00    -0.014 A 
HETATM   13  C   UNL     1      41.464 -15.445   1.989  1.00  0.00     0.047 C 
HETATM   14  C   UNL     1      42.248 -13.462   3.328  1.00  0.00     0.261 A 
HETATM   15  C   UNL     1      43.266 -16.836   3.772  1.00  0.00    -0.049 A 
HETATM   16  C   UNL     1      42.460 -15.630   5.714  1.00  0.00     0.011 A 
HETATM   17  C   UNL     1      44.004 -17.670   4.628  1.00  0.00     0.007 A 
HETATM   18  C   UNL     1      43.296 -17.134   2.291  1.00  0.00     0.039 C 
HETATM   19  C   UNL     1      43.974 -17.484   6.008  1.00  0.00     0.001 A 
HETATM   20  C   UNL     1      43.203 -16.464   6.552  1.00  0.00     0.001 A 
HETATM   21  C   UNL     1      42.768 -15.997   1.424  1.00  0.00     0.008 C 
HETATM   22  O   UNL     1      43.351 -13.158   2.897  1.00  0.00    -0.270 OA
ENDBRANCH   5   6
ENDBRANCH   2   5
BRANCH   1  23
HETATM   23  C   UNL     1      41.689  -9.947   0.165  1.00  0.00     0.155 C 
BRANCH  23  24
HETATM   24  C   UNL     1      41.055  -8.549   0.233  1.00  0.00     0.043 C 
BRANCH  24  25
HETATM   25  C   UNL     1      41.702  -7.510  -0.687  1.00  0.00     0.076 C 
BRANCH  25  26
HETATM   26  S   UNL     1      40.915  -7.336  -2.325  1.00  0.00    -0.173 SA
HETATM   27  C   UNL     1      42.385  -7.376  -3.379  1.00  0.00     0.089 C 
ENDBRANCH  25  26
ENDBRANCH  24  25
ENDBRANCH  23  24
BRANCH  23  28
HETATM   28  C   UNL     1      40.771 -10.935  -0.495  1.00  0.00     0.128 A 
HETATM   29  N   UNL     1      39.536 -10.750  -0.919  1.00  0.00    -0.231 NA
HETATM   30  C   UNL     1      39.147 -11.955  -1.456  1.00  0.00     0.085 A 
HETATM   31  C   UNL     1      40.159 -12.902  -1.342  1.00  0.00     0.062 A 
HETATM   32  C   UNL     1      37.936 -12.320  -2.060  1.00  0.00     0.034 A 
HETATM   33  N   UNL     1      41.177 -12.232  -0.718  1.00  0.00    -0.341 N 
HETATM   34  C   UNL     1      40.038 -14.216  -1.796  1.00  0.00     0.032 A 
HETATM   35  H   UNL     1      42.068 -12.615  -0.422  1.00  0.00     0.167 HD
HETATM   36  C   UNL     1      38.823 -14.562  -2.397  1.00  0.00     0.002 A 
HETATM   37  C   UNL     1      37.787 -13.633  -2.530  1.00  0.00     0.002 A 
ENDBRANCH  23  28
ENDBRANCH   1  23
TORSDOF 7
ENDMDL
MODEL 10
REMARK VINA RESULT:      -8.0      2.839      4.409
REMARK  7 active torsions:
REMARK  status: ('A' for Active; 'I' for Inactive)
REMARK    1  A    between atoms: S_2  and  C_3 
REMARK    2  A    between atoms: C_3  and  C_4 
REMARK    3  A    between atoms: C_4  and  C_5 
REMARK    4  A    between atoms: C_5  and  N_6 
REMARK    5  A    between atoms: C_5  and  C_26 
REMARK       I    between atoms: N_6  and  C_7 
REMARK    6  A    between atoms: C_7  and  C_8 
REMARK    7  A    between atoms: C_8  and  N_9 
ROOT
HETATM    1  N   UNL     1      41.757 -14.604   1.046  1.00  0.00    -0.348 N 
HETATM    2  C   UNL     1      40.407 -14.478   0.819  1.00  0.00     0.236 C 
HETATM    3  O   UNL     1      39.591 -14.458   1.741  1.00  0.00    -0.272 OA
HETATM    4  H   UNL     1      42.351 -14.906   0.288  1.00  0.00     0.163 HD
ENDROOT
BRANCH   2   5
HETATM    5  C   UNL     1      39.968 -14.266  -0.631  1.00  0.00     0.239 C 
BRANCH   5   6
HETATM    6  N   UNL     1      39.540 -12.922  -0.959  1.00  0.00    -0.259 N 
HETATM    7  C   UNL     1      38.365 -12.613  -1.563  1.00  0.00     0.326 A 
HETATM    8  O   UNL     1      37.536 -13.387  -2.008  1.00  0.00    -0.247 OA
HETATM    9  N   UNL     1      38.240 -11.247  -1.608  1.00  0.00    -0.320 N 
HETATM   10  C   UNL     1      39.368 -10.555  -1.017  1.00  0.00     0.144 A 
HETATM   11  H   UNL     1      37.455 -10.800  -2.061  1.00  0.00     0.165 HD
HETATM   12  C   UNL     1      40.089  -9.683  -2.033  1.00  0.00    -0.014 A 
HETATM   13  C   UNL     1      38.911  -9.794   0.237  1.00  0.00     0.047 C 
HETATM   14  C   UNL     1      40.209 -11.786  -0.593  1.00  0.00     0.261 A 
HETATM   15  C   UNL     1      40.603  -8.421  -1.664  1.00  0.00    -0.049 A 
HETATM   16  C   UNL     1      40.272 -10.120  -3.361  1.00  0.00     0.011 A 
HETATM   17  C   UNL     1      41.260  -7.630  -2.620  1.00  0.00     0.007 A 
HETATM   18  C   UNL     1      40.406  -7.846  -0.281  1.00  0.00     0.039 C 
HETATM   19  C   UNL     1      41.424  -8.080  -3.928  1.00  0.00     0.001 A 
HETATM   20  C   UNL     1      40.931  -9.324  -4.299  1.00  0.00     0.001 A 
HETATM   21  C   UNL     1      40.011  -8.881   0.766  1.00  0.00     0.008 C 
HETATM   22  O   UNL     1      41.294 -11.760  -0.028  1.00  0.00    -0.270 OA
ENDBRANCH   5   6
ENDBRANCH   2   5
BRANCH   1  23
HETATM   23  C   UNL     1      42.305 -14.673   2.393  1.00  0.00     0.155 C 
BRANCH  23  24
HETATM   24  C   UNL     1      43.496 -13.718   2.564  1.00  0.00     0.043 C 
BRANCH  24  25
HETATM   25  C   UNL     1      43.201 -12.476   3.408  1.00  0.00     0.076 C 
BRANCH  25  26
HETATM   26  S   UNL     1      41.730 -12.605   4.481  1.00  0.00    -0.173 SA
HETATM   27  C   UNL     1      42.472 -13.401   5.927  1.00  0.00     0.089 C 
ENDBRANCH  25  26
ENDBRANCH  24  25
ENDBRANCH  23  24
BRANCH  23  28
HETATM   28  C   UNL     1      42.701 -16.098   2.655  1.00  0.00     0.128 A 
HETATM   29  N   UNL     1      42.613 -17.135   1.843  1.00  0.00    -0.231 NA
HETATM   30  C   UNL     1      43.117 -18.200   2.553  1.00  0.00     0.085 A 
HETATM   31  C   UNL     1      43.504 -17.810   3.830  1.00  0.00     0.062 A 
HETATM   32  C   UNL     1      43.274 -19.540   2.171  1.00  0.00     0.034 A 
HETATM   33  N   UNL     1      43.220 -16.472   3.874  1.00  0.00    -0.341 N 
HETATM   34  C   UNL     1      44.045 -18.688   4.772  1.00  0.00     0.032 A 
HETATM   35  H   UNL     1      43.323 -15.853   4.669  1.00  0.00     0.167 HD
HETATM   36  C   UNL     1      44.194 -20.021   4.372  1.00  0.00     0.002 A 
HETATM   37  C   UNL     1      43.818 -20.443   3.095  1.00  0.00     0.002 A 
ENDBRANCH  23  28
ENDBRANCH   1  23
TORSDOF 7
ENDMDL
