MODEL 1
REMARK VINA RESULT:      -8.7      0.000      0.000
REMARK  6 active torsions:
REMARK  status: ('A' for Active; 'I' for Inactive)
REMARK    1  A    between atoms: C_2  and  C_4 
REMARK    2  A    between atoms: C_2  and  C_11 
REMARK    3  A    between atoms: C_2  and  O_3 
REMARK    4  A    between atoms: C_11  and  N_12 
REMARK       I    between atoms: N_12  and  C_13 
REMARK    5  A    between atoms: C_13  and  C_14 
REMARK    6  A    between atoms: C_18  and  C_19 
ROOT
HETATM    1  N   UNL     1      43.328 -11.325   7.338  1.00  0.00    -0.352 N 
HETATM    2  C   UNL     1      42.687 -11.885   6.259  1.00  0.00     0.272 C 
HETATM    3  O   UNL     1      41.962 -11.257   5.493  1.00  0.00    -0.266 OA
HETATM    4  H   UNL     1      43.820 -11.980   7.940  1.00  0.00     0.162 HD
ENDROOT
BRANCH   2   5
HETATM    5  C   UNL     1      42.966 -13.320   6.101  1.00  0.00     0.146 A 
HETATM    6  N   UNL     1      43.288 -14.109   7.144  1.00  0.00    -0.169 NA
HETATM    7  N   UNL     1      43.502 -15.312   6.583  1.00  0.00    -0.277 N 
HETATM    8  H   UNL     1      43.802 -16.069   7.186  1.00  0.00     0.189 HD
HETATM    9  C   UNL     1      43.297 -15.358   5.226  1.00  0.00     0.063 A 
HETATM   10  C   UNL     1      42.952 -14.062   4.892  1.00  0.00     0.071 A 
BRANCH   9  11
HETATM   11  C   UNL     1      43.466 -16.560   4.403  1.00  0.00    -0.008 A 
HETATM   12  C   UNL     1      42.920 -16.651   3.112  1.00  0.00     0.017 A 
HETATM   13  C   UNL     1      43.089 -17.808   2.344  1.00  0.00     0.043 A 
HETATM   14  C   UNL     1      43.811 -18.876   2.859  1.00  0.00     0.116 A 
HETATM   15  F   UNL     1      43.973 -19.982   2.122  1.00  0.00    -0.206 F 
HETATM   16  C   UNL     1      44.367 -18.811   4.129  1.00  0.00     0.043 A 
HETATM   17  C   UNL     1      44.195 -17.655   4.897  1.00  0.00     0.017 A 
ENDBRANCH   9  11
ENDBRANCH   2   5
BRANCH   1  18
HETATM   18  C   UNL     1      43.187  -9.932   7.727  1.00  0.00     0.165 C 
BRANCH  18  19
HETATM   19  C   UNL     1      44.239  -9.487   8.782  1.00  0.00     0.097 C 
HETATM   20  C   UNL     1      45.454 -10.420   8.698  1.00  0.00     0.053 C 
BRANCH  19  21
HETATM   21  C   UNL     1      43.752  -9.418  10.234  1.00  0.00    -0.023 A 
HETATM   22  C   UNL     1      43.436  -8.205  10.870  1.00  0.00     0.013 A 
HETATM   23  C   UNL     1      42.997  -8.182  12.197  1.00  0.00     0.043 A 
HETATM   24  C   UNL     1      42.852  -9.372  12.896  1.00  0.00     0.116 A 
HETATM   25  F   UNL     1      42.432  -9.347  14.167  1.00  0.00    -0.206 F 
HETATM   26  C   UNL     1      43.130 -10.589  12.291  1.00  0.00     0.043 A 
HETATM   27  C   UNL     1      43.572 -10.612  10.966  1.00  0.00     0.013 A 
ENDBRANCH  19  21
BRANCH  19  28
HETATM   28  O   UNL     1      44.685  -8.176   8.383  1.00  0.00    -0.384 OA
HETATM   29  H   UNL     1      44.666  -8.167   7.409  1.00  0.00     0.211 HD
ENDBRANCH  19  28
ENDBRANCH  18  19
ENDBRANCH   1  18
TORSDOF 6
ENDMDL
MODEL 2
REMARK VINA RESULT:      -8.5      2.351      9.351
REMARK  6 active torsions:
REMARK  status: ('A' for Active; 'I' for Inactive)
REMARK    1  A    between atoms: C_2  and  C_4 
REMARK    2  A    between atoms: C_2  and  C_11 
REMARK    3  A    between atoms: C_2  and  O_3 
REMARK    4  A    between atoms: C_11  and  N_12 
REMARK       I    between atoms: N_12  and  C_13 
REMARK    5  A    between atoms: C_13  and  C_14 
REMARK    6  A    between atoms: C_18  and  C_19 
ROOT
HETATM    1  N   UNL     1      43.291 -13.294   3.356  1.00  0.00    -0.352 N 
HETATM    2  C   UNL     1      43.386 -11.925   3.435  1.00  0.00     0.272 C 
HETATM    3  O   UNL     1      42.977 -11.160   2.566  1.00  0.00    -0.266 OA
HETATM    4  H   UNL     1      43.755 -13.806   4.102  1.00  0.00     0.162 HD
ENDROOT
BRANCH   2   5
HETATM    5  C   UNL     1      44.020 -11.459   4.677  1.00  0.00     0.146 A 
HETATM    6  N   UNL     1      45.358 -11.408   4.826  1.00  0.00    -0.169 NA
HETATM    7  N   UNL     1      45.524 -10.979   6.089  1.00  0.00    -0.277 N 
HETATM    8  H   UNL     1      46.471 -10.901   6.442  1.00  0.00     0.189 HD
HETATM    9  C   UNL     1      44.358 -10.709   6.763  1.00  0.00     0.063 A 
HETATM   10  C   UNL     1      43.364 -11.024   5.856  1.00  0.00     0.071 A 
BRANCH   9  11
HETATM   11  C   UNL     1      44.293 -10.227   8.146  1.00  0.00    -0.008 A 
HETATM   12  C   UNL     1      45.432 -10.190   8.968  1.00  0.00     0.017 A 
HETATM   13  C   UNL     1      45.347  -9.730  10.286  1.00  0.00     0.043 A 
HETATM   14  C   UNL     1      44.126  -9.300  10.788  1.00  0.00     0.116 A 
HETATM   15  F   UNL     1      44.048  -8.859  12.050  1.00  0.00    -0.206 F 
HETATM   16  C   UNL     1      42.987  -9.320   9.997  1.00  0.00     0.043 A 
HETATM   17  C   UNL     1      43.071  -9.782   8.680  1.00  0.00     0.017 A 
ENDBRANCH   9  11
ENDBRANCH   2   5
BRANCH   1  18
HETATM   18  C   UNL     1      42.737 -14.000   2.214  1.00  0.00     0.165 C 
BRANCH  18  19
HETATM   19  C   UNL     1      41.892 -15.241   2.619  1.00  0.00     0.097 C 
HETATM   20  C   UNL     1      40.821 -14.807   3.628  1.00  0.00     0.053 C 
BRANCH  19  21
HETATM   21  C   UNL     1      42.673 -16.432   3.188  1.00  0.00    -0.023 A 
HETATM   22  C   UNL     1      42.941 -16.575   4.561  1.00  0.00     0.013 A 
HETATM   23  C   UNL     1      43.659 -17.674   5.042  1.00  0.00     0.043 A 
HETATM   24  C   UNL     1      44.100 -18.649   4.158  1.00  0.00     0.116 A 
HETATM   25  F   UNL     1      44.787 -19.700   4.622  1.00  0.00    -0.206 F 
HETATM   26  C   UNL     1      43.829 -18.553   2.801  1.00  0.00     0.043 A 
HETATM   27  C   UNL     1      43.115 -17.453   2.320  1.00  0.00     0.013 A 
ENDBRANCH  19  21
BRANCH  19  28
HETATM   28  O   UNL     1      41.202 -15.669   1.428  1.00  0.00    -0.384 OA
HETATM   29  H   UNL     1      40.291 -15.336   1.507  1.00  0.00     0.211 HD
ENDBRANCH  19  28
ENDBRANCH  18  19
ENDBRANCH   1  18
TORSDOF 6
ENDMDL
MODEL 3
REMARK VINA RESULT:      -8.5      6.427      9.170
REMARK  6 active torsions:
REMARK  status: ('A' for Active; 'I' for Inactive)
REMARK    1  A    between atoms: C_2  and  C_4 
REMARK    2  A    between atoms: C_2  and  C_11 
REMARK    3  A    between atoms: C_2  and  O_3 
REMARK    4  A    between atoms: C_11  and  N_12 
REMARK       I    between atoms: N_12  and  C_13 
REMARK    5  A    between atoms: C_13  and  C_14 
REMARK    6  A    between atoms: C_18  and  C_19 
ROOT
HETATM    1  N   UNL     1      41.572 -12.493   1.472  1.00  0.00    -0.352 N 
HETATM    2  C   UNL     1      42.532 -12.442   2.455  1.00  0.00     0.272 C 
HETATM    3  O   UNL     1      43.138 -11.420   2.765  1.00  0.00    -0.266 OA
HETATM    4  H   UNL     1      41.220 -13.422   1.256  1.00  0.00     0.162 HD
ENDROOT
BRANCH   2   5
HETATM    5  C   UNL     1      42.757 -13.737   3.112  1.00  0.00     0.146 A 
HETATM    6  N   UNL     1      42.829 -13.860   4.452  1.00  0.00    -0.169 NA
HETATM    7  N   UNL     1      43.081 -15.167   4.641  1.00  0.00    -0.277 N 
HETATM    8  H   UNL     1      43.217 -15.491   5.592  1.00  0.00     0.189 HD
HETATM    9  C   UNL     1      43.138 -15.915   3.491  1.00  0.00     0.063 A 
HETATM   10  C   UNL     1      42.935 -14.994   2.480  1.00  0.00     0.071 A 
BRANCH   9  11
HETATM   11  C   UNL     1      43.396 -17.357   3.451  1.00  0.00    -0.008 A 
HETATM   12  C   UNL     1      43.988 -18.030   4.533  1.00  0.00     0.017 A 
HETATM   13  C   UNL     1      44.229 -19.406   4.474  1.00  0.00     0.043 A 
HETATM   14  C   UNL     1      43.873 -20.119   3.336  1.00  0.00     0.116 A 
HETATM   15  F   UNL     1      44.103 -21.437   3.283  1.00  0.00    -0.206 F 
HETATM   16  C   UNL     1      43.280 -19.481   2.256  1.00  0.00     0.043 A 
HETATM   17  C   UNL     1      43.043 -18.105   2.315  1.00  0.00     0.017 A 
ENDBRANCH   9  11
ENDBRANCH   2   5
BRANCH   1  18
HETATM   18  C   UNL     1      41.193 -11.354   0.653  1.00  0.00     0.165 C 
BRANCH  18  19
HETATM   19  C   UNL     1      39.692 -11.371   0.247  1.00  0.00     0.097 C 
HETATM   20  C   UNL     1      38.846 -11.706   1.481  1.00  0.00     0.053 C 
BRANCH  19  21
HETATM   21  C   UNL     1      39.315 -12.317  -0.900  1.00  0.00    -0.023 A 
HETATM   22  C   UNL     1      37.983 -12.531  -1.297  1.00  0.00     0.013 A 
HETATM   23  C   UNL     1      37.677 -13.404  -2.346  1.00  0.00     0.043 A 
HETATM   24  C   UNL     1      38.701 -14.056  -3.019  1.00  0.00     0.116 A 
HETATM   25  F   UNL     1      38.405 -14.892  -4.022  1.00  0.00    -0.206 F 
HETATM   26  C   UNL     1      40.027 -13.848  -2.670  1.00  0.00     0.043 A 
HETATM   27  C   UNL     1      40.331 -12.979  -1.620  1.00  0.00     0.013 A 
ENDBRANCH  19  21
BRANCH  19  28
HETATM   28  O   UNL     1      39.361 -10.022  -0.140  1.00  0.00    -0.384 OA
HETATM   29  H   UNL     1      40.096  -9.712  -0.699  1.00  0.00     0.211 HD
ENDBRANCH  19  28
ENDBRANCH  18  19
ENDBRANCH   1  18
TORSDOF 6
ENDMDL
MODEL 4
REMARK VINA RESULT:      -8.5      1.831     10.225
REMARK  6 active torsions:
REMARK  status: ('A' for Active; 'I' for Inactive)
REMARK    1  A    between atoms: C_2  and  C_4 
REMARK    2  A    between atoms: C_2  and  C_11 
REMARK    3  A    between atoms: C_2  and  O_3 
REMARK    4  A    between atoms: C_11  and  N_12 
REMARK       I    between atoms: N_12  and  C_13 
REMARK    5  A    between atoms: C_13  and  C_14 
REMARK    6  A    between atoms: C_18  and  C_19 
ROOT
HETATM    1  N   UNL     1      43.472 -12.328   7.579  1.00  0.00    -0.352 N 
HETATM    2  C   UNL     1      44.315 -11.377   8.103  1.00  0.00     0.272 C 
HETATM    3  O   UNL     1      45.505 -11.287   7.817  1.00  0.00    -0.266 OA
HETATM    4  H   UNL     1      42.536 -12.346   7.975  1.00  0.00     0.162 HD
ENDROOT
BRANCH   2   5
HETATM    5  C   UNL     1      43.644 -10.463   9.039  1.00  0.00     0.146 A 
HETATM    6  N   UNL     1      42.848  -9.460   8.619  1.00  0.00    -0.169 NA
HETATM    7  N   UNL     1      42.475  -8.848   9.756  1.00  0.00    -0.277 N 
HETATM    8  H   UNL     1      41.892  -8.023   9.680  1.00  0.00     0.189 HD
HETATM    9  C   UNL     1      42.958  -9.425  10.905  1.00  0.00     0.063 A 
HETATM   10  C   UNL     1      43.730 -10.479  10.454  1.00  0.00     0.071 A 
BRANCH   9  11
HETATM   11  C   UNL     1      42.682  -8.934  12.258  1.00  0.00    -0.008 A 
HETATM   12  C   UNL     1      41.682  -9.508  13.061  1.00  0.00     0.017 A 
HETATM   13  C   UNL     1      41.431  -9.023  14.348  1.00  0.00     0.043 A 
HETATM   14  C   UNL     1      42.183  -7.965  14.843  1.00  0.00     0.116 A 
HETATM   15  F   UNL     1      41.942  -7.503  16.076  1.00  0.00    -0.206 F 
HETATM   16  C   UNL     1      43.181  -7.383  14.074  1.00  0.00     0.043 A 
HETATM   17  C   UNL     1      43.429  -7.867  12.786  1.00  0.00     0.017 A 
ENDBRANCH   9  11
ENDBRANCH   2   5
BRANCH   1  18
HETATM   18  C   UNL     1      43.901 -13.368   6.659  1.00  0.00     0.165 C 
BRANCH  18  19
HETATM   19  C   UNL     1      42.893 -14.548   6.563  1.00  0.00     0.097 C 
HETATM   20  C   UNL     1      43.004 -15.403   7.832  1.00  0.00     0.053 C 
BRANCH  19  21
HETATM   21  C   UNL     1      43.024 -15.450   5.330  1.00  0.00    -0.023 A 
HETATM   22  C   UNL     1      42.742 -14.999   4.029  1.00  0.00     0.013 A 
HETATM   23  C   UNL     1      42.871 -15.852   2.929  1.00  0.00     0.043 A 
HETATM   24  C   UNL     1      43.299 -17.159   3.117  1.00  0.00     0.116 A 
HETATM   25  F   UNL     1      43.421 -17.973   2.062  1.00  0.00    -0.206 F 
HETATM   26  C   UNL     1      43.610 -17.629   4.384  1.00  0.00     0.043 A 
HETATM   27  C   UNL     1      43.479 -16.777   5.483  1.00  0.00     0.013 A 
ENDBRANCH  19  21
BRANCH  19  28
HETATM   28  O   UNL     1      41.577 -13.958   6.565  1.00  0.00    -0.384 OA
HETATM   29  H   UNL     1      41.087 -14.390   7.288  1.00  0.00     0.211 HD
ENDBRANCH  19  28
ENDBRANCH  18  19
ENDBRANCH   1  18
TORSDOF 6
ENDMDL
MODEL 5
REMARK VINA RESULT:      -8.4      1.825      9.992
REMARK  6 active torsions:
REMARK  status: ('A' for Active; 'I' for Inactive)
REMARK    1  A    between atoms: C_2  and  C_4 
REMARK    2  A    between atoms: C_2  and  C_11 
REMARK    3  A    between atoms: C_2  and  O_3 
REMARK    4  A    between atoms: C_11  and  N_12 
REMARK       I    between atoms: N_12  and  C_13 
REMARK    5  A    between atoms: C_13  and  C_14 
REMARK    6  A    between atoms: C_18  and  C_19 
ROOT
HETATM    1  N   UNL     1      43.530 -12.588   7.322  1.00  0.00    -0.352 N 
HETATM    2  C   UNL     1      44.317 -11.461   7.370  1.00  0.00     0.272 C 
HETATM    3  O   UNL     1      44.912 -11.002   6.400  1.00  0.00    -0.266 OA
HETATM    4  H   UNL     1      43.174 -12.908   8.218  1.00  0.00     0.162 HD
ENDROOT
BRANCH   2   5
HETATM    5  C   UNL     1      44.367 -10.848   8.704  1.00  0.00     0.146 A 
HETATM    6  N   UNL     1      45.529 -10.613   9.345  1.00  0.00    -0.169 NA
HETATM    7  N   UNL     1      45.147 -10.095  10.525  1.00  0.00    -0.277 N 
HETATM    8  H   UNL     1      45.868  -9.874  11.201  1.00  0.00     0.189 HD
HETATM    9  C   UNL     1      43.790  -9.943  10.674  1.00  0.00     0.063 A 
HETATM   10  C   UNL     1      43.264 -10.436   9.495  1.00  0.00     0.071 A 
BRANCH   9  11
HETATM   11  C   UNL     1      43.144  -9.398  11.872  1.00  0.00    -0.008 A 
HETATM   12  C   UNL     1      43.605  -8.222  12.487  1.00  0.00     0.017 A 
HETATM   13  C   UNL     1      42.976  -7.719  13.631  1.00  0.00     0.043 A 
HETATM   14  C   UNL     1      41.880  -8.386  14.162  1.00  0.00     0.116 A 
HETATM   15  F   UNL     1      41.279  -7.903  15.257  1.00  0.00    -0.206 F 
HETATM   16  C   UNL     1      41.400  -9.546  13.571  1.00  0.00     0.043 A 
HETATM   17  C   UNL     1      42.030 -10.049  12.429  1.00  0.00     0.017 A 
ENDBRANCH   9  11
ENDBRANCH   2   5
BRANCH   1  18
HETATM   18  C   UNL     1      43.347 -13.394   6.127  1.00  0.00     0.165 C 
BRANCH  18  19
HETATM   19  C   UNL     1      42.710 -14.781   6.422  1.00  0.00     0.097 C 
HETATM   20  C   UNL     1      43.086 -15.209   7.846  1.00  0.00     0.053 C 
BRANCH  19  21
HETATM   21  C   UNL     1      43.063 -15.908   5.444  1.00  0.00    -0.023 A 
HETATM   22  C   UNL     1      44.009 -16.903   5.745  1.00  0.00     0.013 A 
HETATM   23  C   UNL     1      44.306 -17.914   4.826  1.00  0.00     0.043 A 
HETATM   24  C   UNL     1      43.647 -17.950   3.604  1.00  0.00     0.116 A 
HETATM   25  F   UNL     1      43.935 -18.918   2.726  1.00  0.00    -0.206 F 
HETATM   26  C   UNL     1      42.689 -16.999   3.286  1.00  0.00     0.043 A 
HETATM   27  C   UNL     1      42.395 -15.988   4.203  1.00  0.00     0.013 A 
ENDBRANCH  19  21
BRANCH  19  28
HETATM   28  O   UNL     1      41.282 -14.584   6.403  1.00  0.00    -0.384 OA
HETATM   29  H   UNL     1      41.138 -13.665   6.117  1.00  0.00     0.211 HD
ENDBRANCH  19  28
ENDBRANCH  18  19
ENDBRANCH   1  18
TORSDOF 6
ENDMDL
MODEL 6
REMARK VINA RESULT:      -8.4      2.407      3.512
REMARK  6 active torsions:
REMARK  status: ('A' for Active; 'I' for Inactive)
REMARK    1  A    between atoms: C_2  and  C_4 
REMARK    2  A    between atoms: C_2  and  C_11 
REMARK    3  A    between atoms: C_2  and  O_3 
REMARK    4  A    between atoms: C_11  and  N_12 
REMARK       I    between atoms: N_12  and  C_13 
REMARK    5  A    between atoms: C_13  and  C_14 
REMARK    6  A    between atoms: C_18  and  C_19 
ROOT
HETATM    1  N   UNL     1      43.267 -12.299   4.325  1.00  0.00    -0.352 N 
HETATM    2  C   UNL     1      42.599 -12.615   3.167  1.00  0.00     0.272 C 
HETATM    3  O   UNL     1      41.908 -11.820   2.538  1.00  0.00    -0.266 OA
HETATM    4  H   UNL     1      43.725 -13.078   4.791  1.00  0.00     0.162 HD
ENDROOT
BRANCH   2   5
HETATM    5  C   UNL     1      42.805 -14.008   2.742  1.00  0.00     0.146 A 
HETATM    6  N   UNL     1      42.748 -14.381   1.449  1.00  0.00    -0.169 NA
HETATM    7  N   UNL     1      42.942 -15.711   1.490  1.00  0.00    -0.277 N 
HETATM    8  H   UNL     1      42.900 -16.223   0.616  1.00  0.00     0.189 HD
HETATM    9  C   UNL     1      43.162 -16.222   2.745  1.00  0.00     0.063 A 
HETATM   10  C   UNL     1      43.070 -15.122   3.578  1.00  0.00     0.071 A 
BRANCH   9  11
HETATM   11  C   UNL     1      43.402 -17.639   3.033  1.00  0.00    -0.008 A 
HETATM   12  C   UNL     1      43.914 -18.064   4.270  1.00  0.00     0.017 A 
HETATM   13  C   UNL     1      44.138 -19.421   4.524  1.00  0.00     0.043 A 
HETATM   14  C   UNL     1      43.846 -20.361   3.545  1.00  0.00     0.116 A 
HETATM   15  F   UNL     1      44.060 -21.660   3.790  1.00  0.00    -0.206 F 
HETATM   16  C   UNL     1      43.332 -19.970   2.316  1.00  0.00     0.043 A 
HETATM   17  C   UNL     1      43.111 -18.614   2.063  1.00  0.00     0.017 A 
ENDBRANCH   9  11
ENDBRANCH   2   5
BRANCH   1  18
HETATM   18  C   UNL     1      43.197 -10.997   4.968  1.00  0.00     0.165 C 
BRANCH  18  19
HETATM   19  C   UNL     1      42.573 -11.056   6.391  1.00  0.00     0.097 C 
HETATM   20  C   UNL     1      41.268 -10.251   6.396  1.00  0.00     0.053 C 
BRANCH  19  21
HETATM   21  C   UNL     1      43.468 -10.580   7.541  1.00  0.00    -0.023 A 
HETATM   22  C   UNL     1      42.967  -9.875   8.649  1.00  0.00     0.013 A 
HETATM   23  C   UNL     1      43.815  -9.455   9.678  1.00  0.00     0.043 A 
HETATM   24  C   UNL     1      45.170  -9.750   9.617  1.00  0.00     0.116 A 
HETATM   25  F   UNL     1      45.980  -9.345  10.603  1.00  0.00    -0.206 F 
HETATM   26  C   UNL     1      45.694 -10.466   8.551  1.00  0.00     0.043 A 
HETATM   27  C   UNL     1      44.846 -10.883   7.522  1.00  0.00     0.013 A 
ENDBRANCH  19  21
BRANCH  19  28
HETATM   28  O   UNL     1      42.220 -12.435   6.622  1.00  0.00    -0.384 OA
HETATM   29  H   UNL     1      41.528 -12.651   5.972  1.00  0.00     0.211 HD
ENDBRANCH  19  28
ENDBRANCH  18  19
ENDBRANCH   1  18
TORSDOF 6
ENDMDL
MODEL 7
REMARK VINA RESULT:      -8.4      1.743      9.660
REMARK  6 active torsions:
REMARK  status: ('A' for Active; 'I' for Inactive)
REMARK    1  A    between atoms: C_2  and  C_4 
REMARK    2  A    between atoms: C_2  and  C_11 
REMARK    3  A    between atoms: C_2  and  O_3 
REMARK    4  A    between atoms: C_11  and  N_12 
REMARK       I    between atoms: N_12  and  C_13 
REMARK    5  A    between atoms: C_13  and  C_14 
REMARK    6  A    between atoms: C_18  and  C_19 
ROOT
HETATM    1  N   UNL     1      42.852 -12.918   5.084  1.00  0.00    -0.352 N 
HETATM    2  C   UNL     1      43.752 -11.881   5.001  1.00  0.00     0.272 C 
HETATM    3  O   UNL     1      44.172 -11.425   3.943  1.00  0.00    -0.266 OA
HETATM    4  H   UNL     1      42.663 -13.256   6.024  1.00  0.00     0.162 HD
ENDROOT
BRANCH   2   5
HETATM    5  C   UNL     1      44.155 -11.360   6.315  1.00  0.00     0.146 A 
HETATM    6  N   UNL     1      45.436 -11.376   6.733  1.00  0.00    -0.169 NA
HETATM    7  N   UNL     1      45.376 -10.861   7.973  1.00  0.00    -0.277 N 
HETATM    8  H   UNL     1      46.236 -10.813   8.508  1.00  0.00     0.189 HD
HETATM    9  C   UNL     1      44.122 -10.472   8.375  1.00  0.00     0.063 A 
HETATM   10  C   UNL     1      43.309 -10.796   7.304  1.00  0.00     0.071 A 
BRANCH   9  11
HETATM   11  C   UNL     1      43.815  -9.882   9.681  1.00  0.00    -0.008 A 
HETATM   12  C   UNL     1      43.653  -8.496   9.844  1.00  0.00     0.017 A 
HETATM   13  C   UNL     1      43.364  -7.953  11.100  1.00  0.00     0.043 A 
HETATM   14  C   UNL     1      43.230  -8.792  12.199  1.00  0.00     0.116 A 
HETATM   15  F   UNL     1      42.952  -8.270  13.400  1.00  0.00    -0.206 F 
HETATM   16  C   UNL     1      43.379 -10.165  12.065  1.00  0.00     0.043 A 
HETATM   17  C   UNL     1      43.670 -10.707  10.809  1.00  0.00     0.017 A 
ENDBRANCH   9  11
ENDBRANCH   2   5
BRANCH   1  18
HETATM   18  C   UNL     1      42.328 -13.626   3.928  1.00  0.00     0.165 C 
BRANCH  18  19
HETATM   19  C   UNL     1      41.644 -14.972   4.300  1.00  0.00     0.097 C 
HETATM   20  C   UNL     1      41.416 -15.012   5.817  1.00  0.00     0.053 C 
BRANCH  19  21
HETATM   21  C   UNL     1      42.376 -16.246   3.862  1.00  0.00    -0.023 A 
HETATM   22  C   UNL     1      43.360 -16.863   4.654  1.00  0.00     0.013 A 
HETATM   23  C   UNL     1      44.009 -18.023   4.220  1.00  0.00     0.043 A 
HETATM   24  C   UNL     1      43.668 -18.586   2.998  1.00  0.00     0.116 A 
HETATM   25  F   UNL     1      44.292 -19.696   2.584  1.00  0.00    -0.206 F 
HETATM   26  C   UNL     1      42.684 -18.017   2.203  1.00  0.00     0.043 A 
HETATM   27  C   UNL     1      42.038 -16.857   2.636  1.00  0.00     0.013 A 
ENDBRANCH  19  21
BRANCH  19  28
HETATM   28  O   UNL     1      40.343 -14.951   3.678  1.00  0.00    -0.384 OA
HETATM   29  H   UNL     1      40.352 -14.203   3.055  1.00  0.00     0.211 HD
ENDBRANCH  19  28
ENDBRANCH  18  19
ENDBRANCH   1  18
TORSDOF 6
ENDMDL
MODEL 8
REMARK VINA RESULT:      -8.2      2.172     10.361
REMARK  6 active torsions:
REMARK  status: ('A' for Active; 'I' for Inactive)
REMARK    1  A    between atoms: C_2  and  C_4 
REMARK    2  A    between atoms: C_2  and  C_11 
REMARK    3  A    between atoms: C_2  and  O_3 
REMARK    4  A    between atoms: C_11  and  N_12 
REMARK       I    between atoms: N_12  and  C_13 
REMARK    5  A    between atoms: C_13  and  C_14 
REMARK    6  A    between atoms: C_18  and  C_19 
ROOT
HETATM    1  N   UNL     1      43.714 -11.800   7.630  1.00  0.00    -0.352 N 
HETATM    2  C   UNL     1      44.655 -10.999   8.232  1.00  0.00     0.272 C 
HETATM    3  O   UNL     1      45.759 -10.761   7.750  1.00  0.00    -0.266 OA
HETATM    4  H   UNL     1      42.883 -11.986   8.184  1.00  0.00     0.162 HD
ENDROOT
BRANCH   2   5
HETATM    5  C   UNL     1      44.205 -10.440   9.515  1.00  0.00     0.146 A 
HETATM    6  N   UNL     1      44.023 -11.206  10.608  1.00  0.00    -0.169 NA
HETATM    7  N   UNL     1      43.576 -10.341  11.535  1.00  0.00    -0.277 N 
HETATM    8  H   UNL     1      43.330 -10.709  12.447  1.00  0.00     0.189 HD
HETATM    9  C   UNL     1      43.494  -9.037  11.113  1.00  0.00     0.063 A 
HETATM   10  C   UNL     1      43.895  -9.084   9.791  1.00  0.00     0.071 A 
BRANCH   9  11
HETATM   11  C   UNL     1      43.039  -7.922  11.949  1.00  0.00    -0.008 A 
HETATM   12  C   UNL     1      42.367  -6.816  11.402  1.00  0.00     0.017 A 
HETATM   13  C   UNL     1      41.943  -5.762  12.216  1.00  0.00     0.043 A 
HETATM   14  C   UNL     1      42.183  -5.808  13.583  1.00  0.00     0.116 A 
HETATM   15  F   UNL     1      41.776  -4.798  14.361  1.00  0.00    -0.206 F 
HETATM   16  C   UNL     1      42.839  -6.891  14.151  1.00  0.00     0.043 A 
HETATM   17  C   UNL     1      43.264  -7.944  13.336  1.00  0.00     0.017 A 
ENDBRANCH   9  11
ENDBRANCH   2   5
BRANCH   1  18
HETATM   18  C   UNL     1      43.931 -12.496   6.373  1.00  0.00     0.165 C 
BRANCH  18  19
HETATM   19  C   UNL     1      42.941 -13.674   6.153  1.00  0.00     0.097 C 
HETATM   20  C   UNL     1      43.142 -14.709   7.268  1.00  0.00     0.053 C 
BRANCH  19  21
HETATM   21  C   UNL     1      43.016 -14.374   4.791  1.00  0.00    -0.023 A 
HETATM   22  C   UNL     1      42.973 -13.671   3.575  1.00  0.00     0.013 A 
HETATM   23  C   UNL     1      43.041 -14.344   2.352  1.00  0.00     0.043 A 
HETATM   24  C   UNL     1      43.172 -15.726   2.333  1.00  0.00     0.116 A 
HETATM   25  F   UNL     1      43.237 -16.369   1.160  1.00  0.00    -0.206 F 
HETATM   26  C   UNL     1      43.243 -16.449   3.514  1.00  0.00     0.043 A 
HETATM   27  C   UNL     1      43.172 -15.776   4.736  1.00  0.00     0.013 A 
ENDBRANCH  19  21
BRANCH  19  28
HETATM   28  O   UNL     1      41.617 -13.128   6.318  1.00  0.00    -0.384 OA
HETATM   29  H   UNL     1      41.730 -12.273   6.770  1.00  0.00     0.211 HD
ENDBRANCH  19  28
ENDBRANCH  18  19
ENDBRANCH   1  18
TORSDOF 6
ENDMDL
MODEL 9
REMARK VINA RESULT:      -8.2      1.828      2.702
REMARK  6 active torsions:
REMARK  status: ('A' for Active; 'I' for Inactive)
REMARK    1  A    between atoms: C_2  and  C_4 
REMARK    2  A    between atoms: C_2  and  C_11 
REMARK    3  A    between atoms: C_2  and  O_3 
REMARK    4  A    between atoms: C_11  and  N_12 
REMARK       I    between atoms: N_12  and  C_13 
REMARK    5  A    between atoms: C_13  and  C_14 
REMARK    6  A    between atoms: C_18  and  C_19 
ROOT
HETATM    1  N   UNL     1      43.236 -10.847   8.734  1.00  0.00    -0.352 N 
HETATM    2  C   UNL     1      44.180 -11.416   7.913  1.00  0.00     0.272 C 
HETATM    3  O   UNL     1      45.390 -11.299   8.079  1.00  0.00    -0.266 OA
HETATM    4  H   UNL     1      42.272 -10.947   8.425  1.00  0.00     0.162 HD
ENDROOT
BRANCH   2   5
HETATM    5  C   UNL     1      43.594 -12.196   6.813  1.00  0.00     0.146 A 
HETATM    6  N   UNL     1      42.580 -11.728   6.059  1.00  0.00    -0.169 NA
HETATM    7  N   UNL     1      42.315 -12.739   5.213  1.00  0.00    -0.277 N 
HETATM    8  H   UNL     1      41.545 -12.624   4.564  1.00  0.00     0.189 HD
HETATM    9  C   UNL     1      43.133 -13.833   5.350  1.00  0.00     0.063 A 
HETATM   10  C   UNL     1      43.972 -13.498   6.397  1.00  0.00     0.071 A 
BRANCH   9  11
HETATM   11  C   UNL     1      43.034 -15.049   4.537  1.00  0.00    -0.008 A 
HETATM   12  C   UNL     1      43.414 -16.305   5.040  1.00  0.00     0.017 A 
HETATM   13  C   UNL     1      43.314 -17.452   4.247  1.00  0.00     0.043 A 
HETATM   14  C   UNL     1      42.831 -17.352   2.949  1.00  0.00     0.116 A 
HETATM   15  F   UNL     1      42.736 -18.452   2.192  1.00  0.00    -0.206 F 
HETATM   16  C   UNL     1      42.443 -16.125   2.429  1.00  0.00     0.043 A 
HETATM   17  C   UNL     1      42.545 -14.978   3.222  1.00  0.00     0.017 A 
ENDBRANCH   9  11
ENDBRANCH   2   5
BRANCH   1  18
HETATM   18  C   UNL     1      43.559 -10.001   9.871  1.00  0.00     0.165 C 
BRANCH  18  19
HETATM   19  C   UNL     1      42.386  -9.069  10.287  1.00  0.00     0.097 C 
HETATM   20  C   UNL     1      42.566  -7.708   9.603  1.00  0.00     0.053 C 
BRANCH  19  21
HETATM   21  C   UNL     1      42.192  -8.859  11.793  1.00  0.00    -0.023 A 
HETATM   22  C   UNL     1      41.160  -9.482  12.517  1.00  0.00     0.013 A 
HETATM   23  C   UNL     1      41.013  -9.264  13.890  1.00  0.00     0.043 A 
HETATM   24  C   UNL     1      41.907  -8.436  14.556  1.00  0.00     0.116 A 
HETATM   25  F   UNL     1      41.763  -8.229  15.871  1.00  0.00    -0.206 F 
HETATM   26  C   UNL     1      42.951  -7.827  13.877  1.00  0.00     0.043 A 
HETATM   27  C   UNL     1      43.096  -8.043  12.505  1.00  0.00     0.013 A 
ENDBRANCH  19  21
BRANCH  19  28
HETATM   28  O   UNL     1      41.188  -9.659   9.745  1.00  0.00    -0.384 OA
HETATM   29  H   UNL     1      40.659  -9.949  10.508  1.00  0.00     0.211 HD
ENDBRANCH  19  28
ENDBRANCH  18  19
ENDBRANCH   1  18
TORSDOF 6
ENDMDL
MODEL 10
REMARK VINA RESULT:      -8.2      1.903      9.885
REMARK  6 active torsions:
REMARK  status: ('A' for Active; 'I' for Inactive)
REMARK    1  A    between atoms: C_2  and  C_4 
REMARK    2  A    between atoms: C_2  and  C_11 
REMARK    3  A    between atoms: C_2  and  O_3 
REMARK    4  A    between atoms: C_11  and  N_12 
REMARK       I    between atoms: N_12  and  C_13 
REMARK    5  A    between atoms: C_13  and  C_14 
REMARK    6  A    between atoms: C_18  and  C_19 
ROOT
HETATM    1  N   UNL     1      42.681 -13.591   5.031  1.00  0.00    -0.352 N 
HETATM    2  C   UNL     1      43.175 -12.360   4.669  1.00  0.00     0.272 C 
HETATM    3  O   UNL     1      43.713 -12.130   3.590  1.00  0.00    -0.266 OA
HETATM    4  H   UNL     1      42.348 -13.661   5.989  1.00  0.00     0.162 HD
ENDROOT
BRANCH   2   5
HETATM    5  C   UNL     1      42.986 -11.334   5.704  1.00  0.00     0.146 A 
HETATM    6  N   UNL     1      42.336 -10.178   5.460  1.00  0.00    -0.169 NA
HETATM    7  N   UNL     1      42.417  -9.513   6.626  1.00  0.00    -0.277 N 
HETATM    8  H   UNL     1      42.022  -8.581   6.667  1.00  0.00     0.189 HD
HETATM    9  C   UNL     1      43.055 -10.193   7.634  1.00  0.00     0.063 A 
HETATM   10  C   UNL     1      43.440 -11.384   7.046  1.00  0.00     0.071 A 
BRANCH   9  11
HETATM   11  C   UNL     1      43.258  -9.669   8.988  1.00  0.00    -0.008 A 
HETATM   12  C   UNL     1      44.486  -9.809   9.655  1.00  0.00     0.017 A 
HETATM   13  C   UNL     1      44.658  -9.304  10.948  1.00  0.00     0.043 A 
HETATM   14  C   UNL     1      43.606  -8.653  11.579  1.00  0.00     0.116 A 
HETATM   15  F   UNL     1      43.774  -8.170  12.816  1.00  0.00    -0.206 F 
HETATM   16  C   UNL     1      42.385  -8.495  10.940  1.00  0.00     0.043 A 
HETATM   17  C   UNL     1      42.212  -9.002   9.648  1.00  0.00     0.017 A 
ENDBRANCH   9  11
ENDBRANCH   2   5
BRANCH   1  18
HETATM   18  C   UNL     1      42.777 -14.777   4.196  1.00  0.00     0.165 C 
BRANCH  18  19
HETATM   19  C   UNL     1      42.920 -16.088   5.019  1.00  0.00     0.097 C 
HETATM   20  C   UNL     1      44.006 -15.892   6.084  1.00  0.00     0.053 C 
BRANCH  19  21
HETATM   21  C   UNL     1      43.218 -17.360   4.217  1.00  0.00    -0.023 A 
HETATM   22  C   UNL     1      42.864 -17.501   2.863  1.00  0.00     0.013 A 
HETATM   23  C   UNL     1      43.151 -18.678   2.165  1.00  0.00     0.043 A 
HETATM   24  C   UNL     1      43.810 -19.717   2.807  1.00  0.00     0.116 A 
HETATM   25  F   UNL     1      44.082 -20.843   2.136  1.00  0.00    -0.206 F 
HETATM   26  C   UNL     1      44.196 -19.601   4.134  1.00  0.00     0.043 A 
HETATM   27  C   UNL     1      43.907 -18.426   4.832  1.00  0.00     0.013 A 
ENDBRANCH  19  21
BRANCH  19  28
HETATM   28  O   UNL     1      41.671 -16.266   5.718  1.00  0.00    -0.384 OA
HETATM   29  H   UNL     1      41.264 -15.384   5.776  1.00  0.00     0.211 HD
ENDBRANCH  19  28
ENDBRANCH  18  19
ENDBRANCH   1  18
TORSDOF 6
ENDMDL
