MODEL 1
REMARK VINA RESULT:      -9.3      0.000      0.000
REMARK  5 active torsions:
REMARK  status: ('A' for Active; 'I' for Inactive)
REMARK    1  A    between atoms: C_7  and  C_8 
REMARK    2  A    between atoms: C_8  and  O_9 
REMARK    3  A    between atoms: N_12  and  C_13 
REMARK    4  A    between atoms: C_13  and  C_14 
REMARK    5  A    between atoms: C_14  and  C_15 
ROOT
HETATM    1  C   UNL     1      41.593 -12.700   2.161  1.00  0.00     0.199 A 
HETATM    2  C   UNL     1      42.696 -13.666   2.713  1.00  0.00     0.269 A 
HETATM    3  O   UNL     1      43.604 -14.193   2.083  1.00  0.00    -0.269 OA
HETATM    4  N   UNL     1      42.464 -13.818   4.093  1.00  0.00    -0.314 N 
HETATM    5  C   UNL     1      41.318 -13.116   4.492  1.00  0.00     0.047 A 
HETATM    6  C   UNL     1      40.759 -12.447   3.394  1.00  0.00     0.017 A 
HETATM    7  C   UNL     1      40.741 -13.036   5.747  1.00  0.00     0.030 A 
HETATM    8  C   UNL     1      39.590 -12.255   5.897  1.00  0.00     0.002 A 
HETATM    9  C   UNL     1      39.038 -11.569   4.804  1.00  0.00     0.001 A 
HETATM   10  C   UNL     1      39.627 -11.655   3.542  1.00  0.00     0.013 A 
ENDROOT
BRANCH   1  11
HETATM   11  C   UNL     1      40.765 -13.414   1.107  1.00  0.00     0.025 A 
HETATM   12  C   UNL     1      40.053 -14.616   1.183  1.00  0.00     0.016 A 
HETATM   13  C   UNL     1      39.834 -15.587   2.291  1.00  0.00     0.069 C 
HETATM   14  N   UNL     1      39.516 -14.871  -0.054  1.00  0.00    -0.359 N 
HETATM   15  H   UNL     1      38.954 -15.678  -0.285  1.00  0.00     0.166 HD
HETATM   16  C   UNL     1      39.917 -13.934  -0.968  1.00  0.00     0.043 A 
HETATM   17  C   UNL     1      40.693 -13.003  -0.281  1.00  0.00     0.003 A 
HETATM   18  C   UNL     1      39.666 -13.857  -2.344  1.00  0.00     0.030 A 
HETATM   19  C   UNL     1      41.250 -11.938  -1.025  1.00  0.00     0.014 A 
HETATM   20  C   UNL     1      41.013 -11.844  -2.401  1.00  0.00     0.001 A 
HETATM   21  C   UNL     1      40.232 -12.794  -3.050  1.00  0.00     0.002 A 
ENDBRANCH   1  11
BRANCH   1  22
HETATM   22  O   UNL     1      42.117 -11.448   1.729  1.00  0.00    -0.371 OA
HETATM   23  H   UNL     1      43.081 -11.497   1.828  1.00  0.00     0.212 HD
ENDBRANCH   1  22
BRANCH   4  24
HETATM   24  C   UNL     1      43.175 -14.793   4.893  1.00  0.00     0.137 C 
BRANCH  24  25
HETATM   25  C   UNL     1      42.383 -16.084   5.137  1.00  0.00     0.058 C 
BRANCH  25  26
HETATM   26  C   UNL     1      42.978 -17.238   4.366  1.00  0.00    -0.057 A 
HETATM   27  C   UNL     1      42.669 -17.407   3.008  1.00  0.00     0.007 A 
HETATM   28  C   UNL     1      43.180 -18.492   2.295  1.00  0.00     0.001 A 
HETATM   29  C   UNL     1      44.009 -19.413   2.930  1.00  0.00     0.000 A 
HETATM   30  C   UNL     1      44.330 -19.248   4.278  1.00  0.00     0.001 A 
HETATM   31  C   UNL     1      43.816 -18.166   4.995  1.00  0.00     0.007 A 
ENDBRANCH  25  26
ENDBRANCH  24  25
ENDBRANCH   4  24
TORSDOF 5
ENDMDL
MODEL 2
REMARK VINA RESULT:      -8.9      2.176      6.540
REMARK  5 active torsions:
REMARK  status: ('A' for Active; 'I' for Inactive)
REMARK    1  A    between atoms: C_7  and  C_8 
REMARK    2  A    between atoms: C_8  and  O_9 
REMARK    3  A    between atoms: N_12  and  C_13 
REMARK    4  A    between atoms: C_13  and  C_14 
REMARK    5  A    between atoms: C_14  and  C_15 
ROOT
HETATM    1  C   UNL     1      41.434 -14.822   4.918  1.00  0.00     0.199 A 
HETATM    2  C   UNL     1      40.714 -15.082   3.550  1.00  0.00     0.269 A 
HETATM    3  O   UNL     1      39.920 -15.976   3.288  1.00  0.00    -0.269 OA
HETATM    4  N   UNL     1      41.142 -14.080   2.658  1.00  0.00    -0.314 N 
HETATM    5  C   UNL     1      42.088 -13.238   3.260  1.00  0.00     0.047 A 
HETATM    6  C   UNL     1      42.306 -13.633   4.587  1.00  0.00     0.017 A 
HETATM    7  C   UNL     1      42.763 -12.161   2.715  1.00  0.00     0.030 A 
HETATM    8  C   UNL     1      43.663 -11.465   3.529  1.00  0.00     0.002 A 
HETATM    9  C   UNL     1      43.871 -11.846   4.864  1.00  0.00     0.001 A 
HETATM   10  C   UNL     1      43.183 -12.933   5.406  1.00  0.00     0.013 A 
ENDROOT
BRANCH   1  11
HETATM   11  C   UNL     1      42.297 -16.018   5.280  1.00  0.00     0.025 A 
HETATM   12  C   UNL     1      42.870 -16.376   6.505  1.00  0.00     0.016 A 
HETATM   13  C   UNL     1      42.825 -15.754   7.858  1.00  0.00     0.069 C 
HETATM   14  N   UNL     1      43.615 -17.513   6.310  1.00  0.00    -0.359 N 
HETATM   15  H   UNL     1      44.140 -17.990   7.028  1.00  0.00     0.166 HD
HETATM   16  C   UNL     1      43.630 -17.870   4.989  1.00  0.00     0.043 A 
HETATM   17  C   UNL     1      42.814 -16.965   4.314  1.00  0.00     0.003 A 
HETATM   18  C   UNL     1      44.318 -18.909   4.347  1.00  0.00     0.030 A 
HETATM   19  C   UNL     1      42.688 -17.114   2.914  1.00  0.00     0.014 A 
HETATM   20  C   UNL     1      43.369 -18.144   2.253  1.00  0.00     0.001 A 
HETATM   21  C   UNL     1      44.174 -19.028   2.964  1.00  0.00     0.002 A 
ENDBRANCH   1  11
BRANCH   1  22
HETATM   22  O   UNL     1      40.537 -14.427   5.950  1.00  0.00    -0.371 OA
HETATM   23  H   UNL     1      40.686 -13.481   6.107  1.00  0.00     0.212 HD
ENDBRANCH   1  22
BRANCH   4  24
HETATM   24  C   UNL     1      40.827 -14.119   1.245  1.00  0.00     0.137 C 
BRANCH  24  25
HETATM   25  C   UNL     1      39.863 -13.013   0.800  1.00  0.00     0.058 C 
BRANCH  25  26
HETATM   26  C   UNL     1      39.239 -13.345  -0.534  1.00  0.00    -0.057 A 
HETATM   27  C   UNL     1      38.315 -12.462  -1.115  1.00  0.00     0.007 A 
HETATM   28  C   UNL     1      37.701 -12.776  -2.327  1.00  0.00     0.001 A 
HETATM   29  C   UNL     1      38.008 -13.971  -2.974  1.00  0.00     0.000 A 
HETATM   30  C   UNL     1      38.932 -14.850  -2.410  1.00  0.00     0.001 A 
HETATM   31  C   UNL     1      39.545 -14.541  -1.194  1.00  0.00     0.007 A 
ENDBRANCH  25  26
ENDBRANCH  24  25
ENDBRANCH   4  24
TORSDOF 5
ENDMDL
MODEL 3
REMARK VINA RESULT:      -8.9      2.855      5.646
REMARK  5 active torsions:
REMARK  status: ('A' for Active; 'I' for Inactive)
REMARK    1  A    between atoms: C_7  and  C_8 
REMARK    2  A    between atoms: C_8  and  O_9 
REMARK    3  A    between atoms: N_12  and  C_13 
REMARK    4  A    between atoms: C_13  and  C_14 
REMARK    5  A    between atoms: C_14  and  C_15 
ROOT
HETATM    1  C   UNL     1      41.218 -14.108   5.528  1.00  0.00     0.199 A 
HETATM    2  C   UNL     1      42.196 -15.130   6.204  1.00  0.00     0.269 A 
HETATM    3  O   UNL     1      42.253 -15.429   7.389  1.00  0.00    -0.269 OA
HETATM    4  N   UNL     1      43.009 -15.664   5.186  1.00  0.00    -0.314 N 
HETATM    5  C   UNL     1      42.717 -15.076   3.946  1.00  0.00     0.047 A 
HETATM    6  C   UNL     1      41.678 -14.146   4.089  1.00  0.00     0.017 A 
HETATM    7  C   UNL     1      43.308 -15.304   2.717  1.00  0.00     0.030 A 
HETATM    8  C   UNL     1      42.830 -14.590   1.612  1.00  0.00     0.002 A 
HETATM    9  C   UNL     1      41.778 -13.672   1.747  1.00  0.00     0.001 A 
HETATM   10  C   UNL     1      41.187 -13.449   2.992  1.00  0.00     0.013 A 
ENDROOT
BRANCH   1  11
HETATM   11  C   UNL     1      41.439 -12.723   6.111  1.00  0.00     0.025 A 
HETATM   12  C   UNL     1      40.536 -11.671   6.298  1.00  0.00     0.016 A 
HETATM   13  C   UNL     1      39.077 -11.537   6.030  1.00  0.00     0.069 C 
HETATM   14  N   UNL     1      41.230 -10.600   6.805  1.00  0.00    -0.359 N 
HETATM   15  H   UNL     1      40.824  -9.704   7.033  1.00  0.00     0.166 HD
HETATM   16  C   UNL     1      42.570 -10.871   6.875  1.00  0.00     0.043 A 
HETATM   17  C   UNL     1      42.740 -12.189   6.457  1.00  0.00     0.003 A 
HETATM   18  C   UNL     1      43.634 -10.044   7.257  1.00  0.00     0.030 A 
HETATM   19  C   UNL     1      44.058 -12.699   6.418  1.00  0.00     0.014 A 
HETATM   20  C   UNL     1      45.136 -11.888   6.794  1.00  0.00     0.001 A 
HETATM   21  C   UNL     1      44.924 -10.577   7.207  1.00  0.00     0.002 A 
ENDBRANCH   1  11
BRANCH   1  22
HETATM   22  O   UNL     1      39.860 -14.535   5.559  1.00  0.00    -0.371 OA
HETATM   23  H   UNL     1      39.870 -15.493   5.711  1.00  0.00     0.212 HD
ENDBRANCH   1  22
BRANCH   4  24
HETATM   24  C   UNL     1      44.156 -16.499   5.472  1.00  0.00     0.137 C 
BRANCH  24  25
HETATM   25  C   UNL     1      43.787 -17.880   6.027  1.00  0.00     0.058 C 
BRANCH  25  26
HETATM   26  C   UNL     1      43.851 -18.932   4.946  1.00  0.00    -0.057 A 
HETATM   27  C   UNL     1      43.810 -18.552   3.596  1.00  0.00     0.007 A 
HETATM   28  C   UNL     1      43.826 -19.517   2.588  1.00  0.00     0.001 A 
HETATM   29  C   UNL     1      43.892 -20.868   2.919  1.00  0.00     0.000 A 
HETATM   30  C   UNL     1      43.942 -21.255   4.258  1.00  0.00     0.001 A 
HETATM   31  C   UNL     1      43.920 -20.292   5.269  1.00  0.00     0.007 A 
ENDBRANCH  25  26
ENDBRANCH  24  25
ENDBRANCH   4  24
TORSDOF 5
ENDMDL
MODEL 4
REMARK VINA RESULT:      -8.7      1.854      2.808
REMARK  5 active torsions:
REMARK  status: ('A' for Active; 'I' for Inactive)
REMARK    1  A    between atoms: C_7  and  C_8 
REMARK    2  A    between atoms: C_8  and  O_9 
REMARK    3  A    between atoms: N_12  and  C_13 
REMARK    4  A    between atoms: C_13  and  C_14 
REMARK    5  A    between atoms: C_14  and  C_15 
ROOT
HETATM    1  C   UNL     1      42.300 -13.803   3.109  1.00  0.00     0.199 A 
HETATM    2  C   UNL     1      42.033 -15.278   3.564  1.00  0.00     0.269 A 
HETATM    3  O   UNL     1      41.459 -16.157   2.935  1.00  0.00    -0.269 OA
HETATM    4  N   UNL     1      42.591 -15.425   4.849  1.00  0.00    -0.314 N 
HETATM    5  C   UNL     1      43.137 -14.216   5.303  1.00  0.00     0.047 A 
HETATM    6  C   UNL     1      42.985 -13.224   4.324  1.00  0.00     0.017 A 
HETATM    7  C   UNL     1      43.746 -13.938   6.513  1.00  0.00     0.030 A 
HETATM    8  C   UNL     1      44.223 -12.641   6.731  1.00  0.00     0.002 A 
HETATM    9  C   UNL     1      44.089 -11.649   5.747  1.00  0.00     0.001 A 
HETATM   10  C   UNL     1      43.474 -11.939   4.528  1.00  0.00     0.013 A 
ENDROOT
BRANCH   1  11
HETATM   11  C   UNL     1      40.979 -13.093   2.866  1.00  0.00     0.025 A 
HETATM   12  C   UNL     1      39.956 -12.765   3.762  1.00  0.00     0.016 A 
HETATM   13  C   UNL     1      39.803 -12.960   5.230  1.00  0.00     0.069 C 
HETATM   14  N   UNL     1      38.938 -12.181   3.048  1.00  0.00    -0.359 N 
HETATM   15  H   UNL     1      38.071 -11.848   3.445  1.00  0.00     0.166 HD
HETATM   16  C   UNL     1      39.208 -12.192   1.707  1.00  0.00     0.043 A 
HETATM   17  C   UNL     1      40.476 -12.747   1.552  1.00  0.00     0.003 A 
HETATM   18  C   UNL     1      38.419 -11.771   0.628  1.00  0.00     0.030 A 
HETATM   19  C   UNL     1      40.973 -12.889   0.236  1.00  0.00     0.014 A 
HETATM   20  C   UNL     1      40.200 -12.477  -0.855  1.00  0.00     0.001 A 
HETATM   21  C   UNL     1      38.938 -11.926  -0.658  1.00  0.00     0.002 A 
ENDBRANCH   1  11
BRANCH   1  22
HETATM   22  O   UNL     1      43.209 -13.715   2.017  1.00  0.00    -0.371 OA
HETATM   23  H   UNL     1      42.975 -14.423   1.397  1.00  0.00     0.212 HD
ENDBRANCH   1  22
BRANCH   4  24
HETATM   24  C   UNL     1      42.367 -16.604   5.658  1.00  0.00     0.137 C 
BRANCH  24  25
HETATM   25  C   UNL     1      43.651 -17.372   5.995  1.00  0.00     0.058 C 
BRANCH  25  26
HETATM   26  C   UNL     1      43.763 -18.629   5.165  1.00  0.00    -0.057 A 
HETATM   27  C   UNL     1      43.829 -18.541   3.767  1.00  0.00     0.007 A 
HETATM   28  C   UNL     1      43.891 -19.696   2.987  1.00  0.00     0.001 A 
HETATM   29  C   UNL     1      43.896 -20.948   3.597  1.00  0.00     0.000 A 
HETATM   30  C   UNL     1      43.840 -21.045   4.987  1.00  0.00     0.001 A 
HETATM   31  C   UNL     1      43.772 -19.891   5.770  1.00  0.00     0.007 A 
ENDBRANCH  25  26
ENDBRANCH  24  25
ENDBRANCH   4  24
TORSDOF 5
ENDMDL
MODEL 5
REMARK VINA RESULT:      -8.7      1.939      6.672
REMARK  5 active torsions:
REMARK  status: ('A' for Active; 'I' for Inactive)
REMARK    1  A    between atoms: C_7  and  C_8 
REMARK    2  A    between atoms: C_8  and  O_9 
REMARK    3  A    between atoms: N_12  and  C_13 
REMARK    4  A    between atoms: C_13  and  C_14 
REMARK    5  A    between atoms: C_14  and  C_15 
ROOT
HETATM    1  C   UNL     1      41.784 -15.770   4.751  1.00  0.00     0.199 A 
HETATM    2  C   UNL     1      40.824 -15.201   3.652  1.00  0.00     0.269 A 
HETATM    3  O   UNL     1      40.018 -15.825   2.974  1.00  0.00    -0.269 OA
HETATM    4  N   UNL     1      41.045 -13.812   3.584  1.00  0.00    -0.314 N 
HETATM    5  C   UNL     1      42.066 -13.420   4.463  1.00  0.00     0.047 A 
HETATM    6  C   UNL     1      42.544 -14.533   5.169  1.00  0.00     0.017 A 
HETATM    7  C   UNL     1      42.595 -12.160   4.672  1.00  0.00     0.030 A 
HETATM    8  C   UNL     1      43.615 -12.020   5.620  1.00  0.00     0.002 A 
HETATM    9  C   UNL     1      44.084 -13.129   6.342  1.00  0.00     0.001 A 
HETATM   10  C   UNL     1      43.543 -14.396   6.125  1.00  0.00     0.013 A 
ENDROOT
BRANCH   1  11
HETATM   11  C   UNL     1      42.732 -16.782   4.132  1.00  0.00     0.025 A 
HETATM   12  C   UNL     1      43.247 -16.855   2.833  1.00  0.00     0.016 A 
HETATM   13  C   UNL     1      43.080 -15.988   1.634  1.00  0.00     0.069 C 
HETATM   14  N   UNL     1      44.015 -17.990   2.744  1.00  0.00    -0.359 N 
HETATM   15  H   UNL     1      44.506 -18.292   1.915  1.00  0.00     0.166 HD
HETATM   16  C   UNL     1      43.957 -18.716   3.903  1.00  0.00     0.043 A 
HETATM   17  C   UNL     1      43.171 -17.992   4.797  1.00  0.00     0.003 A 
HETATM   18  C   UNL     1      44.523 -19.959   4.212  1.00  0.00     0.030 A 
HETATM   19  C   UNL     1      42.941 -18.556   6.072  1.00  0.00     0.014 A 
HETATM   20  C   UNL     1      43.496 -19.798   6.401  1.00  0.00     0.001 A 
HETATM   21  C   UNL     1      44.276 -20.489   5.480  1.00  0.00     0.002 A 
ENDBRANCH   1  11
BRANCH   1  22
HETATM   22  O   UNL     1      41.090 -16.258   5.895  1.00  0.00    -0.371 OA
HETATM   23  H   UNL     1      41.048 -17.223   5.809  1.00  0.00     0.212 HD
ENDBRANCH   1  22
BRANCH   4  24
HETATM   24  C   UNL     1      40.468 -12.987   2.544  1.00  0.00     0.137 C 
BRANCH  24  25
HETATM   25  C   UNL     1      41.416 -12.732   1.365  1.00  0.00     0.058 C 
BRANCH  25  26
HETATM   26  C   UNL     1      40.771 -13.123   0.057  1.00  0.00    -0.057 A 
HETATM   27  C   UNL     1      40.017 -14.303  -0.027  1.00  0.00     0.007 A 
HETATM   28  C   UNL     1      39.450 -14.696  -1.240  1.00  0.00     0.001 A 
HETATM   29  C   UNL     1      39.625 -13.911  -2.377  1.00  0.00     0.000 A 
HETATM   30  C   UNL     1      40.366 -12.731  -2.300  1.00  0.00     0.001 A 
HETATM   31  C   UNL     1      40.938 -12.338  -1.090  1.00  0.00     0.007 A 
ENDBRANCH  25  26
ENDBRANCH  24  25
ENDBRANCH   4  24
TORSDOF 5
ENDMDL
MODEL 6
REMARK VINA RESULT:      -8.6      1.216      2.379
REMARK  5 active torsions:
REMARK  status: ('A' for Active; 'I' for Inactive)
REMARK    1  A    between atoms: C_7  and  C_8 
REMARK    2  A    between atoms: C_8  and  O_9 
REMARK    3  A    between atoms: N_12  and  C_13 
REMARK    4  A    between atoms: C_13  and  C_14 
REMARK    5  A    between atoms: C_14  and  C_15 
ROOT
HETATM    1  C   UNL     1      42.051 -11.596   2.621  1.00  0.00     0.199 A 
HETATM    2  C   UNL     1      42.861 -12.860   3.072  1.00  0.00     0.269 A 
HETATM    3  O   UNL     1      43.839 -13.349   2.522  1.00  0.00    -0.269 OA
HETATM    4  N   UNL     1      42.262 -13.340   4.252  1.00  0.00    -0.314 N 
HETATM    5  C   UNL     1      41.134 -12.579   4.591  1.00  0.00     0.047 A 
HETATM    6  C   UNL     1      40.957 -11.545   3.661  1.00  0.00     0.017 A 
HETATM    7  C   UNL     1      40.263 -12.743   5.653  1.00  0.00     0.030 A 
HETATM    8  C   UNL     1      39.204 -11.838   5.784  1.00  0.00     0.002 A 
HETATM    9  C   UNL     1      39.033 -10.791   4.866  1.00  0.00     0.001 A 
HETATM   10  C   UNL     1      39.918 -10.632   3.798  1.00  0.00     0.013 A 
ENDROOT
BRANCH   1  11
HETATM   11  C   UNL     1      41.454 -11.832   1.245  1.00  0.00     0.025 A 
HETATM   12  C   UNL     1      41.221 -10.933   0.199  1.00  0.00     0.016 A 
HETATM   13  C   UNL     1      41.486  -9.475   0.047  1.00  0.00     0.069 C 
HETATM   14  N   UNL     1      40.605 -11.616  -0.820  1.00  0.00    -0.359 N 
HETATM   15  H   UNL     1      40.320 -11.210  -1.699  1.00  0.00     0.166 HD
HETATM   16  C   UNL     1      40.341 -12.909  -0.456  1.00  0.00     0.043 A 
HETATM   17  C   UNL     1      40.861 -13.085   0.824  1.00  0.00     0.003 A 
HETATM   18  C   UNL     1      39.667 -13.919  -1.155  1.00  0.00     0.030 A 
HETATM   19  C   UNL     1      40.688 -14.349   1.434  1.00  0.00     0.014 A 
HETATM   20  C   UNL     1      40.017 -15.371   0.753  1.00  0.00     0.001 A 
HETATM   21  C   UNL     1      39.513 -15.155  -0.525  1.00  0.00     0.002 A 
ENDBRANCH   1  11
BRANCH   1  22
HETATM   22  O   UNL     1      42.802 -10.391   2.724  1.00  0.00    -0.371 OA
HETATM   23  H   UNL     1      43.585 -10.498   2.163  1.00  0.00     0.212 HD
ENDBRANCH   1  22
BRANCH   4  24
HETATM   24  C   UNL     1      42.631 -14.609   4.844  1.00  0.00     0.137 C 
BRANCH  24  25
HETATM   25  C   UNL     1      41.715 -15.768   4.432  1.00  0.00     0.058 C 
BRANCH  25  26
HETATM   26  C   UNL     1      42.523 -16.956   3.967  1.00  0.00    -0.057 A 
HETATM   27  C   UNL     1      43.409 -17.590   4.850  1.00  0.00     0.007 A 
HETATM   28  C   UNL     1      44.191 -18.663   4.421  1.00  0.00     0.001 A 
HETATM   29  C   UNL     1      44.090 -19.116   3.108  1.00  0.00     0.000 A 
HETATM   30  C   UNL     1      43.205 -18.498   2.225  1.00  0.00     0.001 A 
HETATM   31  C   UNL     1      42.425 -17.421   2.650  1.00  0.00     0.007 A 
ENDBRANCH  25  26
ENDBRANCH  24  25
ENDBRANCH   4  24
TORSDOF 5
ENDMDL
MODEL 7
REMARK VINA RESULT:      -8.5      2.359      5.145
REMARK  5 active torsions:
REMARK  status: ('A' for Active; 'I' for Inactive)
REMARK    1  A    between atoms: C_7  and  C_8 
REMARK    2  A    between atoms: C_8  and  O_9 
REMARK    3  A    between atoms: N_12  and  C_13 
REMARK    4  A    between atoms: C_13  and  C_14 
REMARK    5  A    between atoms: C_14  and  C_15 
ROOT
HETATM    1  C   UNL     1      40.508 -14.983   2.660  1.00  0.00     0.199 A 
HETATM    2  C   UNL     1      40.546 -14.223   4.029  1.00  0.00     0.269 A 
HETATM    3  O   UNL     1      39.881 -13.249   4.356  1.00  0.00    -0.269 OA
HETATM    4  N   UNL     1      41.492 -14.877   4.842  1.00  0.00    -0.314 N 
HETATM    5  C   UNL     1      42.109 -15.929   4.152  1.00  0.00     0.047 A 
HETATM    6  C   UNL     1      41.576 -16.033   2.859  1.00  0.00     0.017 A 
HETATM    7  C   UNL     1      43.103 -16.788   4.585  1.00  0.00     0.030 A 
HETATM    8  C   UNL     1      43.555 -17.776   3.703  1.00  0.00     0.002 A 
HETATM    9  C   UNL     1      43.011 -17.894   2.414  1.00  0.00     0.001 A 
HETATM   10  C   UNL     1      42.008 -17.024   1.986  1.00  0.00     0.013 A 
ENDROOT
BRANCH   1  11
HETATM   11  C   UNL     1      40.905 -14.040   1.537  1.00  0.00     0.025 A 
HETATM   12  C   UNL     1      41.694 -12.886   1.568  1.00  0.00     0.016 A 
HETATM   13  C   UNL     1      42.428 -12.198   2.666  1.00  0.00     0.069 C 
HETATM   14  N   UNL     1      41.710 -12.347   0.305  1.00  0.00    -0.359 N 
HETATM   15  H   UNL     1      42.203 -11.507   0.041  1.00  0.00     0.166 HD
HETATM   16  C   UNL     1      40.891 -13.048  -0.539  1.00  0.00     0.043 A 
HETATM   17  C   UNL     1      40.375 -14.117   0.191  1.00  0.00     0.003 A 
HETATM   18  C   UNL     1      40.560 -12.802  -1.878  1.00  0.00     0.030 A 
HETATM   19  C   UNL     1      39.471 -14.983  -0.466  1.00  0.00     0.014 A 
HETATM   20  C   UNL     1      39.125 -14.754  -1.803  1.00  0.00     0.001 A 
HETATM   21  C   UNL     1      39.664 -13.676  -2.497  1.00  0.00     0.002 A 
ENDBRANCH   1  11
BRANCH   1  22
HETATM   22  O   UNL     1      39.275 -15.659   2.434  1.00  0.00    -0.371 OA
HETATM   23  H   UNL     1      38.674 -15.019   2.022  1.00  0.00     0.212 HD
ENDBRANCH   1  22
BRANCH   4  24
HETATM   24  C   UNL     1      41.928 -14.332   6.110  1.00  0.00     0.137 C 
BRANCH  24  25
HETATM   25  C   UNL     1      43.352 -13.761   6.077  1.00  0.00     0.058 C 
BRANCH  25  26
HETATM   26  C   UNL     1      43.374 -12.334   6.571  1.00  0.00    -0.057 A 
HETATM   27  C   UNL     1      44.489 -11.854   7.273  1.00  0.00     0.007 A 
HETATM   28  C   UNL     1      44.505 -10.550   7.770  1.00  0.00     0.001 A 
HETATM   29  C   UNL     1      43.411  -9.713   7.563  1.00  0.00     0.000 A 
HETATM   30  C   UNL     1      42.302 -10.179   6.858  1.00  0.00     0.001 A 
HETATM   31  C   UNL     1      42.281 -11.484   6.364  1.00  0.00     0.007 A 
ENDBRANCH  25  26
ENDBRANCH  24  25
ENDBRANCH   4  24
TORSDOF 5
ENDMDL
MODEL 8
REMARK VINA RESULT:      -8.5      2.522      3.766
REMARK  5 active torsions:
REMARK  status: ('A' for Active; 'I' for Inactive)
REMARK    1  A    between atoms: C_7  and  C_8 
REMARK    2  A    between atoms: C_8  and  O_9 
REMARK    3  A    between atoms: N_12  and  C_13 
REMARK    4  A    between atoms: C_13  and  C_14 
REMARK    5  A    between atoms: C_14  and  C_15 
ROOT
HETATM    1  C   UNL     1      42.223 -12.351   3.366  1.00  0.00     0.199 A 
HETATM    2  C   UNL     1      41.922 -13.656   2.552  1.00  0.00     0.269 A 
HETATM    3  O   UNL     1      41.424 -13.736   1.437  1.00  0.00    -0.269 OA
HETATM    4  N   UNL     1      42.343 -14.744   3.340  1.00  0.00    -0.314 N 
HETATM    5  C   UNL     1      42.828 -14.311   4.582  1.00  0.00     0.047 A 
HETATM    6  C   UNL     1      42.772 -12.912   4.657  1.00  0.00     0.017 A 
HETATM    7  C   UNL     1      43.304 -15.064   5.640  1.00  0.00     0.030 A 
HETATM    8  C   UNL     1      43.744 -14.392   6.785  1.00  0.00     0.002 A 
HETATM    9  C   UNL     1      43.707 -12.991   6.857  1.00  0.00     0.001 A 
HETATM   10  C   UNL     1      43.226 -12.239   5.784  1.00  0.00     0.013 A 
ENDROOT
BRANCH   1  11
HETATM   11  C   UNL     1      40.930 -11.600   3.631  1.00  0.00     0.025 A 
HETATM   12  C   UNL     1      39.884 -11.892   4.513  1.00  0.00     0.016 A 
HETATM   13  C   UNL     1      39.675 -12.990   5.498  1.00  0.00     0.069 C 
HETATM   14  N   UNL     1      38.906 -10.943   4.342  1.00  0.00    -0.359 N 
HETATM   15  H   UNL     1      38.035 -10.913   4.852  1.00  0.00     0.166 HD
HETATM   16  C   UNL     1      39.223 -10.089   3.321  1.00  0.00     0.043 A 
HETATM   17  C   UNL     1      40.482 -10.462   2.855  1.00  0.00     0.003 A 
HETATM   18  C   UNL     1      38.483  -9.035   2.770  1.00  0.00     0.030 A 
HETATM   19  C   UNL     1      41.021  -9.733   1.770  1.00  0.00     0.014 A 
HETATM   20  C   UNL     1      40.297  -8.678   1.203  1.00  0.00     0.001 A 
HETATM   21  C   UNL     1      39.043  -8.336   1.699  1.00  0.00     0.002 A 
ENDBRANCH   1  11
BRANCH   1  22
HETATM   22  O   UNL     1      43.242 -11.551   2.775  1.00  0.00    -0.371 OA
HETATM   23  H   UNL     1      43.485 -10.876   3.428  1.00  0.00     0.212 HD
ENDBRANCH   1  22
BRANCH   4  24
HETATM   24  C   UNL     1      42.044 -16.115   2.985  1.00  0.00     0.137 C 
BRANCH  24  25
HETATM   25  C   UNL     1      43.200 -16.833   2.277  1.00  0.00     0.058 C 
BRANCH  25  26
HETATM   26  C   UNL     1      43.457 -18.186   2.896  1.00  0.00    -0.057 A 
HETATM   27  C   UNL     1      43.893 -18.277   4.226  1.00  0.00     0.007 A 
HETATM   28  C   UNL     1      44.173 -19.519   4.796  1.00  0.00     0.001 A 
HETATM   29  C   UNL     1      44.012 -20.681   4.046  1.00  0.00     0.000 A 
HETATM   30  C   UNL     1      43.570 -20.602   2.725  1.00  0.00     0.001 A 
HETATM   31  C   UNL     1      43.294 -19.360   2.151  1.00  0.00     0.007 A 
ENDBRANCH  25  26
ENDBRANCH  24  25
ENDBRANCH   4  24
TORSDOF 5
ENDMDL
MODEL 9
REMARK VINA RESULT:      -8.2     15.339     17.416
REMARK  5 active torsions:
REMARK  status: ('A' for Active; 'I' for Inactive)
REMARK    1  A    between atoms: C_7  and  C_8 
REMARK    2  A    between atoms: C_8  and  O_9 
REMARK    3  A    between atoms: N_12  and  C_13 
REMARK    4  A    between atoms: C_13  and  C_14 
REMARK    5  A    between atoms: C_14  and  C_15 
ROOT
HETATM    1  C   UNL     1      46.626 -28.990   1.239  1.00  0.00     0.199 A 
HETATM    2  C   UNL     1      45.329 -29.662   1.807  1.00  0.00     0.269 A 
HETATM    3  O   UNL     1      45.162 -30.121   2.929  1.00  0.00    -0.269 OA
HETATM    4  N   UNL     1      44.363 -29.635   0.783  1.00  0.00    -0.314 N 
HETATM    5  C   UNL     1      44.890 -29.080  -0.393  1.00  0.00     0.047 A 
HETATM    6  C   UNL     1      46.221 -28.692  -0.185  1.00  0.00     0.017 A 
HETATM    7  C   UNL     1      44.277 -28.903  -1.620  1.00  0.00     0.030 A 
HETATM    8  C   UNL     1      45.017 -28.312  -2.649  1.00  0.00     0.002 A 
HETATM    9  C   UNL     1      46.344 -27.905  -2.441  1.00  0.00     0.001 A 
HETATM   10  C   UNL     1      46.954 -28.086  -1.198  1.00  0.00     0.013 A 
ENDROOT
BRANCH   1  11
HETATM   11  C   UNL     1      47.772 -29.987   1.259  1.00  0.00     0.025 A 
HETATM   12  C   UNL     1      48.023 -31.086   0.430  1.00  0.00     0.016 A 
HETATM   13  C   UNL     1      47.301 -31.645  -0.746  1.00  0.00     0.069 C 
HETATM   14  N   UNL     1      49.155 -31.713   0.888  1.00  0.00    -0.359 N 
HETATM   15  H   UNL     1      49.565 -32.539   0.476  1.00  0.00     0.166 HD
HETATM   16  C   UNL     1      49.611 -31.128   2.038  1.00  0.00     0.043 A 
HETATM   17  C   UNL     1      48.779 -30.042   2.299  1.00  0.00     0.003 A 
HETATM   18  C   UNL     1      50.681 -31.491   2.867  1.00  0.00     0.030 A 
HETATM   19  C   UNL     1      49.037 -29.284   3.464  1.00  0.00     0.014 A 
HETATM   20  C   UNL     1      50.099 -29.631   4.307  1.00  0.00     0.001 A 
HETATM   21  C   UNL     1      50.908 -30.722   4.010  1.00  0.00     0.002 A 
ENDBRANCH   1  11
BRANCH   1  22
HETATM   22  O   UNL     1      46.931 -27.751   1.871  1.00  0.00    -0.371 OA
HETATM   23  H   UNL     1      46.142 -27.486   2.368  1.00  0.00     0.212 HD
ENDBRANCH   1  22
BRANCH   4  24
HETATM   24  C   UNL     1      43.104 -30.341   0.890  1.00  0.00     0.137 C 
BRANCH  24  25
HETATM   25  C   UNL     1      42.050 -29.595   1.718  1.00  0.00     0.058 C 
BRANCH  25  26
HETATM   26  C   UNL     1      41.323 -30.539   2.645  1.00  0.00    -0.057 A 
HETATM   27  C   UNL     1      40.569 -31.598   2.116  1.00  0.00     0.007 A 
HETATM   28  C   UNL     1      39.859 -32.453   2.960  1.00  0.00     0.001 A 
HETATM   29  C   UNL     1      39.902 -32.262   4.339  1.00  0.00     0.000 A 
HETATM   30  C   UNL     1      40.657 -31.218   4.874  1.00  0.00     0.001 A 
HETATM   31  C   UNL     1      41.364 -30.359   4.032  1.00  0.00     0.007 A 
ENDBRANCH  25  26
ENDBRANCH  24  25
ENDBRANCH   4  24
TORSDOF 5
ENDMDL
MODEL 10
REMARK VINA RESULT:      -8.1     15.419     18.894
REMARK  5 active torsions:
REMARK  status: ('A' for Active; 'I' for Inactive)
REMARK    1  A    between atoms: C_7  and  C_8 
REMARK    2  A    between atoms: C_8  and  O_9 
REMARK    3  A    between atoms: N_12  and  C_13 
REMARK    4  A    between atoms: C_13  and  C_14 
REMARK    5  A    between atoms: C_14  and  C_15 
ROOT
HETATM    1  C   UNL     1      49.663 -29.906   2.088  1.00  0.00     0.199 A 
HETATM    2  C   UNL     1      48.346 -29.057   2.056  1.00  0.00     0.269 A 
HETATM    3  O   UNL     1      47.725 -28.614   3.013  1.00  0.00    -0.269 OA
HETATM    4  N   UNL     1      47.999 -28.878   0.703  1.00  0.00    -0.314 N 
HETATM    5  C   UNL     1      48.895 -29.550  -0.141  1.00  0.00     0.047 A 
HETATM    6  C   UNL     1      49.889 -30.180   0.620  1.00  0.00     0.017 A 
HETATM    7  C   UNL     1      48.884 -29.643  -1.521  1.00  0.00     0.030 A 
HETATM    8  C   UNL     1      49.903 -30.374  -2.142  1.00  0.00     0.002 A 
HETATM    9  C   UNL     1      50.911 -30.991  -1.385  1.00  0.00     0.001 A 
HETATM   10  C   UNL     1      50.914 -30.890   0.007  1.00  0.00     0.013 A 
ENDROOT
BRANCH   1  11
HETATM   11  C   UNL     1      49.418 -31.207   2.832  1.00  0.00     0.025 A 
HETATM   12  C   UNL     1      48.441 -32.188   2.630  1.00  0.00     0.016 A 
HETATM   13  C   UNL     1      47.342 -32.325   1.635  1.00  0.00     0.069 C 
HETATM   14  N   UNL     1      48.597 -33.148   3.601  1.00  0.00    -0.359 N 
HETATM   15  H   UNL     1      48.023 -33.973   3.694  1.00  0.00     0.166 HD
HETATM   16  C   UNL     1      49.577 -32.796   4.488  1.00  0.00     0.043 A 
HETATM   17  C   UNL     1      50.119 -31.593   4.039  1.00  0.00     0.003 A 
HETATM   18  C   UNL     1      50.005 -33.441   5.656  1.00  0.00     0.030 A 
HETATM   19  C   UNL     1      51.147 -31.008   4.814  1.00  0.00     0.014 A 
HETATM   20  C   UNL     1      51.587 -31.636   5.985  1.00  0.00     0.001 A 
HETATM   21  C   UNL     1      51.021 -32.837   6.399  1.00  0.00     0.002 A 
ENDBRANCH   1  11
BRANCH   1  22
HETATM   22  O   UNL     1      50.785 -29.172   2.569  1.00  0.00    -0.371 OA
HETATM   23  H   UNL     1      50.563 -28.871   3.463  1.00  0.00     0.212 HD
ENDBRANCH   1  22
BRANCH   4  24
HETATM   24  C   UNL     1      46.733 -28.304   0.301  1.00  0.00     0.137 C 
BRANCH  24  25
HETATM   25  C   UNL     1      45.650 -29.349   0.004  1.00  0.00     0.058 C 
BRANCH  25  26
HETATM   26  C   UNL     1      45.188 -29.257  -1.431  1.00  0.00    -0.057 A 
HETATM   27  C   UNL     1      44.434 -30.298  -1.992  1.00  0.00     0.007 A 
HETATM   28  C   UNL     1      44.036 -30.244  -3.328  1.00  0.00     0.001 A 
HETATM   29  C   UNL     1      44.382 -29.147  -4.113  1.00  0.00     0.000 A 
HETATM   30  C   UNL     1      45.124 -28.102  -3.561  1.00  0.00     0.001 A 
HETATM   31  C   UNL     1      45.528 -28.157  -2.226  1.00  0.00     0.007 A 
ENDBRANCH  25  26
ENDBRANCH  24  25
ENDBRANCH   4  24
TORSDOF 5
ENDMDL
