MODEL 1
REMARK VINA RESULT:      -9.2      0.000      0.000
REMARK  7 active torsions:
REMARK  status: ('A' for Active; 'I' for Inactive)
REMARK    1  A    between atoms: C_2  and  N_3 
REMARK    2  A    between atoms: C_2  and  C_10 
REMARK    3  A    between atoms: N_11  and  C_12 
REMARK    4  A    between atoms: C_19  and  S_20 
REMARK    5  A    between atoms: S_20  and  C_21 
REMARK    6  A    between atoms: C_21  and  C_22 
REMARK    7  A    between atoms: C_21  and  C_28 
REMARK       I    between atoms: C_22  and  N_23 
REMARK       I    between atoms: N_23  and  C_24 
REMARK       I    between atoms: C_24  and  N_25 
ROOT
HETATM    1  C   UNL     1      40.616 -12.064   1.892  1.00  0.00     0.166 A 
HETATM    2  N   UNL     1      41.661 -12.766   2.483  1.00  0.00    -0.274 N 
HETATM    3  C   UNL     1      42.387 -11.788   3.139  1.00  0.00     0.197 A 
HETATM    4  N   UNL     1      41.863 -10.606   2.906  1.00  0.00    -0.122 NA
HETATM    5  N   UNL     1      40.759 -10.775   2.120  1.00  0.00    -0.131 NA
ENDROOT
BRANCH   3   6
HETATM    6  S   UNL     1      43.861 -12.014   4.020  1.00  0.00    -0.070 SA
BRANCH   6   7
HETATM    7  C   UNL     1      43.288 -12.001   5.758  1.00  0.00     0.180 C 
BRANCH   7   8
HETATM    8  C   UNL     1      42.950 -13.432   6.206  1.00  0.00     0.244 C 
HETATM    9  N   UNL     1      41.606 -13.673   6.444  1.00  0.00    -0.278 N 
HETATM   10  C   UNL     1      40.972 -14.868   6.622  1.00  0.00     0.320 C 
HETATM   11  H   UNL     1      40.944 -12.914   6.337  1.00  0.00     0.173 HD
HETATM   12  N   UNL     1      41.742 -15.975   6.641  1.00  0.00    -0.352 N 
HETATM   13  O   UNL     1      39.753 -14.934   6.717  1.00  0.00    -0.247 OA
HETATM   14  H   UNL     1      42.737 -15.887   6.807  1.00  0.00     0.160 HD
HETATM   15  H   UNL     1      41.284 -16.849   6.861  1.00  0.00     0.160 HD
HETATM   16  O   UNL     1      43.850 -14.253   6.418  1.00  0.00    -0.271 OA
ENDBRANCH   7   8
BRANCH   7  17
HETATM   17  C   UNL     1      44.200 -11.273   6.743  1.00  0.00    -0.035 A 
HETATM   18  C   UNL     1      45.595 -11.186   6.608  1.00  0.00     0.009 A 
HETATM   19  C   UNL     1      46.369 -10.526   7.568  1.00  0.00     0.001 A 
HETATM   20  C   UNL     1      45.766  -9.955   8.684  1.00  0.00     0.000 A 
HETATM   21  C   UNL     1      44.387 -10.038   8.843  1.00  0.00     0.001 A 
HETATM   22  C   UNL     1      43.611 -10.689   7.883  1.00  0.00     0.009 A 
ENDBRANCH   7  17
ENDBRANCH   6   7
ENDBRANCH   3   6
BRANCH   2  23
HETATM   23  C   UNL     1      41.892 -14.161   2.423  1.00  0.00     0.043 A 
HETATM   24  C   UNL     1      42.987 -14.648   1.691  1.00  0.00     0.033 A 
HETATM   25  C   UNL     1      43.220 -16.023   1.630  1.00  0.00     0.044 A 
HETATM   26  C   UNL     1      42.370 -16.896   2.298  1.00  0.00     0.116 A 
HETATM   27  F   UNL     1      42.598 -18.213   2.233  1.00  0.00    -0.206 F 
HETATM   28  C   UNL     1      41.293 -16.421   3.037  1.00  0.00     0.044 A 
HETATM   29  C   UNL     1      41.050 -15.048   3.106  1.00  0.00     0.033 A 
ENDBRANCH   2  23
BRANCH   1  30
HETATM   30  C   UNL     1      39.396 -12.654   1.250  1.00  0.00     0.255 C 
HETATM   31  C   UNL     1      38.186 -11.803   1.659  1.00  0.00     0.049 C 
BRANCH  30  32
HETATM   32  N   UNL     1      39.540 -12.677  -0.290  1.00  0.00    -0.060 N 
HETATM   33  H   UNL     1      40.345 -12.059  -0.484  1.00  0.00     0.280 HD
HETATM   34  C   UNL     1      39.939 -14.060  -0.782  1.00  0.00     0.236 C 
HETATM   35  C   UNL     1      40.198 -14.034  -2.281  1.00  0.00     0.028 C 
HETATM   36  C   UNL     1      38.987 -13.521  -3.045  1.00  0.00     0.003 C 
HETATM   37  C   UNL     1      38.580 -12.149  -2.533  1.00  0.00     0.028 C 
HETATM   38  C   UNL     1      38.333 -12.150  -1.032  1.00  0.00     0.236 C 
ENDBRANCH  30  32
ENDBRANCH   1  30
TORSDOF 7
ENDMDL
MODEL 2
REMARK VINA RESULT:      -8.8      2.180      3.449
REMARK  7 active torsions:
REMARK  status: ('A' for Active; 'I' for Inactive)
REMARK    1  A    between atoms: C_2  and  N_3 
REMARK    2  A    between atoms: C_2  and  C_10 
REMARK    3  A    between atoms: N_11  and  C_12 
REMARK    4  A    between atoms: C_19  and  S_20 
REMARK    5  A    between atoms: S_20  and  C_21 
REMARK    6  A    between atoms: C_21  and  C_22 
REMARK    7  A    between atoms: C_21  and  C_28 
REMARK       I    between atoms: C_22  and  N_23 
REMARK       I    between atoms: N_23  and  C_24 
REMARK       I    between atoms: C_24  and  N_25 
ROOT
HETATM    1  C   UNL     1      40.669 -12.049   2.048  1.00  0.00     0.166 A 
HETATM    2  N   UNL     1      41.614 -12.783   2.756  1.00  0.00    -0.274 N 
HETATM    3  C   UNL     1      42.121 -11.874   3.668  1.00  0.00     0.197 A 
HETATM    4  N   UNL     1      41.578 -10.693   3.478  1.00  0.00    -0.122 NA
HETATM    5  N   UNL     1      40.673 -10.798   2.460  1.00  0.00    -0.131 NA
ENDROOT
BRANCH   3   6
HETATM    6  S   UNL     1      43.393 -12.158   4.808  1.00  0.00    -0.070 SA
BRANCH   6   7
HETATM    7  C   UNL     1      42.522 -13.022   6.166  1.00  0.00     0.180 C 
BRANCH   7   8
HETATM    8  C   UNL     1      41.052 -12.576   6.209  1.00  0.00     0.244 C 
HETATM    9  N   UNL     1      40.833 -11.318   6.749  1.00  0.00    -0.278 N 
HETATM   10  C   UNL     1      39.698 -10.562   6.715  1.00  0.00     0.320 C 
HETATM   11  H   UNL     1      41.623 -10.789   7.097  1.00  0.00     0.173 HD
HETATM   12  N   UNL     1      38.608 -11.113   6.145  1.00  0.00    -0.352 N 
HETATM   13  O   UNL     1      39.685  -9.415   7.146  1.00  0.00    -0.247 OA
HETATM   14  H   UNL     1      38.564 -12.117   6.023  1.00  0.00     0.160 HD
HETATM   15  H   UNL     1      37.746 -10.588   6.198  1.00  0.00     0.160 HD
HETATM   16  O   UNL     1      40.150 -13.349   5.865  1.00  0.00    -0.271 OA
ENDBRANCH   7   8
BRANCH   7  17
HETATM   17  C   UNL     1      42.680 -14.541   6.185  1.00  0.00    -0.035 A 
HETATM   18  C   UNL     1      41.788 -15.418   6.824  1.00  0.00     0.009 A 
HETATM   19  C   UNL     1      42.015 -16.797   6.824  1.00  0.00     0.001 A 
HETATM   20  C   UNL     1      43.141 -17.323   6.198  1.00  0.00     0.000 A 
HETATM   21  C   UNL     1      44.042 -16.473   5.568  1.00  0.00     0.001 A 
HETATM   22  C   UNL     1      43.815 -15.096   5.559  1.00  0.00     0.009 A 
ENDBRANCH   7  17
ENDBRANCH   6   7
ENDBRANCH   3   6
BRANCH   2  23
HETATM   23  C   UNL     1      41.948 -14.145   2.573  1.00  0.00     0.043 A 
HETATM   24  C   UNL     1      41.082 -15.139   3.056  1.00  0.00     0.033 A 
HETATM   25  C   UNL     1      41.406 -16.485   2.875  1.00  0.00     0.044 A 
HETATM   26  C   UNL     1      42.579 -16.829   2.215  1.00  0.00     0.116 A 
HETATM   27  F   UNL     1      42.884 -18.121   2.048  1.00  0.00    -0.206 F 
HETATM   28  C   UNL     1      43.434 -15.851   1.721  1.00  0.00     0.044 A 
HETATM   29  C   UNL     1      43.121 -14.501   1.894  1.00  0.00     0.033 A 
ENDBRANCH   2  23
BRANCH   1  30
HETATM   30  C   UNL     1      39.650 -12.595   1.092  1.00  0.00     0.255 C 
HETATM   31  C   UNL     1      38.499 -11.584   0.996  1.00  0.00     0.049 C 
BRANCH  30  32
HETATM   32  N   UNL     1      40.275 -12.831  -0.304  1.00  0.00    -0.060 N 
HETATM   33  H   UNL     1      41.124 -13.390  -0.117  1.00  0.00     0.280 HD
HETATM   34  C   UNL     1      39.375 -13.702  -1.167  1.00  0.00     0.236 C 
HETATM   35  C   UNL     1      40.060 -14.026  -2.486  1.00  0.00     0.028 C 
HETATM   36  C   UNL     1      40.458 -12.762  -3.232  1.00  0.00     0.003 C 
HETATM   37  C   UNL     1      41.339 -11.885  -2.355  1.00  0.00     0.028 C 
HETATM   38  C   UNL     1      40.679 -11.563  -1.023  1.00  0.00     0.236 C 
ENDBRANCH  30  32
ENDBRANCH   1  30
TORSDOF 7
ENDMDL
MODEL 3
REMARK VINA RESULT:      -8.7      3.363      7.826
REMARK  7 active torsions:
REMARK  status: ('A' for Active; 'I' for Inactive)
REMARK    1  A    between atoms: C_2  and  N_3 
REMARK    2  A    between atoms: C_2  and  C_10 
REMARK    3  A    between atoms: N_11  and  C_12 
REMARK    4  A    between atoms: C_19  and  S_20 
REMARK    5  A    between atoms: S_20  and  C_21 
REMARK    6  A    between atoms: C_21  and  C_22 
REMARK    7  A    between atoms: C_21  and  C_28 
REMARK       I    between atoms: C_22  and  N_23 
REMARK       I    between atoms: N_23  and  C_24 
REMARK       I    between atoms: C_24  and  N_25 
ROOT
HETATM    1  C   UNL     1      41.016 -11.783   6.080  1.00  0.00     0.166 A 
HETATM    2  N   UNL     1      42.241 -12.440   6.064  1.00  0.00    -0.274 N 
HETATM    3  C   UNL     1      41.935 -13.696   5.572  1.00  0.00     0.197 A 
HETATM    4  N   UNL     1      40.641 -13.801   5.375  1.00  0.00    -0.122 NA
HETATM    5  N   UNL     1      40.062 -12.607   5.699  1.00  0.00    -0.131 NA
ENDROOT
BRANCH   3   6
HETATM    6  S   UNL     1      43.033 -15.020   5.370  1.00  0.00    -0.070 SA
BRANCH   6   7
HETATM    7  C   UNL     1      42.319 -15.913   3.941  1.00  0.00     0.180 C 
BRANCH   7   8
HETATM    8  C   UNL     1      42.335 -15.007   2.700  1.00  0.00     0.244 C 
HETATM    9  N   UNL     1      41.088 -14.702   2.176  1.00  0.00    -0.278 N 
HETATM   10  C   UNL     1      40.762 -13.760   1.245  1.00  0.00     0.320 C 
HETATM   11  H   UNL     1      40.263 -15.098   2.610  1.00  0.00     0.173 HD
HETATM   12  N   UNL     1      41.775 -13.063   0.694  1.00  0.00    -0.352 N 
HETATM   13  O   UNL     1      39.594 -13.529   0.956  1.00  0.00    -0.247 OA
HETATM   14  H   UNL     1      42.720 -13.424   0.756  1.00  0.00     0.160 HD
HETATM   15  H   UNL     1      41.542 -12.428  -0.057  1.00  0.00     0.160 HD
HETATM   16  O   UNL     1      43.406 -14.673   2.180  1.00  0.00    -0.271 OA
ENDBRANCH   7   8
BRANCH   7  17
HETATM   17  C   UNL     1      42.907 -17.296   3.672  1.00  0.00    -0.035 A 
HETATM   18  C   UNL     1      43.794 -17.957   4.538  1.00  0.00     0.009 A 
HETATM   19  C   UNL     1      44.315 -19.212   4.210  1.00  0.00     0.001 A 
HETATM   20  C   UNL     1      43.971 -19.822   3.008  1.00  0.00     0.000 A 
HETATM   21  C   UNL     1      43.104 -19.181   2.131  1.00  0.00     0.001 A 
HETATM   22  C   UNL     1      42.575 -17.932   2.459  1.00  0.00     0.009 A 
ENDBRANCH   7  17
ENDBRANCH   6   7
ENDBRANCH   3   6
BRANCH   2  23
HETATM   23  C   UNL     1      43.495 -11.914   6.453  1.00  0.00     0.043 A 
HETATM   24  C   UNL     1      43.743 -11.651   7.810  1.00  0.00     0.033 A 
HETATM   25  C   UNL     1      44.980 -11.133   8.199  1.00  0.00     0.044 A 
HETATM   26  C   UNL     1      45.956 -10.888   7.241  1.00  0.00     0.116 A 
HETATM   27  F   UNL     1      47.139 -10.390   7.622  1.00  0.00    -0.206 F 
HETATM   28  C   UNL     1      45.725 -11.160   5.898  1.00  0.00     0.044 A 
HETATM   29  C   UNL     1      44.492 -11.679   5.497  1.00  0.00     0.033 A 
ENDBRANCH   2  23
BRANCH   1  30
HETATM   30  C   UNL     1      40.793 -10.317   6.304  1.00  0.00     0.255 C 
HETATM   31  C   UNL     1      39.520  -9.909   5.549  1.00  0.00     0.049 C 
BRANCH  30  32
HETATM   32  N   UNL     1      40.645 -10.006   7.813  1.00  0.00    -0.060 N 
HETATM   33  H   UNL     1      41.112 -10.796   8.287  1.00  0.00     0.280 HD
HETATM   34  C   UNL     1      41.428  -8.759   8.195  1.00  0.00     0.236 C 
HETATM   35  C   UNL     1      41.374  -8.541   9.699  1.00  0.00     0.028 C 
HETATM   36  C   UNL     1      39.939  -8.446  10.196  1.00  0.00     0.003 C 
HETATM   37  C   UNL     1      39.156  -9.686   9.791  1.00  0.00     0.028 C 
HETATM   38  C   UNL     1      39.212  -9.932   8.291  1.00  0.00     0.236 C 
ENDBRANCH  30  32
ENDBRANCH   1  30
TORSDOF 7
ENDMDL
MODEL 4
REMARK VINA RESULT:      -8.7      2.069      3.534
REMARK  7 active torsions:
REMARK  status: ('A' for Active; 'I' for Inactive)
REMARK    1  A    between atoms: C_2  and  N_3 
REMARK    2  A    between atoms: C_2  and  C_10 
REMARK    3  A    between atoms: N_11  and  C_12 
REMARK    4  A    between atoms: C_19  and  S_20 
REMARK    5  A    between atoms: S_20  and  C_21 
REMARK    6  A    between atoms: C_21  and  C_22 
REMARK    7  A    between atoms: C_21  and  C_28 
REMARK       I    between atoms: C_22  and  N_23 
REMARK       I    between atoms: N_23  and  C_24 
REMARK       I    between atoms: C_24  and  N_25 
ROOT
HETATM    1  C   UNL     1      40.944 -12.200   1.530  1.00  0.00     0.166 A 
HETATM    2  N   UNL     1      41.240 -12.923   2.681  1.00  0.00    -0.274 N 
HETATM    3  C   UNL     1      40.987 -12.029   3.706  1.00  0.00     0.197 A 
HETATM    4  N   UNL     1      40.636 -10.864   3.212  1.00  0.00    -0.122 NA
HETATM    5  N   UNL     1      40.615 -10.965   1.850  1.00  0.00    -0.131 NA
ENDROOT
BRANCH   3   6
HETATM    6  S   UNL     1      41.228 -12.307   5.399  1.00  0.00    -0.070 SA
BRANCH   6   7
HETATM    7  C   UNL     1      42.954 -12.912   5.459  1.00  0.00     0.180 C 
BRANCH   7   8
HETATM    8  C   UNL     1      43.848 -11.869   6.148  1.00  0.00     0.244 C 
HETATM    9  N   UNL     1      43.616 -11.697   7.504  1.00  0.00    -0.278 N 
HETATM   10  C   UNL     1      44.377 -11.034   8.421  1.00  0.00     0.320 C 
HETATM   11  H   UNL     1      42.879 -12.230   7.947  1.00  0.00     0.173 HD
HETATM   12  N   UNL     1      45.473 -10.396   7.966  1.00  0.00    -0.352 N 
HETATM   13  O   UNL     1      44.098 -11.056   9.614  1.00  0.00    -0.247 OA
HETATM   14  H   UNL     1      45.551 -10.183   6.978  1.00  0.00     0.160 HD
HETATM   15  H   UNL     1      45.988  -9.833   8.630  1.00  0.00     0.160 HD
HETATM   16  O   UNL     1      44.641 -11.187   5.488  1.00  0.00    -0.271 OA
ENDBRANCH   7   8
BRANCH   7  17
HETATM   17  C   UNL     1      43.137 -14.317   6.028  1.00  0.00    -0.035 A 
HETATM   18  C   UNL     1      44.325 -15.059   5.928  1.00  0.00     0.009 A 
HETATM   19  C   UNL     1      44.409 -16.353   6.449  1.00  0.00     0.001 A 
HETATM   20  C   UNL     1      43.305 -16.934   7.065  1.00  0.00     0.000 A 
HETATM   21  C   UNL     1      42.115 -16.223   7.165  1.00  0.00     0.001 A 
HETATM   22  C   UNL     1      42.031 -14.927   6.654  1.00  0.00     0.009 A 
ENDBRANCH   7  17
ENDBRANCH   6   7
ENDBRANCH   3   6
BRANCH   2  23
HETATM   23  C   UNL     1      41.683 -14.264   2.753  1.00  0.00     0.043 A 
HETATM   24  C   UNL     1      40.831 -15.244   3.288  1.00  0.00     0.033 A 
HETATM   25  C   UNL     1      41.263 -16.570   3.360  1.00  0.00     0.044 A 
HETATM   26  C   UNL     1      42.529 -16.908   2.897  1.00  0.00     0.116 A 
HETATM   27  F   UNL     1      42.936 -18.181   2.971  1.00  0.00    -0.206 F 
HETATM   28  C   UNL     1      43.372 -15.947   2.352  1.00  0.00     0.044 A 
HETATM   29  C   UNL     1      42.951 -14.618   2.273  1.00  0.00     0.033 A 
ENDBRANCH   2  23
BRANCH   1  30
HETATM   30  C   UNL     1      40.818 -12.748   0.140  1.00  0.00     0.255 C 
HETATM   31  C   UNL     1      39.810 -13.905   0.175  1.00  0.00     0.049 C 
BRANCH  30  32
HETATM   32  N   UNL     1      40.345 -11.652  -0.844  1.00  0.00    -0.060 N 
HETATM   33  H   UNL     1      40.481 -10.766  -0.331  1.00  0.00     0.280 HD
HETATM   34  C   UNL     1      41.253 -11.581  -2.063  1.00  0.00     0.236 C 
HETATM   35  C   UNL     1      40.848 -10.418  -2.956  1.00  0.00     0.028 C 
HETATM   36  C   UNL     1      39.390 -10.523  -3.379  1.00  0.00     0.003 C 
HETATM   37  C   UNL     1      38.490 -10.618  -2.157  1.00  0.00     0.028 C 
HETATM   38  C   UNL     1      38.890 -11.765  -1.240  1.00  0.00     0.236 C 
ENDBRANCH  30  32
ENDBRANCH   1  30
TORSDOF 7
ENDMDL
MODEL 5
REMARK VINA RESULT:      -8.7      3.370      5.371
REMARK  7 active torsions:
REMARK  status: ('A' for Active; 'I' for Inactive)
REMARK    1  A    between atoms: C_2  and  N_3 
REMARK    2  A    between atoms: C_2  and  C_10 
REMARK    3  A    between atoms: N_11  and  C_12 
REMARK    4  A    between atoms: C_19  and  S_20 
REMARK    5  A    between atoms: S_20  and  C_21 
REMARK    6  A    between atoms: C_21  and  C_22 
REMARK    7  A    between atoms: C_21  and  C_28 
REMARK       I    between atoms: C_22  and  N_23 
REMARK       I    between atoms: N_23  and  C_24 
REMARK       I    between atoms: C_24  and  N_25 
ROOT
HETATM    1  C   UNL     1      40.177 -12.971  -0.505  1.00  0.00     0.166 A 
HETATM    2  N   UNL     1      40.320 -13.224   0.855  1.00  0.00    -0.274 N 
HETATM    3  C   UNL     1      40.161 -14.595   0.954  1.00  0.00     0.197 A 
HETATM    4  N   UNL     1      39.883 -15.103  -0.225  1.00  0.00    -0.122 NA
HETATM    5  N   UNL     1      39.886 -14.088  -1.139  1.00  0.00    -0.131 NA
ENDROOT
BRANCH   3   6
HETATM    6  S   UNL     1      40.165 -15.531   2.412  1.00  0.00    -0.070 SA
BRANCH   6   7
HETATM    7  C   UNL     1      41.914 -15.433   2.941  1.00  0.00     0.180 C 
BRANCH   7   8
HETATM    8  C   UNL     1      42.039 -14.503   4.158  1.00  0.00     0.244 C 
HETATM    9  N   UNL     1      40.867 -14.302   4.870  1.00  0.00    -0.278 N 
HETATM   10  C   UNL     1      40.702 -13.734   6.099  1.00  0.00     0.320 C 
HETATM   11  H   UNL     1      40.014 -14.743   4.547  1.00  0.00     0.173 HD
HETATM   12  N   UNL     1      41.801 -13.232   6.696  1.00  0.00    -0.352 N 
HETATM   13  O   UNL     1      39.609 -13.721   6.652  1.00  0.00    -0.247 OA
HETATM   14  H   UNL     1      42.623 -13.031   6.140  1.00  0.00     0.160 HD
HETATM   15  H   UNL     1      41.665 -12.734   7.566  1.00  0.00     0.160 HD
HETATM   16  O   UNL     1      43.104 -13.921   4.398  1.00  0.00    -0.271 OA
ENDBRANCH   7   8
BRANCH   7  17
HETATM   17  C   UNL     1      42.612 -16.775   3.146  1.00  0.00    -0.035 A 
HETATM   18  C   UNL     1      43.373 -17.101   4.282  1.00  0.00     0.009 A 
HETATM   19  C   UNL     1      44.008 -18.341   4.387  1.00  0.00     0.001 A 
HETATM   20  C   UNL     1      43.909 -19.271   3.356  1.00  0.00     0.000 A 
HETATM   21  C   UNL     1      43.171 -18.965   2.219  1.00  0.00     0.001 A 
HETATM   22  C   UNL     1      42.527 -17.731   2.114  1.00  0.00     0.009 A 
ENDBRANCH   7  17
ENDBRANCH   6   7
ENDBRANCH   3   6
BRANCH   2  23
HETATM   23  C   UNL     1      40.582 -12.279   1.874  1.00  0.00     0.043 A 
HETATM   24  C   UNL     1      41.865 -11.721   1.986  1.00  0.00     0.033 A 
HETATM   25  C   UNL     1      42.128 -10.786   2.990  1.00  0.00     0.044 A 
HETATM   26  C   UNL     1      41.115 -10.412   3.865  1.00  0.00     0.116 A 
HETATM   27  F   UNL     1      41.374  -9.517   4.825  1.00  0.00    -0.206 F 
HETATM   28  C   UNL     1      39.837 -10.948   3.751  1.00  0.00     0.044 A 
HETATM   29  C   UNL     1      39.562 -11.883   2.751  1.00  0.00     0.033 A 
ENDBRANCH   2  23
BRANCH   1  30
HETATM   30  C   UNL     1      40.483 -11.683  -1.209  1.00  0.00     0.255 C 
HETATM   31  C   UNL     1      41.217 -12.020  -2.516  1.00  0.00     0.049 C 
BRANCH  30  32
HETATM   32  N   UNL     1      39.186 -10.897  -1.510  1.00  0.00    -0.060 N 
HETATM   33  H   UNL     1      39.448  -9.905  -1.381  1.00  0.00     0.280 HD
HETATM   34  C   UNL     1      38.783 -11.042  -2.970  1.00  0.00     0.236 C 
HETATM   35  C   UNL     1      37.579 -10.163  -3.276  1.00  0.00     0.028 C 
HETATM   36  C   UNL     1      36.408 -10.486  -2.361  1.00  0.00     0.003 C 
HETATM   37  C   UNL     1      36.824 -10.361  -0.904  1.00  0.00     0.028 C 
HETATM   38  C   UNL     1      38.038 -11.220  -0.581  1.00  0.00     0.236 C 
ENDBRANCH  30  32
ENDBRANCH   1  30
TORSDOF 7
ENDMDL
MODEL 6
REMARK VINA RESULT:      -8.6      3.146      5.634
REMARK  7 active torsions:
REMARK  status: ('A' for Active; 'I' for Inactive)
REMARK    1  A    between atoms: C_2  and  N_3 
REMARK    2  A    between atoms: C_2  and  C_10 
REMARK    3  A    between atoms: N_11  and  C_12 
REMARK    4  A    between atoms: C_19  and  S_20 
REMARK    5  A    between atoms: S_20  and  C_21 
REMARK    6  A    between atoms: C_21  and  C_22 
REMARK    7  A    between atoms: C_21  and  C_28 
REMARK       I    between atoms: C_22  and  N_23 
REMARK       I    between atoms: N_23  and  C_24 
REMARK       I    between atoms: C_24  and  N_25 
ROOT
HETATM    1  C   UNL     1      41.033 -11.082   0.578  1.00  0.00     0.166 A 
HETATM    2  N   UNL     1      40.686 -12.404   0.319  1.00  0.00    -0.274 N 
HETATM    3  C   UNL     1      41.307 -13.112   1.333  1.00  0.00     0.197 A 
HETATM    4  N   UNL     1      42.011 -12.298   2.086  1.00  0.00    -0.122 NA
HETATM    5  N   UNL     1      41.847 -11.028   1.612  1.00  0.00    -0.131 NA
ENDROOT
BRANCH   3   6
HETATM    6  S   UNL     1      41.313 -14.832   1.535  1.00  0.00    -0.070 SA
BRANCH   6   7
HETATM    7  C   UNL     1      42.350 -15.052   3.026  1.00  0.00     0.180 C 
BRANCH   7   8
HETATM    8  C   UNL     1      41.603 -14.527   4.263  1.00  0.00     0.244 C 
HETATM    9  N   UNL     1      42.230 -13.488   4.934  1.00  0.00    -0.278 N 
HETATM   10  C   UNL     1      41.725 -12.672   5.903  1.00  0.00     0.320 C 
HETATM   11  H   UNL     1      43.127 -13.159   4.600  1.00  0.00     0.173 HD
HETATM   12  N   UNL     1      40.474 -12.929   6.333  1.00  0.00    -0.352 N 
HETATM   13  O   UNL     1      42.367 -11.721   6.331  1.00  0.00    -0.247 OA
HETATM   14  H   UNL     1      40.063 -13.838   6.157  1.00  0.00     0.160 HD
HETATM   15  H   UNL     1      40.133 -12.381   7.111  1.00  0.00     0.160 HD
HETATM   16  O   UNL     1      40.568 -15.080   4.653  1.00  0.00    -0.271 OA
ENDBRANCH   7   8
BRANCH   7  17
HETATM   17  C   UNL     1      42.917 -16.455   3.229  1.00  0.00    -0.035 A 
HETATM   18  C   UNL     1      43.671 -16.845   4.349  1.00  0.00     0.009 A 
HETATM   19  C   UNL     1      44.184 -18.142   4.451  1.00  0.00     0.001 A 
HETATM   20  C   UNL     1      43.965 -19.066   3.435  1.00  0.00     0.000 A 
HETATM   21  C   UNL     1      43.230 -18.698   2.313  1.00  0.00     0.001 A 
HETATM   22  C   UNL     1      42.710 -17.407   2.211  1.00  0.00     0.009 A 
ENDBRANCH   7  17
ENDBRANCH   6   7
ENDBRANCH   3   6
BRANCH   2  23
HETATM   23  C   UNL     1      39.873 -12.881  -0.736  1.00  0.00     0.043 A 
HETATM   24  C   UNL     1      40.434 -13.713  -1.718  1.00  0.00     0.033 A 
HETATM   25  C   UNL     1      39.634 -14.188  -2.760  1.00  0.00     0.044 A 
HETATM   26  C   UNL     1      38.291 -13.835  -2.813  1.00  0.00     0.116 A 
HETATM   27  F   UNL     1      37.532 -14.292  -3.816  1.00  0.00    -0.206 F 
HETATM   28  C   UNL     1      37.725 -13.024  -1.837  1.00  0.00     0.044 A 
HETATM   29  C   UNL     1      38.514 -12.544  -0.789  1.00  0.00     0.033 A 
ENDBRANCH   2  23
BRANCH   1  30
HETATM   30  C   UNL     1      40.448  -9.864  -0.070  1.00  0.00     0.255 C 
HETATM   31  C   UNL     1      40.261  -8.792   1.013  1.00  0.00     0.049 C 
BRANCH  30  32
HETATM   32  N   UNL     1      41.374  -9.336  -1.192  1.00  0.00    -0.060 N 
HETATM   33  H   UNL     1      41.974 -10.143  -1.433  1.00  0.00     0.280 HD
HETATM   34  C   UNL     1      40.581  -9.007  -2.448  1.00  0.00     0.236 C 
HETATM   35  C   UNL     1      41.521  -8.611  -3.577  1.00  0.00     0.028 C 
HETATM   36  C   UNL     1      42.406  -7.440  -3.179  1.00  0.00     0.003 C 
HETATM   37  C   UNL     1      43.178  -7.767  -1.910  1.00  0.00     0.028 C 
HETATM   38  C   UNL     1      42.257  -8.183  -0.772  1.00  0.00     0.236 C 
ENDBRANCH  30  32
ENDBRANCH   1  30
TORSDOF 7
ENDMDL
MODEL 7
REMARK VINA RESULT:      -8.4      3.440      6.194
REMARK  7 active torsions:
REMARK  status: ('A' for Active; 'I' for Inactive)
REMARK    1  A    between atoms: C_2  and  N_3 
REMARK    2  A    between atoms: C_2  and  C_10 
REMARK    3  A    between atoms: N_11  and  C_12 
REMARK    4  A    between atoms: C_19  and  S_20 
REMARK    5  A    between atoms: S_20  and  C_21 
REMARK    6  A    between atoms: C_21  and  C_22 
REMARK    7  A    between atoms: C_21  and  C_28 
REMARK       I    between atoms: C_22  and  N_23 
REMARK       I    between atoms: N_23  and  C_24 
REMARK       I    between atoms: C_24  and  N_25 
ROOT
HETATM    1  C   UNL     1      42.439 -15.250   6.462  1.00  0.00     0.166 A 
HETATM    2  N   UNL     1      42.524 -14.048   5.768  1.00  0.00    -0.274 N 
HETATM    3  C   UNL     1      43.258 -13.231   6.610  1.00  0.00     0.197 A 
HETATM    4  N   UNL     1      43.529 -13.864   7.728  1.00  0.00    -0.122 NA
HETATM    5  N   UNL     1      43.012 -15.126   7.642  1.00  0.00    -0.131 NA
ENDROOT
BRANCH   3   6
HETATM    6  S   UNL     1      43.656 -11.567   6.343  1.00  0.00    -0.070 SA
BRANCH   6   7
HETATM    7  C   UNL     1      42.081 -10.717   6.728  1.00  0.00     0.180 C 
BRANCH   7   8
HETATM    8  C   UNL     1      42.331  -9.593   7.746  1.00  0.00     0.244 C 
HETATM    9  N   UNL     1      43.651  -9.187   7.864  1.00  0.00    -0.278 N 
HETATM   10  C   UNL     1      44.151  -8.084   8.492  1.00  0.00     0.320 C 
HETATM   11  H   UNL     1      44.360  -9.653   7.311  1.00  0.00     0.173 HD
HETATM   12  N   UNL     1      43.274  -7.301   9.151  1.00  0.00    -0.352 N 
HETATM   13  O   UNL     1      45.339  -7.796   8.422  1.00  0.00    -0.247 OA
HETATM   14  H   UNL     1      42.366  -7.673   9.404  1.00  0.00     0.160 HD
HETATM   15  H   UNL     1      43.655  -6.535   9.689  1.00  0.00     0.160 HD
HETATM   16  O   UNL     1      41.410  -9.173   8.457  1.00  0.00    -0.271 OA
ENDBRANCH   7   8
BRANCH   7  17
HETATM   17  C   UNL     1      41.275 -10.252   5.518  1.00  0.00    -0.035 A 
HETATM   18  C   UNL     1      39.882 -10.071   5.522  1.00  0.00     0.009 A 
HETATM   19  C   UNL     1      39.208  -9.670   4.365  1.00  0.00     0.001 A 
HETATM   20  C   UNL     1      39.909  -9.456   3.182  1.00  0.00     0.000 A 
HETATM   21  C   UNL     1      41.286  -9.638   3.153  1.00  0.00     0.001 A 
HETATM   22  C   UNL     1      41.964 -10.031   4.308  1.00  0.00     0.009 A 
ENDBRANCH   7  17
ENDBRANCH   6   7
ENDBRANCH   3   6
BRANCH   2  23
HETATM   23  C   UNL     1      41.986 -13.762   4.491  1.00  0.00     0.043 A 
HETATM   24  C   UNL     1      40.610 -13.509   4.362  1.00  0.00     0.033 A 
HETATM   25  C   UNL     1      40.075 -13.224   3.104  1.00  0.00     0.044 A 
HETATM   26  C   UNL     1      40.909 -13.189   1.993  1.00  0.00     0.116 A 
HETATM   27  F   UNL     1      40.389 -12.917   0.790  1.00  0.00    -0.206 F 
HETATM   28  C   UNL     1      42.274 -13.423   2.115  1.00  0.00     0.044 A 
HETATM   29  C   UNL     1      42.821 -13.707   3.368  1.00  0.00     0.033 A 
ENDBRANCH   2  23
BRANCH   1  30
HETATM   30  C   UNL     1      41.952 -16.560   5.920  1.00  0.00     0.255 C 
HETATM   31  C   UNL     1      40.490 -16.382   5.488  1.00  0.00     0.049 C 
BRANCH  30  32
HETATM   32  N   UNL     1      42.815 -17.015   4.718  1.00  0.00    -0.060 N 
HETATM   33  H   UNL     1      43.509 -16.259   4.597  1.00  0.00     0.280 HD
HETATM   34  C   UNL     1      43.607 -18.268   5.055  1.00  0.00     0.236 C 
HETATM   35  C   UNL     1      44.541 -18.627   3.910  1.00  0.00     0.028 C 
HETATM   36  C   UNL     1      43.779 -18.809   2.606  1.00  0.00     0.003 C 
HETATM   37  C   UNL     1      42.971 -17.560   2.287  1.00  0.00     0.028 C 
HETATM   38  C   UNL     1      42.042 -17.174   3.429  1.00  0.00     0.236 C 
ENDBRANCH  30  32
ENDBRANCH   1  30
TORSDOF 7
ENDMDL
MODEL 8
REMARK VINA RESULT:      -8.3      2.777      7.474
REMARK  7 active torsions:
REMARK  status: ('A' for Active; 'I' for Inactive)
REMARK    1  A    between atoms: C_2  and  N_3 
REMARK    2  A    between atoms: C_2  and  C_10 
REMARK    3  A    between atoms: N_11  and  C_12 
REMARK    4  A    between atoms: C_19  and  S_20 
REMARK    5  A    between atoms: S_20  and  C_21 
REMARK    6  A    between atoms: C_21  and  C_22 
REMARK    7  A    between atoms: C_21  and  C_28 
REMARK       I    between atoms: C_22  and  N_23 
REMARK       I    between atoms: N_23  and  C_24 
REMARK       I    between atoms: C_24  and  N_25 
ROOT
HETATM    1  C   UNL     1      42.959 -11.675   5.404  1.00  0.00     0.166 A 
HETATM    2  N   UNL     1      42.094 -12.745   5.201  1.00  0.00    -0.274 N 
HETATM    3  C   UNL     1      41.063 -12.198   4.457  1.00  0.00     0.197 A 
HETATM    4  N   UNL     1      41.262 -10.911   4.289  1.00  0.00    -0.122 NA
HETATM    5  N   UNL     1      42.445 -10.579   4.886  1.00  0.00    -0.131 NA
ENDROOT
BRANCH   3   6
HETATM    6  S   UNL     1      39.626 -13.011   3.933  1.00  0.00    -0.070 SA
BRANCH   6   7
HETATM    7  C   UNL     1      40.093 -13.603   2.265  1.00  0.00     0.180 C 
BRANCH   7   8
HETATM    8  C   UNL     1      40.334 -12.403   1.335  1.00  0.00     0.244 C 
HETATM    9  N   UNL     1      39.628 -11.254   1.659  1.00  0.00    -0.278 N 
HETATM   10  C   UNL     1      39.796  -9.988   1.182  1.00  0.00     0.320 C 
HETATM   11  H   UNL     1      38.995 -11.274   2.448  1.00  0.00     0.173 HD
HETATM   12  N   UNL     1      40.721  -9.812   0.217  1.00  0.00    -0.352 N 
HETATM   13  O   UNL     1      39.164  -9.045   1.643  1.00  0.00    -0.247 OA
HETATM   14  H   UNL     1      41.047 -10.612  -0.313  1.00  0.00     0.160 HD
HETATM   15  H   UNL     1      40.784  -8.892  -0.198  1.00  0.00     0.160 HD
HETATM   16  O   UNL     1      41.041 -12.521   0.328  1.00  0.00    -0.271 OA
ENDBRANCH   7   8
BRANCH   7  17
HETATM   17  C   UNL     1      41.229 -14.621   2.225  1.00  0.00    -0.035 A 
HETATM   18  C   UNL     1      42.531 -14.331   1.784  1.00  0.00     0.009 A 
HETATM   19  C   UNL     1      43.514 -15.324   1.748  1.00  0.00     0.001 A 
HETATM   20  C   UNL     1      43.212 -16.625   2.137  1.00  0.00     0.000 A 
HETATM   21  C   UNL     1      41.927 -16.938   2.566  1.00  0.00     0.001 A 
HETATM   22  C   UNL     1      40.945 -15.946   2.612  1.00  0.00     0.009 A 
ENDBRANCH   7  17
ENDBRANCH   6   7
ENDBRANCH   3   6
BRANCH   2  23
HETATM   23  C   UNL     1      42.263 -14.075   5.652  1.00  0.00     0.043 A 
HETATM   24  C   UNL     1      43.450 -14.761   5.350  1.00  0.00     0.033 A 
HETATM   25  C   UNL     1      43.622 -16.073   5.794  1.00  0.00     0.044 A 
HETATM   26  C   UNL     1      42.619 -16.686   6.536  1.00  0.00     0.116 A 
HETATM   27  F   UNL     1      42.790 -17.945   6.956  1.00  0.00    -0.206 F 
HETATM   28  C   UNL     1      41.447 -16.009   6.852  1.00  0.00     0.044 A 
HETATM   29  C   UNL     1      41.264 -14.696   6.414  1.00  0.00     0.033 A 
ENDBRANCH   2  23
BRANCH   1  30
HETATM   30  C   UNL     1      44.354 -11.748   5.951  1.00  0.00     0.255 C 
HETATM   31  C   UNL     1      45.332 -11.513   4.791  1.00  0.00     0.049 C 
BRANCH  30  32
HETATM   32  N   UNL     1      44.568 -10.688   7.057  1.00  0.00    -0.060 N 
HETATM   33  H   UNL     1      44.117  -9.835   6.689  1.00  0.00     0.280 HD
HETATM   34  C   UNL     1      43.810 -11.056   8.324  1.00  0.00     0.236 C 
HETATM   35  C   UNL     1      43.930  -9.944   9.354  1.00  0.00     0.028 C 
HETATM   36  C   UNL     1      45.385  -9.633   9.671  1.00  0.00     0.003 C 
HETATM   37  C   UNL     1      46.143  -9.288   8.398  1.00  0.00     0.028 C 
HETATM   38  C   UNL     1      46.021 -10.382   7.346  1.00  0.00     0.236 C 
ENDBRANCH  30  32
ENDBRANCH   1  30
TORSDOF 7
ENDMDL
MODEL 9
REMARK VINA RESULT:      -8.3      2.971      4.426
REMARK  7 active torsions:
REMARK  status: ('A' for Active; 'I' for Inactive)
REMARK    1  A    between atoms: C_2  and  N_3 
REMARK    2  A    between atoms: C_2  and  C_10 
REMARK    3  A    between atoms: N_11  and  C_12 
REMARK    4  A    between atoms: C_19  and  S_20 
REMARK    5  A    between atoms: S_20  and  C_21 
REMARK    6  A    between atoms: C_21  and  C_22 
REMARK    7  A    between atoms: C_21  and  C_28 
REMARK       I    between atoms: C_22  and  N_23 
REMARK       I    between atoms: N_23  and  C_24 
REMARK       I    between atoms: C_24  and  N_25 
ROOT
HETATM    1  C   UNL     1      39.721 -13.216   1.613  1.00  0.00     0.166 A 
HETATM    2  N   UNL     1      39.966 -12.660   2.864  1.00  0.00    -0.274 N 
HETATM    3  C   UNL     1      40.234 -13.756   3.665  1.00  0.00     0.197 A 
HETATM    4  N   UNL     1      40.097 -14.865   2.973  1.00  0.00    -0.122 NA
HETATM    5  N   UNL     1      39.770 -14.530   1.690  1.00  0.00    -0.131 NA
ENDROOT
BRANCH   3   6
HETATM    6  S   UNL     1      40.556 -13.735   5.366  1.00  0.00    -0.070 SA
BRANCH   6   7
HETATM    7  C   UNL     1      42.384 -13.803   5.424  1.00  0.00     0.180 C 
BRANCH   7   8
HETATM    8  C   UNL     1      42.940 -14.071   4.017  1.00  0.00     0.244 C 
HETATM    9  N   UNL     1      43.076 -15.409   3.680  1.00  0.00    -0.278 N 
HETATM   10  C   UNL     1      43.314 -15.960   2.456  1.00  0.00     0.320 C 
HETATM   11  H   UNL     1      42.832 -16.114   4.365  1.00  0.00     0.173 HD
HETATM   12  N   UNL     1      43.516 -15.112   1.428  1.00  0.00    -0.352 N 
HETATM   13  O   UNL     1      43.302 -17.174   2.291  1.00  0.00    -0.247 OA
HETATM   14  H   UNL     1      43.764 -14.148   1.619  1.00  0.00     0.160 HD
HETATM   15  H   UNL     1      43.780 -15.518   0.541  1.00  0.00     0.160 HD
HETATM   16  O   UNL     1      43.317 -13.135   3.302  1.00  0.00    -0.271 OA
ENDBRANCH   7   8
BRANCH   7  17
HETATM   17  C   UNL     1      43.062 -12.623   6.114  1.00  0.00    -0.035 A 
HETATM   18  C   UNL     1      44.376 -12.649   6.610  1.00  0.00     0.009 A 
HETATM   19  C   UNL     1      44.921 -11.536   7.258  1.00  0.00     0.001 A 
HETATM   20  C   UNL     1      44.160 -10.385   7.434  1.00  0.00     0.000 A 
HETATM   21  C   UNL     1      42.854 -10.340   6.960  1.00  0.00     0.001 A 
HETATM   22  C   UNL     1      42.310 -11.446   6.305  1.00  0.00     0.009 A 
ENDBRANCH   7  17
ENDBRANCH   6   7
ENDBRANCH   3   6
BRANCH   2  23
HETATM   23  C   UNL     1      39.951 -11.287   3.203  1.00  0.00     0.043 A 
HETATM   24  C   UNL     1      38.745 -10.687   3.601  1.00  0.00     0.033 A 
HETATM   25  C   UNL     1      38.726  -9.333   3.939  1.00  0.00     0.044 A 
HETATM   26  C   UNL     1      39.901  -8.593   3.884  1.00  0.00     0.116 A 
HETATM   27  F   UNL     1      39.875  -7.294   4.208  1.00  0.00    -0.206 F 
HETATM   28  C   UNL     1      41.102  -9.183   3.506  1.00  0.00     0.044 A 
HETATM   29  C   UNL     1      41.134 -10.537   3.167  1.00  0.00     0.033 A 
ENDBRANCH   2  23
BRANCH   1  30
HETATM   30  C   UNL     1      39.605 -12.474   0.314  1.00  0.00     0.255 C 
HETATM   31  C   UNL     1      41.023 -12.153  -0.178  1.00  0.00     0.049 C 
BRANCH  30  32
HETATM   32  N   UNL     1      38.851 -13.321  -0.739  1.00  0.00    -0.060 N 
HETATM   33  H   UNL     1      38.189 -13.891  -0.187  1.00  0.00     0.280 HD
HETATM   34  C   UNL     1      38.001 -12.440  -1.642  1.00  0.00     0.236 C 
HETATM   35  C   UNL     1      37.172 -13.297  -2.587  1.00  0.00     0.028 C 
HETATM   36  C   UNL     1      38.051 -14.223  -3.414  1.00  0.00     0.003 C 
HETATM   37  C   UNL     1      38.914 -15.084  -2.505  1.00  0.00     0.028 C 
HETATM   38  C   UNL     1      39.739 -14.246  -1.539  1.00  0.00     0.236 C 
ENDBRANCH  30  32
ENDBRANCH   1  30
TORSDOF 7
ENDMDL
MODEL 10
REMARK VINA RESULT:      -8.2      3.453      7.298
REMARK  7 active torsions:
REMARK  status: ('A' for Active; 'I' for Inactive)
REMARK    1  A    between atoms: C_2  and  N_3 
REMARK    2  A    between atoms: C_2  and  C_10 
REMARK    3  A    between atoms: N_11  and  C_12 
REMARK    4  A    between atoms: C_19  and  S_20 
REMARK    5  A    between atoms: S_20  and  C_21 
REMARK    6  A    between atoms: C_21  and  C_22 
REMARK    7  A    between atoms: C_21  and  C_28 
REMARK       I    between atoms: C_22  and  N_23 
REMARK       I    between atoms: N_23  and  C_24 
REMARK       I    between atoms: C_24  and  N_25 
ROOT
HETATM    1  C   UNL     1      40.488 -12.620   6.172  1.00  0.00     0.166 A 
HETATM    2  N   UNL     1      41.725 -13.251   6.102  1.00  0.00    -0.274 N 
HETATM    3  C   UNL     1      41.406 -14.594   6.011  1.00  0.00     0.197 A 
HETATM    4  N   UNL     1      40.105 -14.754   6.087  1.00  0.00    -0.122 NA
HETATM    5  N   UNL     1      39.528 -13.521   6.195  1.00  0.00    -0.131 NA
ENDROOT
BRANCH   3   6
HETATM    6  S   UNL     1      42.522 -15.917   5.958  1.00  0.00    -0.070 SA
BRANCH   6   7
HETATM    7  C   UNL     1      42.993 -15.968   4.190  1.00  0.00     0.180 C 
BRANCH   7   8
HETATM    8  C   UNL     1      43.503 -17.372   3.827  1.00  0.00     0.244 C 
HETATM    9  N   UNL     1      43.703 -18.223   4.902  1.00  0.00    -0.278 N 
HETATM   10  C   UNL     1      43.921 -19.570   4.895  1.00  0.00     0.320 C 
HETATM   11  H   UNL     1      43.532 -17.879   5.839  1.00  0.00     0.173 HD
HETATM   12  N   UNL     1      44.028 -20.168   3.692  1.00  0.00    -0.352 N 
HETATM   13  O   UNL     1      43.974 -20.212   5.936  1.00  0.00    -0.247 OA
HETATM   14  H   UNL     1      44.226 -19.607   2.872  1.00  0.00     0.160 HD
HETATM   15  H   UNL     1      44.277 -21.148   3.686  1.00  0.00     0.160 HD
HETATM   16  O   UNL     1      43.793 -17.652   2.658  1.00  0.00    -0.271 OA
ENDBRANCH   7   8
BRANCH   7  17
HETATM   17  C   UNL     1      41.938 -15.451   3.216  1.00  0.00    -0.035 A 
HETATM   18  C   UNL     1      40.710 -16.089   2.973  1.00  0.00     0.009 A 
HETATM   19  C   UNL     1      39.805 -15.571   2.043  1.00  0.00     0.001 A 
HETATM   20  C   UNL     1      40.114 -14.418   1.329  1.00  0.00     0.000 A 
HETATM   21  C   UNL     1      41.328 -13.776   1.545  1.00  0.00     0.001 A 
HETATM   22  C   UNL     1      42.231 -14.285   2.479  1.00  0.00     0.009 A 
ENDBRANCH   7  17
ENDBRANCH   6   7
ENDBRANCH   3   6
BRANCH   2  23
HETATM   23  C   UNL     1      42.998 -12.633   6.109  1.00  0.00     0.043 A 
HETATM   24  C   UNL     1      43.537 -12.147   4.907  1.00  0.00     0.033 A 
HETATM   25  C   UNL     1      44.792 -11.534   4.910  1.00  0.00     0.044 A 
HETATM   26  C   UNL     1      45.493 -11.407   6.103  1.00  0.00     0.116 A 
HETATM   27  F   UNL     1      46.696 -10.821   6.098  1.00  0.00    -0.206 F 
HETATM   28  C   UNL     1      44.960 -11.872   7.300  1.00  0.00     0.044 A 
HETATM   29  C   UNL     1      43.706 -12.486   7.310  1.00  0.00     0.033 A 
ENDBRANCH   2  23
BRANCH   1  30
HETATM   30  C   UNL     1      40.229 -11.148   6.052  1.00  0.00     0.255 C 
HETATM   31  C   UNL     1      38.733 -10.950   5.768  1.00  0.00     0.049 C 
BRANCH  30  32
HETATM   32  N   UNL     1      40.631 -10.409   7.350  1.00  0.00    -0.060 N 
HETATM   33  H   UNL     1      41.073 -11.137   7.936  1.00  0.00     0.280 HD
HETATM   34  C   UNL     1      41.710  -9.371   7.079  1.00  0.00     0.236 C 
HETATM   35  C   UNL     1      42.181  -8.745   8.382  1.00  0.00     0.028 C 
HETATM   36  C   UNL     1      41.024  -8.127   9.152  1.00  0.00     0.003 C 
HETATM   37  C   UNL     1      39.939  -9.164   9.401  1.00  0.00     0.028 C 
HETATM   38  C   UNL     1      39.466  -9.815   8.109  1.00  0.00     0.236 C 
ENDBRANCH  30  32
ENDBRANCH   1  30
TORSDOF 7
ENDMDL
