MODEL 1
REMARK VINA RESULT:      -9.1      0.000      0.000
REMARK  6 active torsions:
REMARK  status: ('A' for Active; 'I' for Inactive)
REMARK    1  A    between atoms: C_7  and  C_8 
REMARK    2  A    between atoms: C_8  and  C_9 
REMARK    3  A    between atoms: C_9  and  N_10 
REMARK    4  A    between atoms: C_12  and  C_13 
REMARK    5  A    between atoms: C_13  and  N_14 
REMARK    6  A    between atoms: C_36  and  O_37 
ROOT
HETATM    1  N   UNL     1      43.086 -13.946   2.944  1.00  0.00    -0.054 N 
HETATM    2  H   UNL     1      44.099 -14.056   3.127  1.00  0.00     0.281 HD
HETATM    3  C   UNL     1      42.473 -14.702   4.130  1.00  0.00     0.240 C 
HETATM    4  C   UNL     1      43.006 -16.130   4.123  1.00  0.00    -0.020 A 
HETATM    5  C   UNL     1      43.413 -16.748   2.920  1.00  0.00    -0.048 A 
HETATM    6  C   UNL     1      43.457 -16.001   1.609  1.00  0.00     0.067 C 
HETATM    7  C   UNL     1      42.795 -14.625   1.634  1.00  0.00     0.241 C 
HETATM    8  C   UNL     1      43.063 -16.857   5.323  1.00  0.00     0.010 A 
HETATM    9  C   UNL     1      43.511 -18.178   5.331  1.00  0.00     0.001 A 
HETATM   10  C   UNL     1      43.910 -18.786   4.145  1.00  0.00     0.001 A 
HETATM   11  C   UNL     1      43.865 -18.076   2.946  1.00  0.00     0.008 A 
ENDROOT
BRANCH   1  12
HETATM   12  C   UNL     1      42.937 -12.428   2.901  1.00  0.00     0.319 C 
BRANCH  12  13
HETATM   13  C   UNL     1      43.817 -11.707   3.911  1.00  0.00     0.188 C 
HETATM   14  O   UNL     1      44.999 -11.518   3.608  1.00  0.00    -0.290 OA
BRANCH  13  15
HETATM   15  C   UNL     1      43.228 -11.220   5.162  1.00  0.00     0.046 A 
HETATM   16  C   UNL     1      43.369 -11.869   6.386  1.00  0.00     0.020 A 
HETATM   17  C   UNL     1      44.054 -13.142   6.750  1.00  0.00     0.069 C 
HETATM   18  N   UNL     1      42.743 -11.117   7.344  1.00  0.00    -0.358 N 
HETATM   19  H   UNL     1      42.704 -11.342   8.331  1.00  0.00     0.166 HD
HETATM   20  C   UNL     1      42.173 -10.002   6.783  1.00  0.00     0.043 A 
HETATM   21  C   UNL     1      42.440 -10.038   5.414  1.00  0.00     0.009 A 
HETATM   22  C   UNL     1      41.454  -8.971   7.398  1.00  0.00     0.033 A 
HETATM   23  C   UNL     1      41.931  -8.972   4.634  1.00  0.00     0.051 A 
HETATM   24  C   UNL     1      41.191  -7.934   5.224  1.00  0.00     0.069 A 
HETATM   25  C   UNL     1      40.966  -7.935   6.595  1.00  0.00     0.039 A 
BRANCH  24  26
HETATM   26  O   UNL     1      40.755  -6.990   4.334  1.00  0.00    -0.356 OA
HETATM   27  C   UNL     1      41.630  -5.896   4.076  1.00  0.00     0.210 C 
ENDBRANCH  24  26
ENDBRANCH  13  15
ENDBRANCH  12  13
ENDBRANCH   1  12
BRANCH   3  28
HETATM   28  C   UNL     1      40.914 -14.762   4.147  1.00  0.00     0.173 C 
BRANCH  28  29
HETATM   29  N   UNL     1      40.232 -13.495   4.334  1.00  0.00    -0.278 N 
HETATM   30  C   UNL     1      39.849 -12.992   5.545  1.00  0.00     0.261 A 
HETATM   31  O   UNL     1      39.880 -13.561   6.620  1.00  0.00    -0.267 OA
HETATM   32  C   UNL     1      39.219 -11.699   5.279  1.00  0.00     0.048 A 
HETATM   33  C   UNL     1      39.203 -11.519   3.904  1.00  0.00     0.048 A 
HETATM   34  C   UNL     1      38.642 -10.791   6.142  1.00  0.00     0.018 A 
HETATM   35  C   UNL     1      39.829 -12.695   3.301  1.00  0.00     0.261 A 
HETATM   36  C   UNL     1      38.617 -10.418   3.316  1.00  0.00     0.018 A 
HETATM   37  O   UNL     1      39.886 -12.947   2.114  1.00  0.00    -0.267 OA
HETATM   38  C   UNL     1      38.037  -9.476   4.170  1.00  0.00     0.001 A 
HETATM   39  C   UNL     1      38.048  -9.661   5.570  1.00  0.00     0.001 A 
ENDBRANCH  28  29
ENDBRANCH   3  28
TORSDOF 6
ENDMDL
MODEL 2
REMARK VINA RESULT:      -8.8      2.644      6.146
REMARK  6 active torsions:
REMARK  status: ('A' for Active; 'I' for Inactive)
REMARK    1  A    between atoms: C_7  and  C_8 
REMARK    2  A    between atoms: C_8  and  C_9 
REMARK    3  A    between atoms: C_9  and  N_10 
REMARK    4  A    between atoms: C_12  and  C_13 
REMARK    5  A    between atoms: C_13  and  N_14 
REMARK    6  A    between atoms: C_36  and  O_37 
ROOT
HETATM    1  N   UNL     1      41.038 -11.836   4.713  1.00  0.00    -0.054 N 
HETATM    2  H   UNL     1      41.403 -11.027   4.181  1.00  0.00     0.281 HD
HETATM    3  C   UNL     1      41.091 -12.949   3.657  1.00  0.00     0.240 C 
HETATM    4  C   UNL     1      40.270 -12.512   2.450  1.00  0.00    -0.020 A 
HETATM    5  C   UNL     1      39.191 -11.612   2.591  1.00  0.00    -0.048 A 
HETATM    6  C   UNL     1      38.870 -10.945   3.907  1.00  0.00     0.067 C 
HETATM    7  C   UNL     1      39.626 -11.506   5.110  1.00  0.00     0.241 C 
HETATM    8  C   UNL     1      40.565 -13.037   1.181  1.00  0.00     0.010 A 
HETATM    9  C   UNL     1      39.800 -12.679   0.071  1.00  0.00     0.001 A 
HETATM   10  C   UNL     1      38.737 -11.794   0.212  1.00  0.00     0.001 A 
HETATM   11  C   UNL     1      38.435 -11.259   1.464  1.00  0.00     0.008 A 
ENDROOT
BRANCH   1  12
HETATM   12  C   UNL     1      42.011 -11.908   5.886  1.00  0.00     0.319 C 
BRANCH  12  13
HETATM   13  C   UNL     1      42.672 -10.575   6.203  1.00  0.00     0.188 C 
HETATM   14  O   UNL     1      42.337  -9.595   5.530  1.00  0.00    -0.290 OA
BRANCH  13  15
HETATM   15  C   UNL     1      43.625 -10.489   7.314  1.00  0.00     0.046 A 
HETATM   16  C   UNL     1      44.964 -10.858   7.213  1.00  0.00     0.020 A 
HETATM   17  C   UNL     1      45.743 -11.430   6.078  1.00  0.00     0.069 C 
HETATM   18  N   UNL     1      45.570 -10.600   8.414  1.00  0.00    -0.358 N 
HETATM   19  H   UNL     1      46.550 -10.754   8.618  1.00  0.00     0.166 HD
HETATM   20  C   UNL     1      44.664 -10.092   9.310  1.00  0.00     0.043 A 
HETATM   21  C   UNL     1      43.429 -10.023   8.665  1.00  0.00     0.009 A 
HETATM   22  C   UNL     1      44.862  -9.686  10.635  1.00  0.00     0.033 A 
HETATM   23  C   UNL     1      42.339  -9.528   9.421  1.00  0.00     0.051 A 
HETATM   24  C   UNL     1      42.508  -9.130  10.757  1.00  0.00     0.069 A 
HETATM   25  C   UNL     1      43.762  -9.202  11.350  1.00  0.00     0.039 A 
BRANCH  24  26
HETATM   26  O   UNL     1      41.356  -8.692  11.354  1.00  0.00    -0.356 OA
HETATM   27  C   UNL     1      40.266  -9.607  11.400  1.00  0.00     0.210 C 
ENDBRANCH  24  26
ENDBRANCH  13  15
ENDBRANCH  12  13
ENDBRANCH   1  12
BRANCH   3  28
HETATM   28  C   UNL     1      40.564 -14.340   4.130  1.00  0.00     0.173 C 
BRANCH  28  29
HETATM   29  N   UNL     1      41.481 -15.453   3.971  1.00  0.00    -0.278 N 
HETATM   30  C   UNL     1      41.521 -16.275   2.880  1.00  0.00     0.261 A 
HETATM   31  O   UNL     1      40.732 -16.308   1.955  1.00  0.00    -0.267 OA
HETATM   32  C   UNL     1      42.593 -17.240   3.124  1.00  0.00     0.048 A 
HETATM   33  C   UNL     1      43.106 -16.981   4.387  1.00  0.00     0.048 A 
HETATM   34  C   UNL     1      43.038 -18.296   2.357  1.00  0.00     0.018 A 
HETATM   35  C   UNL     1      42.363 -15.849   4.938  1.00  0.00     0.261 A 
HETATM   36  C   UNL     1      44.098 -17.758   4.949  1.00  0.00     0.018 A 
HETATM   37  O   UNL     1      42.452 -15.416   6.069  1.00  0.00    -0.267 OA
HETATM   38  C   UNL     1      44.574 -18.827   4.185  1.00  0.00     0.001 A 
HETATM   39  C   UNL     1      44.049 -19.095   2.902  1.00  0.00     0.001 A 
ENDBRANCH  28  29
ENDBRANCH   3  28
TORSDOF 6
ENDMDL
MODEL 3
REMARK VINA RESULT:      -8.6      2.480      7.305
REMARK  6 active torsions:
REMARK  status: ('A' for Active; 'I' for Inactive)
REMARK    1  A    between atoms: C_7  and  C_8 
REMARK    2  A    between atoms: C_8  and  C_9 
REMARK    3  A    between atoms: C_9  and  N_10 
REMARK    4  A    between atoms: C_12  and  C_13 
REMARK    5  A    between atoms: C_13  and  N_14 
REMARK    6  A    between atoms: C_36  and  O_37 
ROOT
HETATM    1  N   UNL     1      40.475 -13.300   0.851  1.00  0.00    -0.054 N 
HETATM    2  H   UNL     1      39.511 -13.676   0.873  1.00  0.00     0.281 HD
HETATM    3  C   UNL     1      40.358 -12.094   1.793  1.00  0.00     0.240 C 
HETATM    4  C   UNL     1      39.264 -11.172   1.265  1.00  0.00    -0.020 A 
HETATM    5  C   UNL     1      38.948 -11.131  -0.110  1.00  0.00    -0.048 A 
HETATM    6  C   UNL     1      39.580 -12.072  -1.107  1.00  0.00     0.067 C 
HETATM    7  C   UNL     1      40.757 -12.882  -0.565  1.00  0.00     0.241 C 
HETATM    8  C   UNL     1      38.582 -10.323   2.153  1.00  0.00     0.010 A 
HETATM    9  C   UNL     1      37.606  -9.445   1.684  1.00  0.00     0.001 A 
HETATM   10  C   UNL     1      37.296  -9.405   0.328  1.00  0.00     0.001 A 
HETATM   11  C   UNL     1      37.960 -10.245  -0.565  1.00  0.00     0.008 A 
ENDROOT
BRANCH   1  12
HETATM   12  C   UNL     1      41.293 -14.501   1.317  1.00  0.00     0.319 C 
BRANCH  12  13
HETATM   13  C   UNL     1      40.628 -15.286   2.437  1.00  0.00     0.188 C 
HETATM   14  O   UNL     1      39.455 -15.639   2.271  1.00  0.00    -0.290 OA
BRANCH  13  15
HETATM   15  C   UNL     1      41.403 -15.638   3.630  1.00  0.00     0.046 A 
HETATM   16  C   UNL     1      41.276 -14.988   4.854  1.00  0.00     0.020 A 
HETATM   17  C   UNL     1      40.433 -13.831   5.270  1.00  0.00     0.069 C 
HETATM   18  N   UNL     1      42.105 -15.604   5.754  1.00  0.00    -0.358 N 
HETATM   19  H   UNL     1      42.200 -15.349   6.730  1.00  0.00     0.166 HD
HETATM   20  C   UNL     1      42.791 -16.628   5.152  1.00  0.00     0.043 A 
HETATM   21  C   UNL     1      42.393 -16.673   3.816  1.00  0.00     0.009 A 
HETATM   22  C   UNL     1      43.723 -17.514   5.705  1.00  0.00     0.033 A 
HETATM   23  C   UNL     1      42.991 -17.664   3.002  1.00  0.00     0.051 A 
HETATM   24  C   UNL     1      43.942 -18.553   3.528  1.00  0.00     0.069 A 
HETATM   25  C   UNL     1      44.294 -18.480   4.870  1.00  0.00     0.039 A 
BRANCH  24  26
HETATM   26  O   UNL     1      44.438 -19.440   2.610  1.00  0.00    -0.356 OA
HETATM   27  C   UNL     1      43.489 -20.227   1.897  1.00  0.00     0.210 C 
ENDBRANCH  24  26
ENDBRANCH  13  15
ENDBRANCH  12  13
ENDBRANCH   1  12
BRANCH   3  28
HETATM   28  C   UNL     1      41.662 -11.256   1.966  1.00  0.00     0.173 C 
BRANCH  28  29
HETATM   29  N   UNL     1      42.237 -11.244   3.298  1.00  0.00    -0.278 N 
HETATM   30  C   UNL     1      41.939 -10.324   4.263  1.00  0.00     0.261 A 
HETATM   31  O   UNL     1      41.280  -9.310   4.134  1.00  0.00    -0.267 OA
HETATM   32  C   UNL     1      42.720 -10.692   5.445  1.00  0.00     0.048 A 
HETATM   33  C   UNL     1      43.498 -11.789   5.104  1.00  0.00     0.048 A 
HETATM   34  C   UNL     1      42.809 -10.088   6.682  1.00  0.00     0.018 A 
HETATM   35  C   UNL     1      43.204 -12.118   3.711  1.00  0.00     0.261 A 
HETATM   36  C   UNL     1      44.401 -12.348   5.984  1.00  0.00     0.018 A 
HETATM   37  O   UNL     1      43.782 -12.945   3.033  1.00  0.00    -0.267 OA
HETATM   38  C   UNL     1      44.499 -11.762   7.249  1.00  0.00     0.001 A 
HETATM   39  C   UNL     1      43.712 -10.642   7.594  1.00  0.00     0.001 A 
ENDBRANCH  28  29
ENDBRANCH   3  28
TORSDOF 6
ENDMDL
MODEL 4
REMARK VINA RESULT:      -8.5      3.457      7.434
REMARK  6 active torsions:
REMARK  status: ('A' for Active; 'I' for Inactive)
REMARK    1  A    between atoms: C_7  and  C_8 
REMARK    2  A    between atoms: C_8  and  C_9 
REMARK    3  A    between atoms: C_9  and  N_10 
REMARK    4  A    between atoms: C_12  and  C_13 
REMARK    5  A    between atoms: C_13  and  N_14 
REMARK    6  A    between atoms: C_36  and  O_37 
ROOT
HETATM    1  N   UNL     1      40.940 -12.575   1.486  1.00  0.00    -0.054 N 
HETATM    2  H   UNL     1      39.914 -12.454   1.548  1.00  0.00     0.281 HD
HETATM    3  C   UNL     1      41.222 -13.451   2.715  1.00  0.00     0.240 C 
HETATM    4  C   UNL     1      40.703 -12.730   3.953  1.00  0.00    -0.020 A 
HETATM    5  C   UNL     1      40.619 -11.321   3.993  1.00  0.00    -0.048 A 
HETATM    6  C   UNL     1      40.918 -10.465   2.786  1.00  0.00     0.067 C 
HETATM    7  C   UNL     1      41.557 -11.211   1.616  1.00  0.00     0.241 C 
HETATM    8  C   UNL     1      40.335 -13.473   5.087  1.00  0.00     0.010 A 
HETATM    9  C   UNL     1      39.895 -12.829   6.243  1.00  0.00     0.001 A 
HETATM   10  C   UNL     1      39.814 -11.441   6.281  1.00  0.00     0.001 A 
HETATM   11  C   UNL     1      40.170 -10.690   5.162  1.00  0.00     0.008 A 
ENDROOT
BRANCH   1  12
HETATM   12  C   UNL     1      41.102 -13.200   0.103  1.00  0.00     0.319 C 
BRANCH  12  13
HETATM   13  C   UNL     1      39.872 -13.966  -0.360  1.00  0.00     0.188 C 
HETATM   14  O   UNL     1      39.710 -15.109   0.080  1.00  0.00    -0.290 OA
BRANCH  13  15
HETATM   15  C   UNL     1      38.910 -13.313  -1.253  1.00  0.00     0.046 A 
HETATM   16  C   UNL     1      38.405 -13.902  -2.408  1.00  0.00     0.020 A 
HETATM   17  C   UNL     1      38.689 -15.220  -3.045  1.00  0.00     0.069 C 
HETATM   18  N   UNL     1      37.497 -13.041  -2.966  1.00  0.00    -0.358 N 
HETATM   19  H   UNL     1      36.961 -13.222  -3.806  1.00  0.00     0.166 HD
HETATM   20  C   UNL     1      37.406 -11.892  -2.223  1.00  0.00     0.043 A 
HETATM   21  C   UNL     1      38.288 -12.014  -1.149  1.00  0.00     0.009 A 
HETATM   22  C   UNL     1      36.599 -10.766  -2.429  1.00  0.00     0.033 A 
HETATM   23  C   UNL     1      38.358 -10.923  -0.250  1.00  0.00     0.051 A 
HETATM   24  C   UNL     1      37.573  -9.776  -0.444  1.00  0.00     0.069 A 
HETATM   25  C   UNL     1      36.696  -9.708  -1.520  1.00  0.00     0.039 A 
BRANCH  24  26
HETATM   26  O   UNL     1      37.768  -8.805   0.501  1.00  0.00    -0.356 OA
HETATM   27  C   UNL     1      37.599  -9.188   1.863  1.00  0.00     0.210 C 
ENDBRANCH  24  26
ENDBRANCH  13  15
ENDBRANCH  12  13
ENDBRANCH   1  12
BRANCH   3  28
HETATM   28  C   UNL     1      42.724 -13.806   2.948  1.00  0.00     0.173 C 
BRANCH  28  29
HETATM   29  N   UNL     1      43.007 -15.195   3.254  1.00  0.00    -0.278 N 
HETATM   30  C   UNL     1      43.278 -15.674   4.505  1.00  0.00     0.261 A 
HETATM   31  O   UNL     1      43.465 -15.024   5.517  1.00  0.00    -0.267 OA
HETATM   32  C   UNL     1      43.484 -17.116   4.364  1.00  0.00     0.048 A 
HETATM   33  C   UNL     1      43.384 -17.419   3.014  1.00  0.00     0.048 A 
HETATM   34  C   UNL     1      43.804 -18.070   5.307  1.00  0.00     0.018 A 
HETATM   35  C   UNL     1      43.109 -16.172   2.303  1.00  0.00     0.261 A 
HETATM   36  C   UNL     1      43.591 -18.696   2.534  1.00  0.00     0.018 A 
HETATM   37  O   UNL     1      43.076 -16.027   1.098  1.00  0.00    -0.267 OA
HETATM   38  C   UNL     1      43.904 -19.683   3.472  1.00  0.00     0.001 A 
HETATM   39  C   UNL     1      44.011 -19.374   4.845  1.00  0.00     0.001 A 
ENDBRANCH  28  29
ENDBRANCH   3  28
TORSDOF 6
ENDMDL
MODEL 5
REMARK VINA RESULT:      -8.4      2.056      6.960
REMARK  6 active torsions:
REMARK  status: ('A' for Active; 'I' for Inactive)
REMARK    1  A    between atoms: C_7  and  C_8 
REMARK    2  A    between atoms: C_8  and  C_9 
REMARK    3  A    between atoms: C_9  and  N_10 
REMARK    4  A    between atoms: C_12  and  C_13 
REMARK    5  A    between atoms: C_13  and  N_14 
REMARK    6  A    between atoms: C_36  and  O_37 
ROOT
HETATM    1  N   UNL     1      41.006 -10.502   7.058  1.00  0.00    -0.054 N 
HETATM    2  H   UNL     1      40.976 -10.640   8.083  1.00  0.00     0.281 HD
HETATM    3  C   UNL     1      42.365 -11.120   6.702  1.00  0.00     0.240 C 
HETATM    4  C   UNL     1      43.446 -10.410   7.508  1.00  0.00    -0.020 A 
HETATM    5  C   UNL     1      43.276  -9.075   7.936  1.00  0.00    -0.048 A 
HETATM    6  C   UNL     1      41.982  -8.325   7.729  1.00  0.00     0.067 C 
HETATM    7  C   UNL     1      40.981  -9.019   6.808  1.00  0.00     0.241 C 
HETATM    8  C   UNL     1      44.646 -11.078   7.803  1.00  0.00     0.010 A 
HETATM    9  C   UNL     1      45.662 -10.433   8.505  1.00  0.00     0.001 A 
HETATM   10  C   UNL     1      45.494  -9.117   8.925  1.00  0.00     0.001 A 
HETATM   11  C   UNL     1      44.307  -8.442   8.646  1.00  0.00     0.008 A 
ENDROOT
BRANCH   1  12
HETATM   12  C   UNL     1      39.742 -11.228   6.604  1.00  0.00     0.319 C 
BRANCH  12  13
HETATM   13  C   UNL     1      38.872 -10.398   5.672  1.00  0.00     0.188 C 
HETATM   14  O   UNL     1      37.960  -9.736   6.178  1.00  0.00    -0.290 OA
BRANCH  13  15
HETATM   15  C   UNL     1      39.175 -10.369   4.238  1.00  0.00     0.046 A 
HETATM   16  C   UNL     1      39.293  -9.197   3.496  1.00  0.00     0.020 A 
HETATM   17  C   UNL     1      39.124  -7.768   3.884  1.00  0.00     0.069 C 
HETATM   18  N   UNL     1      39.632  -9.535   2.213  1.00  0.00    -0.358 N 
HETATM   19  H   UNL     1      39.801  -8.877   1.461  1.00  0.00     0.166 HD
HETATM   20  C   UNL     1      39.719 -10.898   2.082  1.00  0.00     0.043 A 
HETATM   21  C   UNL     1      39.424 -11.459   3.324  1.00  0.00     0.009 A 
HETATM   22  C   UNL     1      40.047 -11.659   0.954  1.00  0.00     0.033 A 
HETATM   23  C   UNL     1      39.450 -12.871   3.411  1.00  0.00     0.051 A 
HETATM   24  C   UNL     1      39.759 -13.659   2.291  1.00  0.00     0.069 A 
HETATM   25  C   UNL     1      40.062 -13.052   1.078  1.00  0.00     0.039 A 
BRANCH  24  26
HETATM   26  O   UNL     1      39.725 -15.006   2.534  1.00  0.00    -0.356 OA
HETATM   27  C   UNL     1      39.839 -15.866   1.404  1.00  0.00     0.210 C 
ENDBRANCH  24  26
ENDBRANCH  13  15
ENDBRANCH  12  13
ENDBRANCH   1  12
BRANCH   3  28
HETATM   28  C   UNL     1      42.754 -11.048   5.192  1.00  0.00     0.173 C 
BRANCH  28  29
HETATM   29  N   UNL     1      42.889 -12.322   4.511  1.00  0.00    -0.278 N 
HETATM   30  C   UNL     1      43.145 -12.463   3.176  1.00  0.00     0.261 A 
HETATM   31  O   UNL     1      43.161 -11.586   2.333  1.00  0.00    -0.267 OA
HETATM   32  C   UNL     1      43.218 -13.901   2.916  1.00  0.00     0.048 A 
HETATM   33  C   UNL     1      42.939 -14.554   4.108  1.00  0.00     0.048 A 
HETATM   34  C   UNL     1      43.432 -14.587   1.739  1.00  0.00     0.018 A 
HETATM   35  C   UNL     1      42.697 -13.529   5.122  1.00  0.00     0.261 A 
HETATM   36  C   UNL     1      42.867 -15.929   4.190  1.00  0.00     0.018 A 
HETATM   37  O   UNL     1      42.307 -13.722   6.256  1.00  0.00    -0.267 OA
HETATM   38  C   UNL     1      43.092 -16.647   3.013  1.00  0.00     0.001 A 
HETATM   39  C   UNL     1      43.371 -15.983   1.798  1.00  0.00     0.001 A 
ENDBRANCH  28  29
ENDBRANCH   3  28
TORSDOF 6
ENDMDL
MODEL 6
REMARK VINA RESULT:      -8.2      2.439      6.141
REMARK  6 active torsions:
REMARK  status: ('A' for Active; 'I' for Inactive)
REMARK    1  A    between atoms: C_7  and  C_8 
REMARK    2  A    between atoms: C_8  and  C_9 
REMARK    3  A    between atoms: C_9  and  N_10 
REMARK    4  A    between atoms: C_12  and  C_13 
REMARK    5  A    between atoms: C_13  and  N_14 
REMARK    6  A    between atoms: C_36  and  O_37 
ROOT
HETATM    1  N   UNL     1      40.503 -11.505   3.423  1.00  0.00    -0.054 N 
HETATM    2  H   UNL     1      40.856 -10.785   2.768  1.00  0.00     0.281 HD
HETATM    3  C   UNL     1      40.641 -12.782   2.583  1.00  0.00     0.240 C 
HETATM    4  C   UNL     1      39.851 -12.601   1.292  1.00  0.00    -0.020 A 
HETATM    5  C   UNL     1      38.733 -11.740   1.239  1.00  0.00    -0.048 A 
HETATM    6  C   UNL     1      38.335 -10.869   2.405  1.00  0.00     0.067 C 
HETATM    7  C   UNL     1      39.065 -11.176   3.711  1.00  0.00     0.241 C 
HETATM    8  C   UNL     1      40.216 -13.326   0.145  1.00  0.00     0.010 A 
HETATM    9  C   UNL     1      39.481 -13.203  -1.034  1.00  0.00     0.001 A 
HETATM   10  C   UNL     1      38.379 -12.356  -1.084  1.00  0.00     0.001 A 
HETATM   11  C   UNL     1      38.008 -11.626   0.043  1.00  0.00     0.008 A 
ENDROOT
BRANCH   1  12
HETATM   12  C   UNL     1      41.432 -11.326   4.620  1.00  0.00     0.319 C 
BRANCH  12  13
HETATM   13  C   UNL     1      41.577  -9.876   5.059  1.00  0.00     0.188 C 
HETATM   14  O   UNL     1      41.738  -9.025   4.179  1.00  0.00    -0.290 OA
BRANCH  13  15
HETATM   15  C   UNL     1      41.467  -9.540   6.481  1.00  0.00     0.046 A 
HETATM   16  C   UNL     1      40.344  -8.946   7.050  1.00  0.00     0.020 A 
HETATM   17  C   UNL     1      39.063  -8.484   6.444  1.00  0.00     0.069 C 
HETATM   18  N   UNL     1      40.560  -8.824   8.398  1.00  0.00    -0.358 N 
HETATM   19  H   UNL     1      39.899  -8.441   9.063  1.00  0.00     0.166 HD
HETATM   20  C   UNL     1      41.803  -9.299   8.729  1.00  0.00     0.043 A 
HETATM   21  C   UNL     1      42.412  -9.742   7.554  1.00  0.00     0.009 A 
HETATM   22  C   UNL     1      42.417  -9.372   9.985  1.00  0.00     0.033 A 
HETATM   23  C   UNL     1      43.719 -10.270   7.670  1.00  0.00     0.051 A 
HETATM   24  C   UNL     1      44.363 -10.339   8.915  1.00  0.00     0.069 A 
HETATM   25  C   UNL     1      43.710  -9.900  10.060  1.00  0.00     0.039 A 
BRANCH  24  26
HETATM   26  O   UNL     1      45.629 -10.858   8.857  1.00  0.00    -0.356 OA
HETATM   27  C   UNL     1      46.317 -10.739   7.616  1.00  0.00     0.210 C 
ENDBRANCH  24  26
ENDBRANCH  13  15
ENDBRANCH  12  13
ENDBRANCH   1  12
BRANCH   3  28
HETATM   28  C   UNL     1      40.152 -14.091   3.276  1.00  0.00     0.173 C 
BRANCH  28  29
HETATM   29  N   UNL     1      41.118 -15.172   3.345  1.00  0.00    -0.278 N 
HETATM   30  C   UNL     1      41.225 -16.175   2.423  1.00  0.00     0.261 A 
HETATM   31  O   UNL     1      40.467 -16.411   1.501  1.00  0.00    -0.267 OA
HETATM   32  C   UNL     1      42.327 -17.030   2.865  1.00  0.00     0.048 A 
HETATM   33  C   UNL     1      42.789 -16.524   4.071  1.00  0.00     0.048 A 
HETATM   34  C   UNL     1      42.838 -18.187   2.314  1.00  0.00     0.018 A 
HETATM   35  C   UNL     1      41.984 -15.346   4.389  1.00  0.00     0.261 A 
HETATM   36  C   UNL     1      43.793 -17.141   4.788  1.00  0.00     0.018 A 
HETATM   37  O   UNL     1      42.019 -14.712   5.424  1.00  0.00    -0.267 OA
HETATM   38  C   UNL     1      44.336 -18.308   4.244  1.00  0.00     0.001 A 
HETATM   39  C   UNL     1      43.862 -18.827   3.019  1.00  0.00     0.001 A 
ENDBRANCH  28  29
ENDBRANCH   3  28
TORSDOF 6
ENDMDL
MODEL 7
REMARK VINA RESULT:      -8.0      2.694      4.350
REMARK  6 active torsions:
REMARK  status: ('A' for Active; 'I' for Inactive)
REMARK    1  A    between atoms: C_7  and  C_8 
REMARK    2  A    between atoms: C_8  and  C_9 
REMARK    3  A    between atoms: C_9  and  N_10 
REMARK    4  A    between atoms: C_12  and  C_13 
REMARK    5  A    between atoms: C_13  and  N_14 
REMARK    6  A    between atoms: C_36  and  O_37 
ROOT
HETATM    1  N   UNL     1      41.112 -14.693   4.038  1.00  0.00    -0.054 N 
HETATM    2  H   UNL     1      40.702 -15.452   4.610  1.00  0.00     0.281 HD
HETATM    3  C   UNL     1      41.439 -15.431   2.733  1.00  0.00     0.240 C 
HETATM    4  C   UNL     1      42.359 -16.603   3.056  1.00  0.00    -0.020 A 
HETATM    5  C   UNL     1      43.218 -16.565   4.176  1.00  0.00    -0.048 A 
HETATM    6  C   UNL     1      43.188 -15.433   5.173  1.00  0.00     0.067 C 
HETATM    7  C   UNL     1      42.354 -14.226   4.745  1.00  0.00     0.241 C 
HETATM    8  C   UNL     1      42.382 -17.724   2.209  1.00  0.00     0.010 A 
HETATM    9  C   UNL     1      43.245 -18.788   2.466  1.00  0.00     0.001 A 
HETATM   10  C   UNL     1      44.092 -18.749   3.569  1.00  0.00     0.001 A 
HETATM   11  C   UNL     1      44.077 -17.647   4.422  1.00  0.00     0.008 A 
ENDROOT
BRANCH   1  12
HETATM   12  C   UNL     1      39.984 -13.665   4.022  1.00  0.00     0.319 C 
BRANCH  12  13
HETATM   13  C   UNL     1      40.229 -12.488   4.953  1.00  0.00     0.188 C 
HETATM   14  O   UNL     1      40.191 -12.702   6.169  1.00  0.00    -0.290 OA
BRANCH  13  15
HETATM   15  C   UNL     1      40.550 -11.175   4.386  1.00  0.00     0.046 A 
HETATM   16  C   UNL     1      41.721 -10.477   4.668  1.00  0.00     0.020 A 
HETATM   17  C   UNL     1      42.864 -10.798   5.569  1.00  0.00     0.069 C 
HETATM   18  N   UNL     1      41.718  -9.321   3.932  1.00  0.00    -0.358 N 
HETATM   19  H   UNL     1      42.459  -8.630   3.927  1.00  0.00     0.166 HD
HETATM   20  C   UNL     1      40.568  -9.228   3.190  1.00  0.00     0.043 A 
HETATM   21  C   UNL     1      39.801 -10.361   3.458  1.00  0.00     0.009 A 
HETATM   22  C   UNL     1      40.169  -8.224   2.300  1.00  0.00     0.033 A 
HETATM   23  C   UNL     1      38.555 -10.463   2.794  1.00  0.00     0.051 A 
HETATM   24  C   UNL     1      38.124  -9.462   1.910  1.00  0.00     0.069 A 
HETATM   25  C   UNL     1      38.932  -8.359   1.662  1.00  0.00     0.039 A 
BRANCH  24  26
HETATM   26  O   UNL     1      36.892  -9.699   1.362  1.00  0.00    -0.356 OA
HETATM   27  C   UNL     1      36.365  -8.694   0.502  1.00  0.00     0.210 C 
ENDBRANCH  24  26
ENDBRANCH  13  15
ENDBRANCH  12  13
ENDBRANCH   1  12
BRANCH   3  28
HETATM   28  C   UNL     1      42.121 -14.563   1.630  1.00  0.00     0.173 C 
BRANCH  28  29
HETATM   29  N   UNL     1      41.227 -13.792   0.786  1.00  0.00    -0.278 N 
HETATM   30  C   UNL     1      41.291 -12.437   0.624  1.00  0.00     0.261 A 
HETATM   31  O   UNL     1      41.984 -11.654   1.244  1.00  0.00    -0.267 OA
HETATM   32  C   UNL     1      40.228 -12.080  -0.316  1.00  0.00     0.048 A 
HETATM   33  C   UNL     1      39.537 -13.243  -0.624  1.00  0.00     0.048 A 
HETATM   34  C   UNL     1      39.841 -10.849  -0.804  1.00  0.00     0.018 A 
HETATM   35  C   UNL     1      40.168 -14.336   0.114  1.00  0.00     0.261 A 
HETATM   36  C   UNL     1      38.428 -13.241  -1.444  1.00  0.00     0.018 A 
HETATM   37  O   UNL     1      39.763 -15.479   0.187  1.00  0.00    -0.267 OA
HETATM   38  C   UNL     1      38.025 -12.007  -1.962  1.00  0.00     0.001 A 
HETATM   39  C   UNL     1      38.723 -10.822  -1.644  1.00  0.00     0.001 A 
ENDBRANCH  28  29
ENDBRANCH   3  28
TORSDOF 6
ENDMDL
MODEL 8
REMARK VINA RESULT:      -8.0      3.261      6.261
REMARK  6 active torsions:
REMARK  status: ('A' for Active; 'I' for Inactive)
REMARK    1  A    between atoms: C_7  and  C_8 
REMARK    2  A    between atoms: C_8  and  C_9 
REMARK    3  A    between atoms: C_9  and  N_10 
REMARK    4  A    between atoms: C_12  and  C_13 
REMARK    5  A    between atoms: C_13  and  N_14 
REMARK    6  A    between atoms: C_36  and  O_37 
ROOT
HETATM    1  N   UNL     1      40.928 -12.589   2.784  1.00  0.00    -0.054 N 
HETATM    2  H   UNL     1      41.324 -12.774   1.847  1.00  0.00     0.281 HD
HETATM    3  C   UNL     1      41.972 -13.246   3.697  1.00  0.00     0.240 C 
HETATM    4  C   UNL     1      42.109 -14.712   3.301  1.00  0.00    -0.020 A 
HETATM    5  C   UNL     1      41.033 -15.407   2.706  1.00  0.00    -0.048 A 
HETATM    6  C   UNL     1      39.746 -14.718   2.322  1.00  0.00     0.067 C 
HETATM    7  C   UNL     1      39.601 -13.293   2.852  1.00  0.00     0.241 C 
HETATM    8  C   UNL     1      43.309 -15.394   3.561  1.00  0.00     0.010 A 
HETATM    9  C   UNL     1      43.439 -16.745   3.241  1.00  0.00     0.001 A 
HETATM   10  C   UNL     1      42.378 -17.429   2.657  1.00  0.00     0.001 A 
HETATM   11  C   UNL     1      41.183 -16.765   2.387  1.00  0.00     0.008 A 
ENDROOT
BRANCH   1  12
HETATM   12  C   UNL     1      40.822 -11.067   2.789  1.00  0.00     0.319 C 
BRANCH  12  13
HETATM   13  C   UNL     1      40.939 -10.450   1.404  1.00  0.00     0.188 C 
HETATM   14  O   UNL     1      42.070 -10.159   1.000  1.00  0.00    -0.290 OA
BRANCH  13  15
HETATM   15  C   UNL     1      39.734 -10.276   0.588  1.00  0.00     0.046 A 
HETATM   16  C   UNL     1      38.987  -9.102   0.553  1.00  0.00     0.020 A 
HETATM   17  C   UNL     1      39.144  -7.815   1.288  1.00  0.00     0.069 C 
HETATM   18  N   UNL     1      37.968  -9.270  -0.348  1.00  0.00    -0.358 N 
HETATM   19  H   UNL     1      37.280  -8.567  -0.588  1.00  0.00     0.166 HD
HETATM   20  C   UNL     1      38.010 -10.529  -0.891  1.00  0.00     0.043 A 
HETATM   21  C   UNL     1      39.092 -11.198  -0.319  1.00  0.00     0.009 A 
HETATM   22  C   UNL     1      37.170 -11.107  -1.850  1.00  0.00     0.033 A 
HETATM   23  C   UNL     1      39.314 -12.531  -0.738  1.00  0.00     0.051 A 
HETATM   24  C   UNL     1      38.476 -13.140  -1.686  1.00  0.00     0.069 A 
HETATM   25  C   UNL     1      37.420 -12.426  -2.239  1.00  0.00     0.039 A 
BRANCH  24  26
HETATM   26  O   UNL     1      38.813 -14.436  -1.973  1.00  0.00    -0.356 OA
HETATM   27  C   UNL     1      38.377 -14.952  -3.226  1.00  0.00     0.210 C 
ENDBRANCH  24  26
ENDBRANCH  13  15
ENDBRANCH  12  13
ENDBRANCH   1  12
BRANCH   3  28
HETATM   28  C   UNL     1      41.659 -13.180   5.224  1.00  0.00     0.173 C 
BRANCH  28  29
HETATM   29  N   UNL     1      42.455 -12.243   5.995  1.00  0.00    -0.278 N 
HETATM   30  C   UNL     1      43.699 -12.511   6.492  1.00  0.00     0.261 A 
HETATM   31  O   UNL     1      44.274 -13.583   6.501  1.00  0.00    -0.267 OA
HETATM   32  C   UNL     1      44.141 -11.298   7.182  1.00  0.00     0.048 A 
HETATM   33  C   UNL     1      43.104 -10.379   7.114  1.00  0.00     0.048 A 
HETATM   34  C   UNL     1      45.306 -11.037   7.874  1.00  0.00     0.018 A 
HETATM   35  C   UNL     1      42.010 -11.008   6.375  1.00  0.00     0.261 A 
HETATM   36  C   UNL     1      43.178  -9.145   7.725  1.00  0.00     0.018 A 
HETATM   37  O   UNL     1      40.895 -10.551   6.220  1.00  0.00    -0.267 OA
HETATM   38  C   UNL     1      44.354  -8.852   8.421  1.00  0.00     0.001 A 
HETATM   39  C   UNL     1      45.407  -9.789   8.496  1.00  0.00     0.001 A 
ENDBRANCH  28  29
ENDBRANCH   3  28
TORSDOF 6
ENDMDL
MODEL 9
REMARK VINA RESULT:      -7.8      4.094      7.322
REMARK  6 active torsions:
REMARK  status: ('A' for Active; 'I' for Inactive)
REMARK    1  A    between atoms: C_7  and  C_8 
REMARK    2  A    between atoms: C_8  and  C_9 
REMARK    3  A    between atoms: C_9  and  N_10 
REMARK    4  A    between atoms: C_12  and  C_13 
REMARK    5  A    between atoms: C_13  and  N_14 
REMARK    6  A    between atoms: C_36  and  O_37 
ROOT
HETATM    1  N   UNL     1      41.318  -9.366   8.859  1.00  0.00    -0.054 N 
HETATM    2  H   UNL     1      41.763  -9.575   9.769  1.00  0.00     0.281 HD
HETATM    3  C   UNL     1      42.081 -10.309   7.918  1.00  0.00     0.240 C 
HETATM    4  C   UNL     1      43.570 -10.002   8.025  1.00  0.00    -0.020 A 
HETATM    5  C   UNL     1      44.022  -8.713   8.385  1.00  0.00    -0.048 A 
HETATM    6  C   UNL     1      43.071  -7.616   8.798  1.00  0.00     0.067 C 
HETATM    7  C   UNL     1      41.595  -7.921   8.550  1.00  0.00     0.241 C 
HETATM    8  C   UNL     1      44.510 -11.002   7.729  1.00  0.00     0.010 A 
HETATM    9  C   UNL     1      45.876 -10.729   7.784  1.00  0.00     0.001 A 
HETATM   10  C   UNL     1      46.320  -9.459   8.137  1.00  0.00     0.001 A 
HETATM   11  C   UNL     1      45.400  -8.457   8.440  1.00  0.00     0.008 A 
ENDROOT
BRANCH   1  12
HETATM   12  C   UNL     1      39.850  -9.668   9.148  1.00  0.00     0.319 C 
BRANCH  12  13
HETATM   13  C   UNL     1      39.277  -8.836  10.285  1.00  0.00     0.188 C 
HETATM   14  O   UNL     1      38.255  -8.181  10.056  1.00  0.00    -0.290 OA
BRANCH  13  15
HETATM   15  C   UNL     1      39.912  -8.885  11.605  1.00  0.00     0.046 A 
HETATM   16  C   UNL     1      39.777  -9.952  12.489  1.00  0.00     0.020 A 
HETATM   17  C   UNL     1      38.996 -11.217  12.390  1.00  0.00     0.069 C 
HETATM   18  N   UNL     1      40.542  -9.690  13.595  1.00  0.00    -0.358 N 
HETATM   19  H   UNL     1      40.646 -10.307  14.392  1.00  0.00     0.166 HD
HETATM   20  C   UNL     1      41.158  -8.471  13.476  1.00  0.00     0.043 A 
HETATM   21  C   UNL     1      40.776  -7.925  12.250  1.00  0.00     0.009 A 
HETATM   22  C   UNL     1      42.028  -7.828  14.364  1.00  0.00     0.033 A 
HETATM   23  C   UNL     1      41.300  -6.651  11.925  1.00  0.00     0.051 A 
HETATM   24  C   UNL     1      42.160  -5.977  12.807  1.00  0.00     0.069 A 
HETATM   25  C   UNL     1      42.525  -6.569  14.010  1.00  0.00     0.039 A 
BRANCH  24  26
HETATM   26  O   UNL     1      42.565  -4.750  12.356  1.00  0.00    -0.356 OA
HETATM   27  C   UNL     1      42.538  -4.540  10.947  1.00  0.00     0.210 C 
ENDBRANCH  24  26
ENDBRANCH  13  15
ENDBRANCH  12  13
ENDBRANCH   1  12
BRANCH   3  28
HETATM   28  C   UNL     1      41.671 -10.224   6.415  1.00  0.00     0.173 C 
BRANCH  28  29
HETATM   29  N   UNL     1      41.750 -11.464   5.664  1.00  0.00    -0.278 N 
HETATM   30  C   UNL     1      42.684 -11.729   4.703  1.00  0.00     0.261 A 
HETATM   31  O   UNL     1      43.488 -10.952   4.224  1.00  0.00    -0.267 OA
HETATM   32  C   UNL     1      42.413 -13.084   4.221  1.00  0.00     0.048 A 
HETATM   33  C   UNL     1      41.283 -13.542   4.883  1.00  0.00     0.048 A 
HETATM   34  C   UNL     1      43.040 -13.828   3.244  1.00  0.00     0.018 A 
HETATM   35  C   UNL     1      40.844 -12.480   5.787  1.00  0.00     0.261 A 
HETATM   36  C   UNL     1      40.723 -14.772   4.610  1.00  0.00     0.018 A 
HETATM   37  O   UNL     1      39.821 -12.474   6.441  1.00  0.00    -0.267 OA
HETATM   38  C   UNL     1      41.349 -15.551   3.633  1.00  0.00     0.001 A 
HETATM   39  C   UNL     1      42.495 -15.083   2.955  1.00  0.00     0.001 A 
ENDBRANCH  28  29
ENDBRANCH   3  28
TORSDOF 6
ENDMDL
MODEL 10
REMARK VINA RESULT:      -7.8      2.566      6.000
REMARK  6 active torsions:
REMARK  status: ('A' for Active; 'I' for Inactive)
REMARK    1  A    between atoms: C_7  and  C_8 
REMARK    2  A    between atoms: C_8  and  C_9 
REMARK    3  A    between atoms: C_9  and  N_10 
REMARK    4  A    between atoms: C_12  and  C_13 
REMARK    5  A    between atoms: C_13  and  N_14 
REMARK    6  A    between atoms: C_36  and  O_37 
ROOT
HETATM    1  N   UNL     1      40.783 -11.717   4.590  1.00  0.00    -0.054 N 
HETATM    2  H   UNL     1      41.264 -10.908   4.161  1.00  0.00     0.281 HD
HETATM    3  C   UNL     1      41.139 -12.844   3.610  1.00  0.00     0.240 C 
HETATM    4  C   UNL     1      40.670 -12.442   2.217  1.00  0.00    -0.020 A 
HETATM    5  C   UNL     1      39.579 -11.563   2.043  1.00  0.00    -0.048 A 
HETATM    6  C   UNL     1      38.901 -10.885   3.208  1.00  0.00     0.067 C 
HETATM    7  C   UNL     1      39.310 -11.412   4.582  1.00  0.00     0.241 C 
HETATM    8  C   UNL     1      41.308 -12.979   1.086  1.00  0.00     0.010 A 
HETATM    9  C   UNL     1      40.868 -12.654  -0.196  1.00  0.00     0.001 A 
HETATM   10  C   UNL     1      39.792 -11.789  -0.366  1.00  0.00     0.001 A 
HETATM   11  C   UNL     1      39.152 -11.243   0.745  1.00  0.00     0.008 A 
ENDROOT
BRANCH   1  12
HETATM   12  C   UNL     1      41.401 -11.751   5.984  1.00  0.00     0.319 C 
BRANCH  12  13
HETATM   13  C   UNL     1      42.574 -10.797   6.147  1.00  0.00     0.188 C 
HETATM   14  O   UNL     1      43.678 -11.172   5.739  1.00  0.00    -0.290 OA
BRANCH  13  15
HETATM   15  C   UNL     1      42.348  -9.467   6.721  1.00  0.00     0.046 A 
HETATM   16  C   UNL     1      41.799  -8.403   6.012  1.00  0.00     0.020 A 
HETATM   17  C   UNL     1      41.359  -8.290   4.592  1.00  0.00     0.069 C 
HETATM   18  N   UNL     1      41.681  -7.336   6.864  1.00  0.00    -0.358 N 
HETATM   19  H   UNL     1      41.293  -6.433   6.619  1.00  0.00     0.166 HD
HETATM   20  C   UNL     1      42.157  -7.661   8.108  1.00  0.00     0.043 A 
HETATM   21  C   UNL     1      42.601  -8.983   8.057  1.00  0.00     0.009 A 
HETATM   22  C   UNL     1      42.214  -6.877   9.266  1.00  0.00     0.033 A 
HETATM   23  C   UNL     1      43.144  -9.522   9.247  1.00  0.00     0.051 A 
HETATM   24  C   UNL     1      43.228  -8.751  10.417  1.00  0.00     0.069 A 
HETATM   25  C   UNL     1      42.758  -7.444  10.423  1.00  0.00     0.039 A 
BRANCH  24  26
HETATM   26  O   UNL     1      43.793  -9.411  11.476  1.00  0.00    -0.356 OA
HETATM   27  C   UNL     1      43.793 -10.834  11.421  1.00  0.00     0.210 C 
ENDBRANCH  24  26
ENDBRANCH  13  15
ENDBRANCH  12  13
ENDBRANCH   1  12
BRANCH   3  28
HETATM   28  C   UNL     1      40.527 -14.239   3.949  1.00  0.00     0.173 C 
BRANCH  28  29
HETATM   29  N   UNL     1      41.431 -15.370   3.848  1.00  0.00    -0.278 N 
HETATM   30  C   UNL     1      42.432 -15.644   4.736  1.00  0.00     0.261 A 
HETATM   31  O   UNL     1      42.820 -14.938   5.648  1.00  0.00    -0.267 OA
HETATM   32  C   UNL     1      43.078 -16.871   4.270  1.00  0.00     0.048 A 
HETATM   33  C   UNL     1      42.464 -17.239   3.082  1.00  0.00     0.048 A 
HETATM   34  C   UNL     1      44.152 -17.568   4.784  1.00  0.00     0.018 A 
HETATM   35  C   UNL     1      41.425 -16.249   2.801  1.00  0.00     0.261 A 
HETATM   36  C   UNL     1      42.883 -18.328   2.347  1.00  0.00     0.018 A 
HETATM   37  O   UNL     1      40.760 -16.176   1.787  1.00  0.00    -0.267 OA
HETATM   38  C   UNL     1      43.961 -19.058   2.855  1.00  0.00     0.001 A 
HETATM   39  C   UNL     1      44.591 -18.681   4.061  1.00  0.00     0.001 A 
ENDBRANCH  28  29
ENDBRANCH   3  28
TORSDOF 6
ENDMDL
