MODEL 1
REMARK VINA RESULT:      -8.9      0.000      0.000
REMARK  2 active torsions:
REMARK  status: ('A' for Active; 'I' for Inactive)
REMARK    1  A    between atoms: C_6  and  C_8 
REMARK    2  A    between atoms: C_6  and  O_7 
ROOT
HETATM    1  C   UNL     1      45.569 -11.197   6.544  1.00  0.00     0.048 C 
HETATM    2  C   UNL     1      44.412 -12.045   6.103  1.00  0.00    -0.059 A 
HETATM    3  C   UNL     1      43.828 -12.968   6.976  1.00  0.00     0.037 A 
HETATM    4  C   UNL     1      42.761 -13.708   6.508  1.00  0.00     0.046 A 
HETATM    5  C   UNL     1      42.248 -13.579   5.210  1.00  0.00     0.023 A 
HETATM    6  C   UNL     1      41.055 -14.509   5.064  1.00  0.00     0.199 A 
HETATM    7  C   UNL     1      41.015 -15.206   6.472  1.00  0.00     0.266 A 
HETATM    8  O   UNL     1      40.225 -16.036   6.893  1.00  0.00    -0.269 OA
HETATM    9  N   UNL     1      42.044 -14.650   7.231  1.00  0.00    -0.323 N 
HETATM   10  C   UNL     1      42.801 -12.646   4.336  1.00  0.00    -0.049 A 
HETATM   11  C   UNL     1      42.301 -12.457   2.935  1.00  0.00     0.049 C 
HETATM   12  C   UNL     1      43.900 -11.897   4.796  1.00  0.00     0.014 A 
HETATM   13  H   UNL     1      42.217 -14.922   8.187  1.00  0.00     0.169 HD
ENDROOT
BRANCH   6  14
HETATM   14  C   UNL     1      41.335 -15.481   3.946  1.00  0.00     0.018 A 
HETATM   15  C   UNL     1      42.343 -16.512   3.867  1.00  0.00     0.002 A 
HETATM   16  C   UNL     1      42.175 -17.174   2.647  1.00  0.00     0.043 A 
HETATM   17  C   UNL     1      43.380 -16.958   4.717  1.00  0.00     0.014 A 
HETATM   18  C   UNL     1      42.977 -18.248   2.242  1.00  0.00     0.030 A 
HETATM   19  N   UNL     1      41.120 -16.578   2.002  1.00  0.00    -0.365 N 
HETATM   20  C   UNL     1      43.989 -18.668   3.107  1.00  0.00     0.002 A 
HETATM   21  C   UNL     1      44.191 -18.032   4.328  1.00  0.00     0.001 A 
HETATM   22  H   UNL     1      40.766 -16.862   1.099  1.00  0.00     0.165 HD
HETATM   23  C   UNL     1      40.609 -15.571   2.766  1.00  0.00     0.100 A 
ENDBRANCH   6  14
BRANCH   6  24
HETATM   24  O   UNL     1      39.875 -13.736   4.847  1.00  0.00    -0.371 OA
HETATM   25  H   UNL     1      40.169 -12.820   4.718  1.00  0.00     0.212 HD
ENDBRANCH   6  24
TORSDOF 2
ENDMDL
MODEL 2
REMARK VINA RESULT:      -8.2      2.340      5.514
REMARK  2 active torsions:
REMARK  status: ('A' for Active; 'I' for Inactive)
REMARK    1  A    between atoms: C_6  and  C_8 
REMARK    2  A    between atoms: C_6  and  O_7 
ROOT
HETATM    1  C   UNL     1      43.684 -20.253   1.895  1.00  0.00     0.048 C 
HETATM    2  C   UNL     1      43.581 -19.137   2.893  1.00  0.00    -0.059 A 
HETATM    3  C   UNL     1      43.746 -19.382   4.261  1.00  0.00     0.037 A 
HETATM    4  C   UNL     1      43.648 -18.308   5.121  1.00  0.00     0.046 A 
HETATM    5  C   UNL     1      43.389 -16.999   4.690  1.00  0.00     0.023 A 
HETATM    6  C   UNL     1      43.398 -16.078   5.899  1.00  0.00     0.199 A 
HETATM    7  C   UNL     1      43.660 -17.089   7.072  1.00  0.00     0.266 A 
HETATM    8  O   UNL     1      43.782 -16.862   8.266  1.00  0.00    -0.269 OA
HETATM    9  N   UNL     1      43.803 -18.351   6.499  1.00  0.00    -0.323 N 
HETATM   10  C   UNL     1      43.248 -16.733   3.330  1.00  0.00    -0.049 A 
HETATM   11  C   UNL     1      42.970 -15.359   2.800  1.00  0.00     0.049 C 
HETATM   12  C   UNL     1      43.330 -17.823   2.443  1.00  0.00     0.014 A 
HETATM   13  H   UNL     1      43.997 -19.175   7.048  1.00  0.00     0.169 HD
ENDROOT
BRANCH   6  14
HETATM   14  C   UNL     1      42.053 -15.407   6.004  1.00  0.00     0.018 A 
HETATM   15  C   UNL     1      41.730 -14.001   5.940  1.00  0.00     0.002 A 
HETATM   16  C   UNL     1      40.342 -13.880   6.049  1.00  0.00     0.043 A 
HETATM   17  C   UNL     1      42.479 -12.812   5.790  1.00  0.00     0.014 A 
HETATM   18  C   UNL     1      39.673 -12.650   6.010  1.00  0.00     0.030 A 
HETATM   19  N   UNL     1      39.832 -15.149   6.179  1.00  0.00    -0.365 N 
HETATM   20  C   UNL     1      40.443 -11.496   5.855  1.00  0.00     0.002 A 
HETATM   21  C   UNL     1      41.828 -11.573   5.749  1.00  0.00     0.001 A 
HETATM   22  H   UNL     1      38.849 -15.366   6.264  1.00  0.00     0.165 HD
HETATM   23  C   UNL     1      40.840 -16.067   6.151  1.00  0.00     0.100 A 
ENDBRANCH   6  14
BRANCH   6  24
HETATM   24  O   UNL     1      44.475 -15.150   5.778  1.00  0.00    -0.371 OA
HETATM   25  H   UNL     1      44.885 -15.092   6.656  1.00  0.00     0.212 HD
ENDBRANCH   6  24
TORSDOF 2
ENDMDL
MODEL 3
REMARK VINA RESULT:      -8.1      2.843      5.005
REMARK  2 active torsions:
REMARK  status: ('A' for Active; 'I' for Inactive)
REMARK    1  A    between atoms: C_6  and  C_8 
REMARK    2  A    between atoms: C_6  and  O_7 
ROOT
HETATM    1  C   UNL     1      43.506 -18.305   5.837  1.00  0.00     0.048 C 
HETATM    2  C   UNL     1      42.922 -17.213   4.989  1.00  0.00    -0.059 A 
HETATM    3  C   UNL     1      41.872 -16.421   5.464  1.00  0.00     0.037 A 
HETATM    4  C   UNL     1      41.390 -15.429   4.634  1.00  0.00     0.046 A 
HETATM    5  C   UNL     1      41.900 -15.186   3.351  1.00  0.00     0.023 A 
HETATM    6  C   UNL     1      41.166 -13.997   2.754  1.00  0.00     0.199 A 
HETATM    7  C   UNL     1      40.140 -13.647   3.890  1.00  0.00     0.266 A 
HETATM    8  O   UNL     1      39.316 -12.747   3.927  1.00  0.00    -0.269 OA
HETATM    9  N   UNL     1      40.374 -14.536   4.938  1.00  0.00    -0.323 N 
HETATM   10  C   UNL     1      42.964 -15.948   2.873  1.00  0.00    -0.049 A 
HETATM   11  C   UNL     1      43.557 -15.742   1.511  1.00  0.00     0.049 C 
HETATM   12  C   UNL     1      43.453 -16.974   3.703  1.00  0.00     0.014 A 
HETATM   13  H   UNL     1      39.850 -14.504   5.800  1.00  0.00     0.169 HD
ENDROOT
BRANCH   6  14
HETATM   14  C   UNL     1      40.490 -14.438   1.481  1.00  0.00     0.018 A 
HETATM   15  C   UNL     1      40.440 -13.773   0.200  1.00  0.00     0.002 A 
HETATM   16  C   UNL     1      39.727 -14.597  -0.676  1.00  0.00     0.043 A 
HETATM   17  C   UNL     1      40.939 -12.553  -0.310  1.00  0.00     0.014 A 
HETATM   18  C   UNL     1      39.495 -14.271  -2.018  1.00  0.00     0.030 A 
HETATM   19  N   UNL     1      39.350 -15.713   0.030  1.00  0.00    -0.365 N 
HETATM   20  C   UNL     1      40.007 -13.061  -2.492  1.00  0.00     0.002 A 
HETATM   21  C   UNL     1      40.718 -12.211  -1.650  1.00  0.00     0.001 A 
HETATM   22  H   UNL     1      38.830 -16.488  -0.357  1.00  0.00     0.165 HD
HETATM   23  C   UNL     1      39.801 -15.632   1.315  1.00  0.00     0.100 A 
ENDBRANCH   6  14
BRANCH   6  24
HETATM   24  O   UNL     1      42.086 -12.925   2.552  1.00  0.00    -0.371 OA
HETATM   25  H   UNL     1      42.195 -12.493   3.414  1.00  0.00     0.212 HD
ENDBRANCH   6  24
TORSDOF 2
ENDMDL
MODEL 4
REMARK VINA RESULT:      -8.1      2.095      5.569
REMARK  2 active torsions:
REMARK  status: ('A' for Active; 'I' for Inactive)
REMARK    1  A    between atoms: C_6  and  C_8 
REMARK    2  A    between atoms: C_6  and  O_7 
ROOT
HETATM    1  C   UNL     1      44.369 -18.630   3.123  1.00  0.00     0.048 C 
HETATM    2  C   UNL     1      43.325 -17.555   3.034  1.00  0.00    -0.059 A 
HETATM    3  C   UNL     1      43.200 -16.773   1.881  1.00  0.00     0.037 A 
HETATM    4  C   UNL     1      42.212 -15.809   1.864  1.00  0.00     0.046 A 
HETATM    5  C   UNL     1      41.343 -15.581   2.939  1.00  0.00     0.023 A 
HETATM    6  C   UNL     1      40.363 -14.487   2.549  1.00  0.00     0.199 A 
HETATM    7  C   UNL     1      40.855 -14.115   1.105  1.00  0.00     0.266 A 
HETATM    8  O   UNL     1      40.392 -13.296   0.326  1.00  0.00    -0.269 OA
HETATM    9  N   UNL     1      41.924 -14.958   0.807  1.00  0.00    -0.323 N 
HETATM   10  C   UNL     1      41.436 -16.369   4.085  1.00  0.00    -0.049 A 
HETATM   11  C   UNL     1      40.540 -16.179   5.271  1.00  0.00     0.049 C 
HETATM   12  C   UNL     1      42.450 -17.344   4.121  1.00  0.00     0.014 A 
HETATM   13  H   UNL     1      42.406 -14.927  -0.078  1.00  0.00     0.169 HD
ENDROOT
BRANCH   6  14
HETATM   14  C   UNL     1      40.506 -13.343   3.521  1.00  0.00     0.018 A 
HETATM   15  C   UNL     1      41.702 -12.661   3.955  1.00  0.00     0.002 A 
HETATM   16  C   UNL     1      41.315 -11.644   4.832  1.00  0.00     0.043 A 
HETATM   17  C   UNL     1      43.082 -12.798   3.681  1.00  0.00     0.014 A 
HETATM   18  C   UNL     1      42.222 -10.767   5.438  1.00  0.00     0.030 A 
HETATM   19  N   UNL     1      39.947 -11.700   4.940  1.00  0.00    -0.365 N 
HETATM   20  C   UNL     1      43.577 -10.926   5.142  1.00  0.00     0.002 A 
HETATM   21  C   UNL     1      44.004 -11.928   4.277  1.00  0.00     0.001 A 
HETATM   22  H   UNL     1      39.390 -11.071   5.503  1.00  0.00     0.165 HD
HETATM   23  C   UNL     1      39.453 -12.705   4.163  1.00  0.00     0.100 A 
ENDBRANCH   6  14
BRANCH   6  24
HETATM   24  O   UNL     1      39.042 -15.024   2.514  1.00  0.00    -0.371 OA
HETATM   25  H   UNL     1      38.649 -14.841   3.382  1.00  0.00     0.212 HD
ENDBRANCH   6  24
TORSDOF 2
ENDMDL
MODEL 5
REMARK VINA RESULT:      -7.7      2.778      3.647
REMARK  2 active torsions:
REMARK  status: ('A' for Active; 'I' for Inactive)
REMARK    1  A    between atoms: C_6  and  C_8 
REMARK    2  A    between atoms: C_6  and  O_7 
ROOT
HETATM    1  C   UNL     1      39.881 -10.459   5.535  1.00  0.00     0.048 C 
HETATM    2  C   UNL     1      40.337 -11.560   4.620  1.00  0.00    -0.059 A 
HETATM    3  C   UNL     1      39.421 -12.471   4.085  1.00  0.00     0.037 A 
HETATM    4  C   UNL     1      39.908 -13.451   3.244  1.00  0.00     0.046 A 
HETATM    5  C   UNL     1      41.264 -13.573   2.910  1.00  0.00     0.023 A 
HETATM    6  C   UNL     1      41.423 -14.725   1.933  1.00  0.00     0.199 A 
HETATM    7  C   UNL     1      39.947 -15.249   1.811  1.00  0.00     0.266 A 
HETATM    8  O   UNL     1      39.513 -16.162   1.125  1.00  0.00    -0.269 OA
HETATM    9  N   UNL     1      39.154 -14.423   2.605  1.00  0.00    -0.323 N 
HETATM   10  C   UNL     1      42.186 -12.657   3.414  1.00  0.00    -0.049 A 
HETATM   11  C   UNL     1      43.650 -12.729   3.098  1.00  0.00     0.049 C 
HETATM   12  C   UNL     1      41.705 -11.663   4.286  1.00  0.00     0.014 A 
HETATM   13  H   UNL     1      38.155 -14.545   2.681  1.00  0.00     0.169 HD
ENDROOT
BRANCH   6  14
HETATM   14  C   UNL     1      42.351 -15.746   2.538  1.00  0.00     0.018 A 
HETATM   15  C   UNL     1      42.421 -16.219   3.900  1.00  0.00     0.002 A 
HETATM   16  C   UNL     1      43.420 -17.196   3.958  1.00  0.00     0.043 A 
HETATM   17  C   UNL     1      41.727 -15.922   5.095  1.00  0.00     0.014 A 
HETATM   18  C   UNL     1      43.752 -17.884   5.132  1.00  0.00     0.030 A 
HETATM   19  N   UNL     1      43.945 -17.316   2.695  1.00  0.00    -0.365 N 
HETATM   20  C   UNL     1      43.042 -17.571   6.292  1.00  0.00     0.002 A 
HETATM   21  C   UNL     1      42.044 -16.602   6.277  1.00  0.00     0.001 A 
HETATM   22  H   UNL     1      44.680 -17.961   2.439  1.00  0.00     0.165 HD
HETATM   23  C   UNL     1      43.316 -16.461   1.840  1.00  0.00     0.100 A 
ENDBRANCH   6  14
BRANCH   6  24
HETATM   24  O   UNL     1      41.889 -14.223   0.681  1.00  0.00    -0.371 OA
HETATM   25  H   UNL     1      42.471 -14.906   0.312  1.00  0.00     0.212 HD
ENDBRANCH   6  24
TORSDOF 2
ENDMDL
MODEL 6
REMARK VINA RESULT:      -7.4     14.921     16.288
REMARK  2 active torsions:
REMARK  status: ('A' for Active; 'I' for Inactive)
REMARK    1  A    between atoms: C_6  and  C_8 
REMARK    2  A    between atoms: C_6  and  O_7 
ROOT
HETATM    1  C   UNL     1      48.815 -29.262   3.663  1.00  0.00     0.048 C 
HETATM    2  C   UNL     1      47.726 -29.236   2.630  1.00  0.00    -0.059 A 
HETATM    3  C   UNL     1      46.380 -29.221   3.008  1.00  0.00     0.037 A 
HETATM    4  C   UNL     1      45.432 -29.188   2.006  1.00  0.00     0.046 A 
HETATM    5  C   UNL     1      45.756 -29.172   0.642  1.00  0.00     0.023 A 
HETATM    6  C   UNL     1      44.470 -29.086  -0.162  1.00  0.00     0.199 A 
HETATM    7  C   UNL     1      43.381 -29.102   0.969  1.00  0.00     0.266 A 
HETATM    8  O   UNL     1      42.166 -29.031   0.863  1.00  0.00    -0.269 OA
HETATM    9  N   UNL     1      44.057 -29.147   2.187  1.00  0.00    -0.323 N 
HETATM   10  C   UNL     1      47.092 -29.159   0.248  1.00  0.00    -0.049 A 
HETATM   11  C   UNL     1      47.509 -29.142  -1.192  1.00  0.00     0.049 C 
HETATM   12  C   UNL     1      48.069 -29.209   1.260  1.00  0.00     0.014 A 
HETATM   13  H   UNL     1      43.575 -29.148   3.073  1.00  0.00     0.169 HD
ENDROOT
BRANCH   6  14
HETATM   14  C   UNL     1      44.384 -30.292  -1.064  1.00  0.00     0.018 A 
HETATM   15  C   UNL     1      44.313 -30.347  -2.505  1.00  0.00     0.002 A 
HETATM   16  C   UNL     1      44.288 -31.695  -2.875  1.00  0.00     0.043 A 
HETATM   17  C   UNL     1      44.276 -29.384  -3.538  1.00  0.00     0.014 A 
HETATM   18  C   UNL     1      44.235 -32.123  -4.208  1.00  0.00     0.030 A 
HETATM   19  N   UNL     1      44.336 -32.435  -1.720  1.00  0.00    -0.365 N 
HETATM   20  C   UNL     1      44.206 -31.146  -5.204  1.00  0.00     0.002 A 
HETATM   21  C   UNL     1      44.225 -29.794  -4.877  1.00  0.00     0.001 A 
HETATM   22  H   UNL     1      44.344 -33.445  -1.687  1.00  0.00     0.165 HD
HETATM   23  C   UNL     1      44.396 -31.612  -0.635  1.00  0.00     0.100 A 
ENDBRANCH   6  14
BRANCH   6  24
HETATM   24  O   UNL     1      44.440 -27.853  -0.879  1.00  0.00    -0.371 OA
HETATM   25  H   UNL     1      44.808 -28.039  -1.758  1.00  0.00     0.212 HD
ENDBRANCH   6  24
TORSDOF 2
ENDMDL
MODEL 7
REMARK VINA RESULT:      -7.4      2.357      5.149
REMARK  2 active torsions:
REMARK  status: ('A' for Active; 'I' for Inactive)
REMARK    1  A    between atoms: C_6  and  C_8 
REMARK    2  A    between atoms: C_6  and  O_7 
ROOT
HETATM    1  C   UNL     1      44.185 -19.352   4.406  1.00  0.00     0.048 C 
HETATM    2  C   UNL     1      43.769 -17.925   4.191  1.00  0.00    -0.059 A 
HETATM    3  C   UNL     1      43.612 -17.055   5.275  1.00  0.00     0.037 A 
HETATM    4  C   UNL     1      43.238 -15.754   5.005  1.00  0.00     0.046 A 
HETATM    5  C   UNL     1      43.008 -15.275   3.708  1.00  0.00     0.023 A 
HETATM    6  C   UNL     1      42.663 -13.798   3.789  1.00  0.00     0.199 A 
HETATM    7  C   UNL     1      42.696 -13.544   5.338  1.00  0.00     0.266 A 
HETATM    8  O   UNL     1      42.509 -12.503   5.948  1.00  0.00    -0.269 OA
HETATM    9  N   UNL     1      43.056 -14.748   5.941  1.00  0.00    -0.323 N 
HETATM   10  C   UNL     1      43.185 -16.121   2.615  1.00  0.00    -0.049 A 
HETATM   11  C   UNL     1      42.956 -15.675   1.202  1.00  0.00     0.049 C 
HETATM   12  C   UNL     1      43.551 -17.455   2.878  1.00  0.00     0.014 A 
HETATM   13  H   UNL     1      43.163 -14.841   6.940  1.00  0.00     0.169 HD
ENDROOT
BRANCH   6  14
HETATM   14  C   UNL     1      41.292 -13.589   3.198  1.00  0.00     0.018 A 
HETATM   15  C   UNL     1      40.872 -12.657   2.178  1.00  0.00     0.002 A 
HETATM   16  C   UNL     1      39.512 -12.872   1.943  1.00  0.00     0.043 A 
HETATM   17  C   UNL     1      41.516 -11.654   1.420  1.00  0.00     0.014 A 
HETATM   18  C   UNL     1      38.773 -12.150   0.997  1.00  0.00     0.030 A 
HETATM   19  N   UNL     1      39.109 -13.884   2.780  1.00  0.00    -0.365 N 
HETATM   20  C   UNL     1      39.441 -11.170   0.261  1.00  0.00     0.002 A 
HETATM   21  C   UNL     1      40.794 -10.922   0.469  1.00  0.00     0.001 A 
HETATM   22  H   UNL     1      38.170 -14.258   2.817  1.00  0.00     0.165 HD
HETATM   23  C   UNL     1      40.160 -14.321   3.531  1.00  0.00     0.100 A 
ENDBRANCH   6  14
BRANCH   6  24
HETATM   24  O   UNL     1      43.674 -13.038   3.128  1.00  0.00    -0.371 OA
HETATM   25  H   UNL     1      44.368 -13.669   2.876  1.00  0.00     0.212 HD
ENDBRANCH   6  24
TORSDOF 2
ENDMDL
MODEL 8
REMARK VINA RESULT:      -7.4      1.748      2.103
REMARK  2 active torsions:
REMARK  status: ('A' for Active; 'I' for Inactive)
REMARK    1  A    between atoms: C_6  and  C_8 
REMARK    2  A    between atoms: C_6  and  O_7 
ROOT
HETATM    1  C   UNL     1      45.843 -10.850   6.984  1.00  0.00     0.048 C 
HETATM    2  C   UNL     1      44.542 -11.530   6.671  1.00  0.00    -0.059 A 
HETATM    3  C   UNL     1      44.279 -12.823   7.137  1.00  0.00     0.037 A 
HETATM    4  C   UNL     1      43.059 -13.383   6.821  1.00  0.00     0.046 A 
HETATM    5  C   UNL     1      42.084 -12.723   6.060  1.00  0.00     0.023 A 
HETATM    6  C   UNL     1      40.861 -13.618   5.954  1.00  0.00     0.199 A 
HETATM    7  C   UNL     1      41.327 -14.895   6.740  1.00  0.00     0.266 A 
HETATM    8  O   UNL     1      40.705 -15.919   6.974  1.00  0.00    -0.269 OA
HETATM    9  N   UNL     1      42.614 -14.638   7.210  1.00  0.00    -0.323 N 
HETATM   10  C   UNL     1      42.318 -11.425   5.610  1.00  0.00    -0.049 A 
HETATM   11  C   UNL     1      41.321 -10.661   4.792  1.00  0.00     0.049 C 
HETATM   12  C   UNL     1      43.566 -10.848   5.912  1.00  0.00     0.014 A 
HETATM   13  H   UNL     1      43.129 -15.305   7.764  1.00  0.00     0.169 HD
ENDROOT
BRANCH   6  14
HETATM   14  C   UNL     1      40.594 -13.900   4.497  1.00  0.00     0.018 A 
HETATM   15  C   UNL     1      41.432 -14.572   3.532  1.00  0.00     0.002 A 
HETATM   16  C   UNL     1      40.729 -14.622   2.325  1.00  0.00     0.043 A 
HETATM   17  C   UNL     1      42.719 -15.155   3.565  1.00  0.00     0.014 A 
HETATM   18  C   UNL     1      41.238 -15.222   1.166  1.00  0.00     0.030 A 
HETATM   19  N   UNL     1      39.519 -14.007   2.532  1.00  0.00    -0.365 N 
HETATM   20  C   UNL     1      42.510 -15.793   1.234  1.00  0.00     0.002 A 
HETATM   21  C   UNL     1      43.243 -15.760   2.415  1.00  0.00     0.001 A 
HETATM   22  H   UNL     1      38.799 -13.908   1.830  1.00  0.00     0.165 HD
HETATM   23  C   UNL     1      39.425 -13.575   3.822  1.00  0.00     0.100 A 
ENDBRANCH   6  14
BRANCH   6  24
HETATM   24  O   UNL     1      39.759 -12.992   6.610  1.00  0.00    -0.371 OA
HETATM   25  H   UNL     1      39.655 -12.120   6.197  1.00  0.00     0.212 HD
ENDBRANCH   6  24
TORSDOF 2
ENDMDL
MODEL 9
REMARK VINA RESULT:      -7.3      2.631      3.935
REMARK  2 active torsions:
REMARK  status: ('A' for Active; 'I' for Inactive)
REMARK    1  A    between atoms: C_6  and  C_8 
REMARK    2  A    between atoms: C_6  and  O_7 
ROOT
HETATM    1  C   UNL     1      38.643 -10.410   4.739  1.00  0.00     0.048 C 
HETATM    2  C   UNL     1      39.761 -11.307   5.186  1.00  0.00    -0.059 A 
HETATM    3  C   UNL     1      41.085 -10.855   5.185  1.00  0.00     0.037 A 
HETATM    4  C   UNL     1      42.062 -11.729   5.617  1.00  0.00     0.046 A 
HETATM    5  C   UNL     1      41.788 -13.034   6.049  1.00  0.00     0.023 A 
HETATM    6  C   UNL     1      43.088 -13.682   6.493  1.00  0.00     0.199 A 
HETATM    7  C   UNL     1      44.132 -12.546   6.199  1.00  0.00     0.266 A 
HETATM    8  O   UNL     1      45.336 -12.542   6.398  1.00  0.00    -0.269 OA
HETATM    9  N   UNL     1      43.418 -11.454   5.707  1.00  0.00    -0.323 N 
HETATM   10  C   UNL     1      40.472 -13.492   6.081  1.00  0.00    -0.049 A 
HETATM   11  C   UNL     1      40.109 -14.875   6.531  1.00  0.00     0.049 C 
HETATM   12  C   UNL     1      39.468 -12.616   5.627  1.00  0.00     0.014 A 
HETATM   13  H   UNL     1      43.865 -10.585   5.458  1.00  0.00     0.169 HD
ENDROOT
BRANCH   6  14
HETATM   14  C   UNL     1      43.324 -14.914   5.657  1.00  0.00     0.018 A 
HETATM   15  C   UNL     1      43.175 -15.088   4.231  1.00  0.00     0.002 A 
HETATM   16  C   UNL     1      43.550 -16.399   3.924  1.00  0.00     0.043 A 
HETATM   17  C   UNL     1      42.767 -14.258   3.163  1.00  0.00     0.014 A 
HETATM   18  C   UNL     1      43.543 -16.914   2.621  1.00  0.00     0.030 A 
HETATM   19  N   UNL     1      43.907 -17.007   5.102  1.00  0.00    -0.365 N 
HETATM   20  C   UNL     1      43.140 -16.065   1.589  1.00  0.00     0.002 A 
HETATM   21  C   UNL     1      42.755 -14.755   1.854  1.00  0.00     0.001 A 
HETATM   22  H   UNL     1      44.235 -17.960   5.179  1.00  0.00     0.165 HD
HETATM   23  C   UNL     1      43.780 -16.133   6.141  1.00  0.00     0.100 A 
ENDBRANCH   6  14
BRANCH   6  24
HETATM   24  O   UNL     1      43.024 -13.964   7.891  1.00  0.00    -0.371 OA
HETATM   25  H   UNL     1      42.386 -13.336   8.267  1.00  0.00     0.212 HD
ENDBRANCH   6  24
TORSDOF 2
ENDMDL
MODEL 10
REMARK VINA RESULT:      -7.3      8.676     11.532
REMARK  2 active torsions:
REMARK  status: ('A' for Active; 'I' for Inactive)
REMARK    1  A    between atoms: C_6  and  C_8 
REMARK    2  A    between atoms: C_6  and  O_7 
ROOT
HETATM    1  C   UNL     1      39.381  -7.820   7.356  1.00  0.00     0.048 C 
HETATM    2  C   UNL     1      39.815  -8.294   8.712  1.00  0.00    -0.059 A 
HETATM    3  C   UNL     1      39.062  -9.240   9.416  1.00  0.00     0.037 A 
HETATM    4  C   UNL     1      39.525  -9.638  10.653  1.00  0.00     0.046 A 
HETATM    5  C   UNL     1      40.701  -9.139  11.229  1.00  0.00     0.023 A 
HETATM    6  C   UNL     1      40.922  -9.833  12.563  1.00  0.00     0.199 A 
HETATM    7  C   UNL     1      39.659 -10.763  12.655  1.00  0.00     0.266 A 
HETATM    8  O   UNL     1      39.356 -11.558  13.530  1.00  0.00    -0.269 OA
HETATM    9  N   UNL     1      38.929 -10.575  11.483  1.00  0.00    -0.323 N 
HETATM   10  C   UNL     1      41.478  -8.217  10.531  1.00  0.00    -0.049 A 
HETATM   11  C   UNL     1      42.746  -7.643  11.088  1.00  0.00     0.049 C 
HETATM   12  C   UNL     1      41.008  -7.790   9.275  1.00  0.00     0.014 A 
HETATM   13  H   UNL     1      38.075 -11.078  11.293  1.00  0.00     0.169 HD
ENDROOT
BRANCH   6  14
HETATM   14  C   UNL     1      40.951  -8.790  13.651  1.00  0.00     0.018 A 
HETATM   15  C   UNL     1      40.011  -7.727  13.919  1.00  0.00     0.002 A 
HETATM   16  C   UNL     1      40.453  -7.049  15.059  1.00  0.00     0.043 A 
HETATM   17  C   UNL     1      38.818  -7.276  13.312  1.00  0.00     0.014 A 
HETATM   18  C   UNL     1      39.769  -5.962  15.617  1.00  0.00     0.030 A 
HETATM   19  N   UNL     1      41.612  -7.659  15.471  1.00  0.00    -0.365 N 
HETATM   20  C   UNL     1      38.590  -5.546  14.997  1.00  0.00     0.002 A 
HETATM   21  C   UNL     1      38.120  -6.191  13.858  1.00  0.00     0.001 A 
HETATM   22  H   UNL     1      42.147  -7.384  16.283  1.00  0.00     0.165 HD
HETATM   23  C   UNL     1      41.918  -8.698  14.643  1.00  0.00     0.100 A 
ENDBRANCH   6  14
BRANCH   6  24
HETATM   24  O   UNL     1      42.119 -10.607  12.502  1.00  0.00    -0.371 OA
HETATM   25  H   UNL     1      42.717 -10.238  13.172  1.00  0.00     0.212 HD
ENDBRANCH   6  24
TORSDOF 2
ENDMDL
