MODEL 1
REMARK VINA RESULT:      -9.0      0.000      0.000
REMARK  4 active torsions:
REMARK  status: ('A' for Active; 'I' for Inactive)
REMARK    1  A    between atoms: C_3  and  C_4 
REMARK       I    between atoms: C_4  and  N_5 
REMARK    2  A    between atoms: N_5  and  C_6 
REMARK    3  A    between atoms: C_13  and  C_14 
REMARK       I    between atoms: C_14  and  N_15 
REMARK    4  A    between atoms: C_23  and  O_24 
ROOT
HETATM    1  C   UNL     1      40.623 -15.094   0.974  1.00  0.00     0.280 C 
HETATM    2  N   UNL     1      41.906 -15.162   1.491  1.00  0.00    -0.321 N 
HETATM    3  O   UNL     1      39.692 -15.822   1.299  1.00  0.00    -0.265 OA
HETATM    4  H   UNL     1      42.539 -14.456   1.129  1.00  0.00     0.169 HD
ENDROOT
BRANCH   2   5
HETATM    5  C   UNL     1      42.418 -16.058   2.449  1.00  0.00     0.036 A 
HETATM    6  C   UNL     1      42.232 -15.913   3.830  1.00  0.00     0.046 A 
HETATM    7  C   UNL     1      42.780 -16.869   4.713  1.00  0.00     0.030 A 
HETATM    8  C   UNL     1      43.503 -17.931   4.187  1.00  0.00     0.063 A 
HETATM    9  C   UNL     1      42.800 -17.073   6.127  1.00  0.00     0.156 A 
HETATM   10  N   UNL     1      43.905 -18.668   5.265  1.00  0.00    -0.277 N 
HETATM   11  C   UNL     1      43.710 -18.108   2.818  1.00  0.00     0.034 A 
HETATM   12  H   UNL     1      44.458 -19.517   5.258  1.00  0.00     0.189 HD
HETATM   13  N   UNL     1      43.499 -18.185   6.452  1.00  0.00    -0.168 NA
HETATM   14  C   UNL     1      43.147 -17.152   1.962  1.00  0.00     0.032 A 
BRANCH   9  15
HETATM   15  C   UNL     1      42.169 -16.241   7.161  1.00  0.00     0.270 C 
HETATM   16  N   UNL     1      43.016 -15.867   8.170  1.00  0.00    -0.365 N 
HETATM   17  H   UNL     1      43.977 -16.184   8.138  1.00  0.00     0.159 HD
HETATM   18  H   UNL     1      42.667 -15.307   8.930  1.00  0.00     0.159 HD
HETATM   19  O   UNL     1      40.993 -15.895   7.161  1.00  0.00    -0.266 OA
ENDBRANCH   9  15
ENDBRANCH   2   5
BRANCH   1  20
HETATM   20  C   UNL     1      40.476 -14.033  -0.013  1.00  0.00     0.150 A 
HETATM   21  C   UNL     1      39.859 -13.993  -1.257  1.00  0.00    -0.009 A 
HETATM   22  C   UNL     1      39.127 -15.085  -1.950  1.00  0.00     0.052 C 
HETATM   23  C   UNL     1      40.072 -12.672  -1.763  1.00  0.00     0.009 A 
HETATM   24  C   UNL     1      40.795 -11.990  -0.794  1.00  0.00     0.120 A 
HETATM   25  C   UNL     1      39.726 -11.991  -2.944  1.00  0.00     0.015 A 
HETATM   26  O   UNL     1      41.032 -12.810   0.268  1.00  0.00    -0.301 OA
HETATM   27  C   UNL     1      41.219 -10.659  -0.905  1.00  0.00     0.102 A 
HETATM   28  C   UNL     1      40.858 -10.006  -2.093  1.00  0.00     0.040 A 
HETATM   29  C   UNL     1      40.127 -10.658  -3.093  1.00  0.00     0.004 A 
BRANCH  27  30
HETATM   30  O   UNL     1      41.929 -10.116   0.129  1.00  0.00    -0.353 OA
HETATM   31  C   UNL     1      41.180  -9.485   1.159  1.00  0.00     0.210 C 
ENDBRANCH  27  30
ENDBRANCH   1  20
TORSDOF 4
ENDMDL
MODEL 2
REMARK VINA RESULT:      -8.9      3.035      8.938
REMARK  4 active torsions:
REMARK  status: ('A' for Active; 'I' for Inactive)
REMARK    1  A    between atoms: C_3  and  C_4 
REMARK       I    between atoms: C_4  and  N_5 
REMARK    2  A    between atoms: N_5  and  C_6 
REMARK    3  A    between atoms: C_13  and  C_14 
REMARK       I    between atoms: C_14  and  N_15 
REMARK    4  A    between atoms: C_23  and  O_24 
ROOT
HETATM    1  C   UNL     1      42.314 -14.881   2.260  1.00  0.00     0.280 C 
HETATM    2  N   UNL     1      40.996 -14.941   1.840  1.00  0.00    -0.321 N 
HETATM    3  O   UNL     1      43.132 -14.046   1.896  1.00  0.00    -0.265 OA
HETATM    4  H   UNL     1      40.453 -15.682   2.274  1.00  0.00     0.169 HD
ENDROOT
BRANCH   2   5
HETATM    5  C   UNL     1      40.329 -14.106   0.922  1.00  0.00     0.036 A 
HETATM    6  C   UNL     1      39.803 -14.553  -0.297  1.00  0.00     0.046 A 
HETATM    7  C   UNL     1      39.145 -13.639  -1.150  1.00  0.00     0.030 A 
HETATM    8  C   UNL     1      39.044 -12.310  -0.760  1.00  0.00     0.063 A 
HETATM    9  C   UNL     1      38.490 -13.702  -2.419  1.00  0.00     0.156 A 
HETATM   10  N   UNL     1      38.376 -11.683  -1.774  1.00  0.00    -0.277 N 
HETATM   11  C   UNL     1      39.555 -11.830   0.447  1.00  0.00     0.034 A 
HETATM   12  H   UNL     1      38.126 -10.703  -1.831  1.00  0.00     0.189 HD
HETATM   13  N   UNL     1      38.024 -12.488  -2.790  1.00  0.00    -0.168 NA
HETATM   14  C   UNL     1      40.195 -12.758   1.280  1.00  0.00     0.032 A 
BRANCH   9  15
HETATM   15  C   UNL     1      38.299 -14.885  -3.270  1.00  0.00     0.270 C 
HETATM   16  N   UNL     1      38.281 -16.069  -2.583  1.00  0.00    -0.365 N 
HETATM   17  H   UNL     1      38.404 -16.049  -1.578  1.00  0.00     0.159 HD
HETATM   18  H   UNL     1      38.168 -16.934  -3.086  1.00  0.00     0.159 HD
HETATM   19  O   UNL     1      38.168 -14.858  -4.488  1.00  0.00    -0.266 OA
ENDBRANCH   9  15
ENDBRANCH   2   5
BRANCH   1  20
HETATM   20  C   UNL     1      42.642 -15.931   3.216  1.00  0.00     0.150 A 
HETATM   21  C   UNL     1      42.502 -16.015   4.595  1.00  0.00    -0.009 A 
HETATM   22  C   UNL     1      41.934 -15.001   5.521  1.00  0.00     0.052 C 
HETATM   23  C   UNL     1      43.029 -17.291   4.970  1.00  0.00     0.009 A 
HETATM   24  C   UNL     1      43.447 -17.906   3.797  1.00  0.00     0.120 A 
HETATM   25  C   UNL     1      43.196 -17.982   6.183  1.00  0.00     0.015 A 
HETATM   26  O   UNL     1      43.205 -17.086   2.735  1.00  0.00    -0.301 OA
HETATM   27  C   UNL     1      44.036 -19.175   3.727  1.00  0.00     0.102 A 
HETATM   28  C   UNL     1      44.186 -19.840   4.953  1.00  0.00     0.040 A 
HETATM   29  C   UNL     1      43.776 -19.256   6.157  1.00  0.00     0.004 A 
BRANCH  27  30
HETATM   30  O   UNL     1      44.402 -19.654   2.501  1.00  0.00    -0.353 OA
HETATM   31  C   UNL     1      43.461 -20.482   1.829  1.00  0.00     0.210 C 
ENDBRANCH  27  30
ENDBRANCH   1  20
TORSDOF 4
ENDMDL
MODEL 3
REMARK VINA RESULT:      -8.6      4.905      8.266
REMARK  4 active torsions:
REMARK  status: ('A' for Active; 'I' for Inactive)
REMARK    1  A    between atoms: C_3  and  C_4 
REMARK       I    between atoms: C_4  and  N_5 
REMARK    2  A    between atoms: N_5  and  C_6 
REMARK    3  A    between atoms: C_13  and  C_14 
REMARK       I    between atoms: C_14  and  N_15 
REMARK    4  A    between atoms: C_23  and  O_24 
ROOT
HETATM    1  C   UNL     1      43.564 -14.404   6.514  1.00  0.00     0.280 C 
HETATM    2  N   UNL     1      44.148 -13.215   6.114  1.00  0.00    -0.321 N 
HETATM    3  O   UNL     1      43.218 -14.671   7.659  1.00  0.00    -0.265 OA
HETATM    4  H   UNL     1      44.337 -13.157   5.118  1.00  0.00     0.169 HD
ENDROOT
BRANCH   2   5
HETATM    5  C   UNL     1      44.484 -12.096   6.901  1.00  0.00     0.036 A 
HETATM    6  C   UNL     1      43.609 -11.496   7.817  1.00  0.00     0.046 A 
HETATM    7  C   UNL     1      44.041 -10.380   8.567  1.00  0.00     0.030 A 
HETATM    8  C   UNL     1      45.327  -9.895   8.368  1.00  0.00     0.063 A 
HETATM    9  C   UNL     1      43.476  -9.530   9.567  1.00  0.00     0.156 A 
HETATM   10  N   UNL     1      45.447  -8.827   9.212  1.00  0.00    -0.277 N 
HETATM   11  C   UNL     1      46.225 -10.465   7.465  1.00  0.00     0.034 A 
HETATM   12  H   UNL     1      46.255  -8.227   9.333  1.00  0.00     0.189 HD
HETATM   13  N   UNL     1      44.355  -8.577   9.954  1.00  0.00    -0.168 NA
HETATM   14  C   UNL     1      45.777 -11.579   6.741  1.00  0.00     0.032 A 
BRANCH   9  15
HETATM   15  C   UNL     1      42.133  -9.613  10.158  1.00  0.00     0.270 C 
HETATM   16  N   UNL     1      42.079 -10.333  11.322  1.00  0.00    -0.365 N 
HETATM   17  H   UNL     1      42.933 -10.748  11.674  1.00  0.00     0.159 HD
HETATM   18  H   UNL     1      41.197 -10.454  11.791  1.00  0.00     0.159 HD
HETATM   19  O   UNL     1      41.126  -9.102   9.683  1.00  0.00    -0.266 OA
ENDBRANCH   9  15
ENDBRANCH   2   5
BRANCH   1  20
HETATM   20  C   UNL     1      43.381 -15.334   5.407  1.00  0.00     0.150 A 
HETATM   21  C   UNL     1      42.749 -15.210   4.176  1.00  0.00    -0.009 A 
HETATM   22  C   UNL     1      42.060 -14.017   3.619  1.00  0.00     0.052 C 
HETATM   23  C   UNL     1      42.883 -16.480   3.532  1.00  0.00     0.009 A 
HETATM   24  C   UNL     1      43.594 -17.293   4.404  1.00  0.00     0.120 A 
HETATM   25  C   UNL     1      42.471 -17.019   2.300  1.00  0.00     0.015 A 
HETATM   26  O   UNL     1      43.903 -16.597   5.535  1.00  0.00    -0.301 OA
HETATM   27  C   UNL     1      43.932 -18.629   4.153  1.00  0.00     0.102 A 
HETATM   28  C   UNL     1      43.509 -19.137   2.916  1.00  0.00     0.040 A 
HETATM   29  C   UNL     1      42.792 -18.350   2.008  1.00  0.00     0.004 A 
BRANCH  27  30
HETATM   30  O   UNL     1      44.634 -19.311   5.107  1.00  0.00    -0.353 OA
HETATM   31  C   UNL     1      44.224 -20.646   5.371  1.00  0.00     0.210 C 
ENDBRANCH  27  30
ENDBRANCH   1  20
TORSDOF 4
ENDMDL
MODEL 4
REMARK VINA RESULT:      -8.3      3.045      8.807
REMARK  4 active torsions:
REMARK  status: ('A' for Active; 'I' for Inactive)
REMARK    1  A    between atoms: C_3  and  C_4 
REMARK       I    between atoms: C_4  and  N_5 
REMARK    2  A    between atoms: N_5  and  C_6 
REMARK    3  A    between atoms: C_13  and  C_14 
REMARK       I    between atoms: C_14  and  N_15 
REMARK    4  A    between atoms: C_23  and  O_24 
ROOT
HETATM    1  C   UNL     1      40.616 -14.564   1.946  1.00  0.00     0.280 C 
HETATM    2  N   UNL     1      41.019 -14.400   0.632  1.00  0.00    -0.321 N 
HETATM    3  O   UNL     1      39.578 -14.123   2.426  1.00  0.00    -0.265 OA
HETATM    4  H   UNL     1      41.893 -14.864   0.403  1.00  0.00     0.169 HD
ENDROOT
BRANCH   2   5
HETATM    5  C   UNL     1      40.369 -13.701  -0.403  1.00  0.00     0.036 A 
HETATM    6  C   UNL     1      40.613 -12.355  -0.708  1.00  0.00     0.046 A 
HETATM    7  C   UNL     1      39.914 -11.742  -1.771  1.00  0.00     0.030 A 
HETATM    8  C   UNL     1      38.989 -12.491  -2.487  1.00  0.00     0.063 A 
HETATM    9  C   UNL     1      39.889 -10.448  -2.378  1.00  0.00     0.156 A 
HETATM   10  N   UNL     1      38.481 -11.640  -3.427  1.00  0.00    -0.277 N 
HETATM   11  C   UNL     1      38.720 -13.833  -2.212  1.00  0.00     0.034 A 
HETATM   12  H   UNL     1      37.776 -11.846  -4.126  1.00  0.00     0.189 HD
HETATM   13  N   UNL     1      38.999 -10.401  -3.395  1.00  0.00    -0.168 NA
HETATM   14  C   UNL     1      39.434 -14.421  -1.159  1.00  0.00     0.032 A 
BRANCH   9  15
HETATM   15  C   UNL     1      40.692  -9.273  -2.013  1.00  0.00     0.270 C 
HETATM   16  N   UNL     1      40.279  -8.649  -0.865  1.00  0.00    -0.365 N 
HETATM   17  H   UNL     1      39.476  -9.023  -0.373  1.00  0.00     0.159 HD
HETATM   18  H   UNL     1      40.762  -7.826  -0.545  1.00  0.00     0.159 HD
HETATM   19  O   UNL     1      41.649  -8.852  -2.652  1.00  0.00    -0.266 OA
ENDBRANCH   9  15
ENDBRANCH   2   5
BRANCH   1  20
HETATM   20  C   UNL     1      41.566 -15.345   2.727  1.00  0.00     0.150 A 
HETATM   21  C   UNL     1      42.242 -15.083   3.912  1.00  0.00    -0.009 A 
HETATM   22  C   UNL     1      42.162 -13.865   4.759  1.00  0.00     0.052 C 
HETATM   23  C   UNL     1      43.057 -16.231   4.166  1.00  0.00     0.009 A 
HETATM   24  C   UNL     1      42.820 -17.121   3.127  1.00  0.00     0.120 A 
HETATM   25  C   UNL     1      43.971 -16.600   5.168  1.00  0.00     0.015 A 
HETATM   26  O   UNL     1      41.912 -16.590   2.261  1.00  0.00    -0.301 OA
HETATM   27  C   UNL     1      43.433 -18.374   2.995  1.00  0.00     0.102 A 
HETATM   28  C   UNL     1      44.338 -18.715   4.011  1.00  0.00     0.040 A 
HETATM   29  C   UNL     1      44.604 -17.846   5.076  1.00  0.00     0.004 A 
BRANCH  27  30
HETATM   30  O   UNL     1      43.105 -19.146   1.916  1.00  0.00    -0.353 OA
HETATM   31  C   UNL     1      43.590 -20.482   1.914  1.00  0.00     0.210 C 
ENDBRANCH  27  30
ENDBRANCH   1  20
TORSDOF 4
ENDMDL
MODEL 5
REMARK VINA RESULT:      -8.2      4.828      8.056
REMARK  4 active torsions:
REMARK  status: ('A' for Active; 'I' for Inactive)
REMARK    1  A    between atoms: C_3  and  C_4 
REMARK       I    between atoms: C_4  and  N_5 
REMARK    2  A    between atoms: N_5  and  C_6 
REMARK    3  A    between atoms: C_13  and  C_14 
REMARK       I    between atoms: C_14  and  N_15 
REMARK    4  A    between atoms: C_23  and  O_24 
ROOT
HETATM    1  C   UNL     1      43.032 -13.713   6.077  1.00  0.00     0.280 C 
HETATM    2  N   UNL     1      44.252 -13.180   6.458  1.00  0.00    -0.321 N 
HETATM    3  O   UNL     1      41.940 -13.201   6.293  1.00  0.00    -0.265 OA
HETATM    4  H   UNL     1      45.056 -13.725   6.163  1.00  0.00     0.169 HD
ENDROOT
BRANCH   2   5
HETATM    5  C   UNL     1      44.504 -11.991   7.170  1.00  0.00     0.036 A 
HETATM    6  C   UNL     1      43.663 -11.489   8.172  1.00  0.00     0.046 A 
HETATM    7  C   UNL     1      44.004 -10.290   8.835  1.00  0.00     0.030 A 
HETATM    8  C   UNL     1      45.169  -9.629   8.468  1.00  0.00     0.063 A 
HETATM    9  C   UNL     1      43.439  -9.491   9.876  1.00  0.00     0.156 A 
HETATM   10  N   UNL     1      45.224  -8.520   9.265  1.00  0.00    -0.277 N 
HETATM   11  C   UNL     1      46.031 -10.098   7.475  1.00  0.00     0.034 A 
HETATM   12  H   UNL     1      45.940  -7.802   9.270  1.00  0.00     0.189 HD
HETATM   13  N   UNL     1      44.202  -8.403  10.128  1.00  0.00    -0.168 NA
HETATM   14  C   UNL     1      45.675 -11.295   6.839  1.00  0.00     0.032 A 
BRANCH   9  15
HETATM   15  C   UNL     1      42.204  -9.747  10.630  1.00  0.00     0.270 C 
HETATM   16  N   UNL     1      41.059  -9.580   9.898  1.00  0.00    -0.365 N 
HETATM   17  H   UNL     1      41.140  -9.296   8.930  1.00  0.00     0.159 HD
HETATM   18  H   UNL     1      40.163  -9.720  10.336  1.00  0.00     0.159 HD
HETATM   19  O   UNL     1      42.158 -10.076  11.810  1.00  0.00    -0.266 OA
ENDBRANCH   9  15
ENDBRANCH   2   5
BRANCH   1  20
HETATM   20  C   UNL     1      43.175 -14.973   5.360  1.00  0.00     0.150 A 
HETATM   21  C   UNL     1      43.793 -16.172   5.693  1.00  0.00    -0.009 A 
HETATM   22  C   UNL     1      44.504 -16.517   6.951  1.00  0.00     0.052 C 
HETATM   23  C   UNL     1      43.618 -17.034   4.565  1.00  0.00     0.009 A 
HETATM   24  C   UNL     1      42.899 -16.311   3.622  1.00  0.00     0.120 A 
HETATM   25  C   UNL     1      43.999 -18.350   4.249  1.00  0.00     0.015 A 
HETATM   26  O   UNL     1      42.624 -15.067   4.106  1.00  0.00    -0.301 OA
HETATM   27  C   UNL     1      42.524 -16.794   2.361  1.00  0.00     0.102 A 
HETATM   28  C   UNL     1      42.917 -18.110   2.077  1.00  0.00     0.040 A 
HETATM   29  C   UNL     1      43.641 -18.874   3.001  1.00  0.00     0.004 A 
BRANCH  27  30
HETATM   30  O   UNL     1      41.820 -15.967   1.533  1.00  0.00    -0.353 OA
HETATM   31  C   UNL     1      40.405 -15.982   1.665  1.00  0.00     0.210 C 
ENDBRANCH  27  30
ENDBRANCH   1  20
TORSDOF 4
ENDMDL
MODEL 6
REMARK VINA RESULT:      -8.1      1.727      2.816
REMARK  4 active torsions:
REMARK  status: ('A' for Active; 'I' for Inactive)
REMARK    1  A    between atoms: C_3  and  C_4 
REMARK       I    between atoms: C_4  and  N_5 
REMARK    2  A    between atoms: N_5  and  C_6 
REMARK    3  A    between atoms: C_13  and  C_14 
REMARK       I    between atoms: C_14  and  N_15 
REMARK    4  A    between atoms: C_23  and  O_24 
ROOT
HETATM    1  C   UNL     1      41.436 -13.689   1.531  1.00  0.00     0.280 C 
HETATM    2  N   UNL     1      41.111 -15.004   1.817  1.00  0.00    -0.321 N 
HETATM    3  O   UNL     1      42.477 -13.133   1.859  1.00  0.00    -0.265 OA
HETATM    4  H   UNL     1      40.220 -15.306   1.436  1.00  0.00     0.169 HD
ENDROOT
BRANCH   2   5
HETATM    5  C   UNL     1      41.860 -15.955   2.537  1.00  0.00     0.036 A 
HETATM    6  C   UNL     1      41.974 -15.962   3.934  1.00  0.00     0.046 A 
HETATM    7  C   UNL     1      42.744 -16.962   4.567  1.00  0.00     0.030 A 
HETATM    8  C   UNL     1      43.381 -17.916   3.783  1.00  0.00     0.063 A 
HETATM    9  C   UNL     1      43.083 -17.305   5.912  1.00  0.00     0.156 A 
HETATM   10  N   UNL     1      44.041 -18.727   4.662  1.00  0.00    -0.277 N 
HETATM   11  C   UNL     1      43.290 -17.941   2.390  1.00  0.00     0.034 A 
HETATM   12  H   UNL     1      44.616 -19.532   4.442  1.00  0.00     0.189 HD
HETATM   13  N   UNL     1      43.884 -18.393   5.954  1.00  0.00    -0.168 NA
HETATM   14  C   UNL     1      42.512 -16.944   1.787  1.00  0.00     0.032 A 
BRANCH   9  15
HETATM   15  C   UNL     1      42.657 -16.625   7.144  1.00  0.00     0.270 C 
HETATM   16  N   UNL     1      43.605 -16.615   8.132  1.00  0.00    -0.365 N 
HETATM   17  H   UNL     1      44.494 -17.067   7.954  1.00  0.00     0.159 HD
HETATM   18  H   UNL     1      43.397 -16.183   9.017  1.00  0.00     0.159 HD
HETATM   19  O   UNL     1      41.561 -16.104   7.314  1.00  0.00    -0.266 OA
ENDBRANCH   9  15
ENDBRANCH   2   5
BRANCH   1  20
HETATM   20  C   UNL     1      40.396 -13.012   0.769  1.00  0.00     0.150 A 
HETATM   21  C   UNL     1      39.488 -12.016   1.106  1.00  0.00    -0.009 A 
HETATM   22  C   UNL     1      39.335 -11.323   2.412  1.00  0.00     0.052 C 
HETATM   23  C   UNL     1      38.703 -11.781  -0.066  1.00  0.00     0.009 A 
HETATM   24  C   UNL     1      39.186 -12.641  -1.044  1.00  0.00     0.120 A 
HETATM   25  C   UNL     1      37.632 -10.931  -0.393  1.00  0.00     0.015 A 
HETATM   26  O   UNL     1      40.216 -13.379  -0.541  1.00  0.00    -0.301 OA
HETATM   27  C   UNL     1      38.679 -12.733  -2.347  1.00  0.00     0.102 A 
HETATM   28  C   UNL     1      37.613 -11.870  -2.643  1.00  0.00     0.040 A 
HETATM   29  C   UNL     1      37.098 -10.988  -1.686  1.00  0.00     0.004 A 
BRANCH  27  30
HETATM   30  O   UNL     1      39.252 -13.628  -3.204  1.00  0.00    -0.353 OA
HETATM   31  C   UNL     1      38.706 -14.940  -3.221  1.00  0.00     0.210 C 
ENDBRANCH  27  30
ENDBRANCH   1  20
TORSDOF 4
ENDMDL
MODEL 7
REMARK VINA RESULT:      -8.1      4.203      8.099
REMARK  4 active torsions:
REMARK  status: ('A' for Active; 'I' for Inactive)
REMARK    1  A    between atoms: C_3  and  C_4 
REMARK       I    between atoms: C_4  and  N_5 
REMARK    2  A    between atoms: N_5  and  C_6 
REMARK    3  A    between atoms: C_13  and  C_14 
REMARK       I    between atoms: C_14  and  N_15 
REMARK    4  A    between atoms: C_23  and  O_24 
ROOT
HETATM    1  C   UNL     1      42.380 -13.981   4.008  1.00  0.00     0.280 C 
HETATM    2  N   UNL     1      41.006 -13.865   4.135  1.00  0.00    -0.321 N 
HETATM    3  O   UNL     1      43.167 -13.043   3.963  1.00  0.00    -0.265 OA
HETATM    4  H   UNL     1      40.516 -14.752   4.191  1.00  0.00     0.169 HD
ENDROOT
BRANCH   2   5
HETATM    5  C   UNL     1      40.230 -12.692   4.214  1.00  0.00     0.036 A 
HETATM    6  C   UNL     1      40.125 -11.903   5.368  1.00  0.00     0.046 A 
HETATM    7  C   UNL     1      39.325 -10.739   5.347  1.00  0.00     0.030 A 
HETATM    8  C   UNL     1      38.652 -10.408   4.179  1.00  0.00     0.063 A 
HETATM    9  C   UNL     1      38.984  -9.708   6.275  1.00  0.00     0.156 A 
HETATM   10  N   UNL     1      37.971  -9.259   4.465  1.00  0.00    -0.277 N 
HETATM   11  C   UNL     1      38.734 -11.168   3.011  1.00  0.00     0.034 A 
HETATM   12  H   UNL     1      37.367  -8.731   3.845  1.00  0.00     0.189 HD
HETATM   13  N   UNL     1      38.147  -8.804   5.717  1.00  0.00    -0.168 NA
HETATM   14  C   UNL     1      39.541 -12.313   3.054  1.00  0.00     0.032 A 
BRANCH   9  15
HETATM   15  C   UNL     1      39.440  -9.566   7.665  1.00  0.00     0.270 C 
HETATM   16  N   UNL     1      39.024 -10.574   8.494  1.00  0.00    -0.365 N 
HETATM   17  H   UNL     1      38.448 -11.312   8.108  1.00  0.00     0.159 HD
HETATM   18  H   UNL     1      39.278 -10.553   9.468  1.00  0.00     0.159 HD
HETATM   19  O   UNL     1      40.128  -8.643   8.087  1.00  0.00    -0.266 OA
ENDBRANCH   9  15
ENDBRANCH   2   5
BRANCH   1  20
HETATM   20  C   UNL     1      42.817 -15.370   3.946  1.00  0.00     0.150 A 
HETATM   21  C   UNL     1      43.139 -16.201   2.881  1.00  0.00    -0.009 A 
HETATM   22  C   UNL     1      43.136 -15.873   1.432  1.00  0.00     0.052 C 
HETATM   23  C   UNL     1      43.474 -17.468   3.454  1.00  0.00     0.009 A 
HETATM   24  C   UNL     1      43.345 -17.326   4.829  1.00  0.00     0.120 A 
HETATM   25  C   UNL     1      43.871 -18.717   2.945  1.00  0.00     0.015 A 
HETATM   26  O   UNL     1      42.956 -16.055   5.128  1.00  0.00    -0.301 OA
HETATM   27  C   UNL     1      43.575 -18.346   5.762  1.00  0.00     0.102 A 
HETATM   28  C   UNL     1      43.971 -19.579   5.224  1.00  0.00     0.040 A 
HETATM   29  C   UNL     1      44.115 -19.763   3.843  1.00  0.00     0.004 A 
BRANCH  27  30
HETATM   30  O   UNL     1      43.405 -18.064   7.088  1.00  0.00    -0.353 OA
HETATM   31  C   UNL     1      44.117 -16.945   7.601  1.00  0.00     0.210 C 
ENDBRANCH  27  30
ENDBRANCH   1  20
TORSDOF 4
ENDMDL
MODEL 8
REMARK VINA RESULT:      -8.0      5.329      8.757
REMARK  4 active torsions:
REMARK  status: ('A' for Active; 'I' for Inactive)
REMARK    1  A    between atoms: C_3  and  C_4 
REMARK       I    between atoms: C_4  and  N_5 
REMARK    2  A    between atoms: N_5  and  C_6 
REMARK    3  A    between atoms: C_13  and  C_14 
REMARK       I    between atoms: C_14  and  N_15 
REMARK    4  A    between atoms: C_23  and  O_24 
ROOT
HETATM    1  C   UNL     1      43.037 -11.162   5.633  1.00  0.00     0.280 C 
HETATM    2  N   UNL     1      41.968 -12.039   5.701  1.00  0.00    -0.321 N 
HETATM    3  O   UNL     1      43.580 -10.790   4.599  1.00  0.00    -0.265 OA
HETATM    4  H   UNL     1      41.625 -12.207   6.642  1.00  0.00     0.169 HD
ENDROOT
BRANCH   2   5
HETATM    5  C   UNL     1      41.304 -12.695   4.646  1.00  0.00     0.036 A 
HETATM    6  C   UNL     1      41.839 -13.785   3.946  1.00  0.00     0.046 A 
HETATM    7  C   UNL     1      41.093 -14.381   2.905  1.00  0.00     0.030 A 
HETATM    8  C   UNL     1      39.843 -13.862   2.593  1.00  0.00     0.063 A 
HETATM    9  C   UNL     1      41.277 -15.470   1.999  1.00  0.00     0.156 A 
HETATM   10  N   UNL     1      39.379 -14.627   1.561  1.00  0.00    -0.277 N 
HETATM   11  C   UNL     1      39.279 -12.778   3.268  1.00  0.00     0.034 A 
HETATM   12  H   UNL     1      38.495 -14.532   1.075  1.00  0.00     0.189 HD
HETATM   13  N   UNL     1      40.212 -15.608   1.176  1.00  0.00    -0.168 NA
HETATM   14  C   UNL     1      40.034 -12.211   4.303  1.00  0.00     0.032 A 
BRANCH   9  15
HETATM   15  C   UNL     1      42.432 -16.375   1.909  1.00  0.00     0.270 C 
HETATM   16  N   UNL     1      43.505 -15.844   1.246  1.00  0.00    -0.365 N 
HETATM   17  H   UNL     1      43.429 -14.906   0.872  1.00  0.00     0.159 HD
HETATM   18  H   UNL     1      44.338 -16.397   1.123  1.00  0.00     0.159 HD
HETATM   19  O   UNL     1      42.469 -17.511   2.368  1.00  0.00    -0.266 OA
ENDBRANCH   9  15
ENDBRANCH   2   5
BRANCH   1  20
HETATM   20  C   UNL     1      43.459 -10.697   6.947  1.00  0.00     0.150 A 
HETATM   21  C   UNL     1      44.705 -10.631   7.559  1.00  0.00    -0.009 A 
HETATM   22  C   UNL     1      46.022 -11.030   6.998  1.00  0.00     0.052 C 
HETATM   23  C   UNL     1      44.476 -10.101   8.868  1.00  0.00     0.009 A 
HETATM   24  C   UNL     1      43.110  -9.870   8.967  1.00  0.00     0.120 A 
HETATM   25  C   UNL     1      45.288  -9.799   9.975  1.00  0.00     0.015 A 
HETATM   26  O   UNL     1      42.497 -10.222   7.802  1.00  0.00    -0.301 OA
HETATM   27  C   UNL     1      42.468  -9.357  10.102  1.00  0.00     0.102 A 
HETATM   28  C   UNL     1      43.305  -9.064  11.189  1.00  0.00     0.040 A 
HETATM   29  C   UNL     1      44.687  -9.281  11.129  1.00  0.00     0.004 A 
BRANCH  27  30
HETATM   30  O   UNL     1      41.114  -9.184  10.059  1.00  0.00    -0.353 OA
HETATM   31  C   UNL     1      40.392  -9.478  11.247  1.00  0.00     0.210 C 
ENDBRANCH  27  30
ENDBRANCH   1  20
TORSDOF 4
ENDMDL
MODEL 9
REMARK VINA RESULT:      -8.0     13.816     18.414
REMARK  4 active torsions:
REMARK  status: ('A' for Active; 'I' for Inactive)
REMARK    1  A    between atoms: C_3  and  C_4 
REMARK       I    between atoms: C_4  and  N_5 
REMARK    2  A    between atoms: N_5  and  C_6 
REMARK    3  A    between atoms: C_13  and  C_14 
REMARK       I    between atoms: C_14  and  N_15 
REMARK    4  A    between atoms: C_23  and  O_24 
ROOT
HETATM    1  C   UNL     1      40.621  -6.125  17.250  1.00  0.00     0.280 C 
HETATM    2  N   UNL     1      41.358  -7.233  16.869  1.00  0.00    -0.321 N 
HETATM    3  O   UNL     1      40.123  -5.311  16.482  1.00  0.00    -0.265 OA
HETATM    4  H   UNL     1      41.664  -7.817  17.642  1.00  0.00     0.169 HD
ENDROOT
BRANCH   2   5
HETATM    5  C   UNL     1      41.708  -7.648  15.569  1.00  0.00     0.036 A 
HETATM    6  C   UNL     1      40.989  -8.601  14.835  1.00  0.00     0.046 A 
HETATM    7  C   UNL     1      41.416  -8.948  13.534  1.00  0.00     0.030 A 
HETATM    8  C   UNL     1      42.551  -8.338  13.015  1.00  0.00     0.063 A 
HETATM    9  C   UNL     1      40.966  -9.828  12.503  1.00  0.00     0.156 A 
HETATM   10  N   UNL     1      42.713  -8.872  11.768  1.00  0.00    -0.277 N 
HETATM   11  C   UNL     1      43.292  -7.385  13.717  1.00  0.00     0.034 A 
HETATM   12  H   UNL     1      43.444  -8.661  11.099  1.00  0.00     0.189 HD
HETATM   13  N   UNL     1      41.777  -9.772  11.422  1.00  0.00    -0.168 NA
HETATM   14  C   UNL     1      42.842  -7.051  15.002  1.00  0.00     0.032 A 
BRANCH   9  15
HETATM   15  C   UNL     1      39.789 -10.708  12.527  1.00  0.00     0.270 C 
HETATM   16  N   UNL     1      39.119 -10.775  11.335  1.00  0.00    -0.365 N 
HETATM   17  H   UNL     1      39.463 -10.229  10.554  1.00  0.00     0.159 HD
HETATM   18  H   UNL     1      38.291 -11.343  11.260  1.00  0.00     0.159 HD
HETATM   19  O   UNL     1      39.404 -11.338  13.505  1.00  0.00    -0.266 OA
ENDBRANCH   9  15
ENDBRANCH   2   5
BRANCH   1  20
HETATM   20  C   UNL     1      40.477  -6.023  18.696  1.00  0.00     0.150 A 
HETATM   21  C   UNL     1      40.654  -4.966  19.580  1.00  0.00    -0.009 A 
HETATM   22  C   UNL     1      41.049  -3.568  19.267  1.00  0.00     0.052 C 
HETATM   23  C   UNL     1      40.387  -5.490  20.884  1.00  0.00     0.009 A 
HETATM   24  C   UNL     1      40.056  -6.828  20.711  1.00  0.00     0.120 A 
HETATM   25  C   UNL     1      40.395  -4.967  22.189  1.00  0.00     0.015 A 
HETATM   26  O   UNL     1      40.102  -7.148  19.387  1.00  0.00    -0.301 OA
HETATM   27  C   UNL     1      39.731  -7.710  21.750  1.00  0.00     0.102 A 
HETATM   28  C   UNL     1      39.747  -7.157  23.040  1.00  0.00     0.040 A 
HETATM   29  C   UNL     1      40.073  -5.813  23.256  1.00  0.00     0.004 A 
BRANCH  27  30
HETATM   30  O   UNL     1      39.429  -9.004  21.432  1.00  0.00    -0.353 OA
HETATM   31  C   UNL     1      40.453  -9.969  21.630  1.00  0.00     0.210 C 
ENDBRANCH  27  30
ENDBRANCH   1  20
TORSDOF 4
ENDMDL
MODEL 10
REMARK VINA RESULT:      -7.9      3.060      8.821
REMARK  4 active torsions:
REMARK  status: ('A' for Active; 'I' for Inactive)
REMARK    1  A    between atoms: C_3  and  C_4 
REMARK       I    between atoms: C_4  and  N_5 
REMARK    2  A    between atoms: N_5  and  C_6 
REMARK    3  A    between atoms: C_13  and  C_14 
REMARK       I    between atoms: C_14  and  N_15 
REMARK    4  A    between atoms: C_23  and  O_24 
ROOT
HETATM    1  C   UNL     1      41.742 -13.753   2.867  1.00  0.00     0.280 C 
HETATM    2  N   UNL     1      40.491 -13.942   2.305  1.00  0.00    -0.321 N 
HETATM    3  O   UNL     1      42.333 -12.681   2.928  1.00  0.00    -0.265 OA
HETATM    4  H   UNL     1      40.142 -14.893   2.375  1.00  0.00     0.169 HD
ENDROOT
BRANCH   2   5
HETATM    5  C   UNL     1      39.658 -12.992   1.682  1.00  0.00     0.036 A 
HETATM    6  C   UNL     1      39.591 -12.806   0.295  1.00  0.00     0.046 A 
HETATM    7  C   UNL     1      38.718 -11.830  -0.237  1.00  0.00     0.030 A 
HETATM    8  C   UNL     1      37.950 -11.070   0.635  1.00  0.00     0.063 A 
HETATM    9  C   UNL     1      38.367 -11.364  -1.541  1.00  0.00     0.156 A 
HETATM   10  N   UNL     1      37.228 -10.225  -0.159  1.00  0.00    -0.277 N 
HETATM   11  C   UNL     1      37.991 -11.228   2.021  1.00  0.00     0.034 A 
HETATM   12  H   UNL     1      36.560  -9.523   0.138  1.00  0.00     0.189 HD
HETATM   13  N   UNL     1      37.449 -10.373  -1.477  1.00  0.00    -0.168 NA
HETATM   14  C   UNL     1      38.857 -12.209   2.524  1.00  0.00     0.032 A 
BRANCH   9  15
HETATM   15  C   UNL     1      38.880 -11.843  -2.832  1.00  0.00     0.270 C 
HETATM   16  N   UNL     1      38.177 -12.895  -3.357  1.00  0.00    -0.365 N 
HETATM   17  H   UNL     1      37.389 -13.259  -2.834  1.00  0.00     0.159 HD
HETATM   18  H   UNL     1      38.465 -13.298  -4.233  1.00  0.00     0.159 HD
HETATM   19  O   UNL     1      39.850 -11.375  -3.418  1.00  0.00    -0.266 OA
ENDBRANCH   9  15
ENDBRANCH   2   5
BRANCH   1  20
HETATM   20  C   UNL     1      42.301 -14.985   3.408  1.00  0.00     0.150 A 
HETATM   21  C   UNL     1      42.985 -16.040   2.816  1.00  0.00    -0.009 A 
HETATM   22  C   UNL     1      43.363 -16.197   1.388  1.00  0.00     0.052 C 
HETATM   23  C   UNL     1      43.256 -16.974   3.865  1.00  0.00     0.009 A 
HETATM   24  C   UNL     1      42.729 -16.427   5.027  1.00  0.00     0.120 A 
HETATM   25  C   UNL     1      43.890 -18.226   3.942  1.00  0.00     0.015 A 
HETATM   26  O   UNL     1      42.160 -15.220   4.753  1.00  0.00    -0.301 OA
HETATM   27  C   UNL     1      42.776 -17.036   6.288  1.00  0.00     0.102 A 
HETATM   28  C   UNL     1      43.417 -18.283   6.334  1.00  0.00     0.040 A 
HETATM   29  C   UNL     1      43.963 -18.868   5.185  1.00  0.00     0.004 A 
BRANCH  27  30
HETATM   30  O   UNL     1      42.213 -16.381   7.347  1.00  0.00    -0.353 OA
HETATM   31  C   UNL     1      43.074 -15.560   8.124  1.00  0.00     0.210 C 
ENDBRANCH  27  30
ENDBRANCH   1  20
TORSDOF 4
ENDMDL
