MODEL 1
REMARK VINA RESULT:      -9.4      0.000      0.000
REMARK  4 active torsions:
REMARK  status: ('A' for Active; 'I' for Inactive)
REMARK    1  A    between atoms: C_5  and  C_6 
REMARK    2  A    between atoms: C_6  and  N_7 
REMARK    3  A    between atoms: N_13  and  C_15 
REMARK    4  A    between atoms: C_19  and  C_20 
ROOT
HETATM    1  N   UNL     1      43.290 -11.216   5.329  1.00  0.00    -0.064 N 
HETATM    2  H   UNL     1      43.146 -10.189   5.371  1.00  0.00     0.280 HD
HETATM    3  C   UNL     1      43.546 -11.523   3.885  1.00  0.00     0.236 C 
HETATM    4  C   UNL     1      43.582 -13.035   3.640  1.00  0.00     0.039 C 
HETATM    5  C   UNL     1      42.385 -13.839   4.229  1.00  0.00    -0.013 C 
HETATM    6  C   UNL     1      41.092 -13.696   3.377  1.00  0.00     0.245 C 
HETATM    7  N   UNL     1      41.192 -14.413   2.050  1.00  0.00    -0.065 N 
HETATM    8  H   UNL     1      41.938 -14.004   1.470  1.00  0.00     0.280 HD
HETATM    9  C   UNL     1      41.518 -15.898   2.196  1.00  0.00     0.244 C 
HETATM   10  C   UNL     1      42.838 -16.049   2.956  1.00  0.00     0.045 C 
HETATM   11  C   UNL     1      42.754 -15.348   4.321  1.00  0.00     0.022 C 
HETATM   12  C   UNL     1      42.116 -13.354   5.687  1.00  0.00     0.039 C 
HETATM   13  C   UNL     1      42.040 -11.841   5.853  1.00  0.00     0.236 C 
ENDROOT
BRANCH   7  14
HETATM   14  C   UNL     1      39.918 -14.260   1.260  1.00  0.00     0.188 A 
HETATM   15  C   UNL     1      39.980 -13.404   0.027  1.00  0.00     0.035 A 
HETATM   16  C   UNL     1      39.879 -14.898  -0.099  1.00  0.00     0.035 A 
ENDBRANCH   7  14
BRANCH  10  17
HETATM   17  C   UNL     1      43.231 -17.505   3.102  1.00  0.00    -0.052 A 
HETATM   18  C   UNL     1      42.873 -18.423   2.101  1.00  0.00     0.007 A 
HETATM   19  C   UNL     1      43.229 -19.768   2.208  1.00  0.00     0.001 A 
HETATM   20  C   UNL     1      43.947 -20.215   3.314  1.00  0.00     0.000 A 
HETATM   21  C   UNL     1      44.308 -19.318   4.315  1.00  0.00     0.001 A 
HETATM   22  C   UNL     1      43.953 -17.971   4.213  1.00  0.00     0.007 A 
ENDBRANCH  10  17
BRANCH   1  23
HETATM   23  C   UNL     1      44.523 -11.384   6.249  1.00  0.00     0.323 C 
BRANCH  23  24
HETATM   24  C   UNL     1      44.292 -10.806   7.593  1.00  0.00     0.198 A 
HETATM   25  O   UNL     1      44.297 -11.654   8.652  1.00  0.00    -0.194 OA
HETATM   26  N   UNL     1      44.032 -10.872   9.771  1.00  0.00    -0.112 NA
HETATM   27  C   UNL     1      43.888  -9.638   9.271  1.00  0.00     0.152 A 
HETATM   28  C   UNL     1      43.543  -8.475  10.114  1.00  0.00     0.096 C 
HETATM   29  N   UNL     1      44.067  -9.548   7.906  1.00  0.00    -0.208 NA
ENDBRANCH  23  24
ENDBRANCH   1  23
TORSDOF 4
ENDMDL
MODEL 2
REMARK VINA RESULT:      -8.3      4.173      7.738
REMARK  4 active torsions:
REMARK  status: ('A' for Active; 'I' for Inactive)
REMARK    1  A    between atoms: C_5  and  C_6 
REMARK    2  A    between atoms: C_6  and  N_7 
REMARK    3  A    between atoms: N_13  and  C_15 
REMARK    4  A    between atoms: C_19  and  C_20 
ROOT
HETATM    1  N   UNL     1      43.154 -16.345   3.129  1.00  0.00    -0.064 N 
HETATM    2  H   UNL     1      43.811 -16.459   3.925  1.00  0.00     0.280 HD
HETATM    3  C   UNL     1      43.399 -14.963   2.606  1.00  0.00     0.236 C 
HETATM    4  C   UNL     1      42.359 -14.581   1.547  1.00  0.00     0.039 C 
HETATM    5  C   UNL     1      40.873 -14.824   1.949  1.00  0.00    -0.013 C 
HETATM    6  C   UNL     1      40.333 -13.740   2.925  1.00  0.00     0.245 C 
HETATM    7  N   UNL     1      40.151 -12.397   2.252  1.00  0.00    -0.065 N 
HETATM    8  H   UNL     1      41.054 -12.030   1.922  1.00  0.00     0.280 HD
HETATM    9  C   UNL     1      39.232 -12.459   1.033  1.00  0.00     0.244 C 
HETATM   10  C   UNL     1      39.804 -13.459   0.025  1.00  0.00     0.045 C 
HETATM   11  C   UNL     1      39.976 -14.839   0.678  1.00  0.00     0.022 C 
HETATM   12  C   UNL     1      40.748 -16.235   2.603  1.00  0.00     0.039 C 
HETATM   13  C   UNL     1      41.781 -16.532   3.683  1.00  0.00     0.236 C 
ENDROOT
BRANCH   7  14
HETATM   14  C   UNL     1      39.617 -11.378   3.225  1.00  0.00     0.188 A 
HETATM   15  C   UNL     1      40.572 -10.318   3.694  1.00  0.00     0.035 A 
HETATM   16  C   UNL     1      39.478  -9.969   2.726  1.00  0.00     0.035 A 
ENDBRANCH   7  14
BRANCH  10  17
HETATM   17  C   UNL     1      38.949 -13.537  -1.223  1.00  0.00    -0.052 A 
HETATM   18  C   UNL     1      39.164 -14.574  -2.146  1.00  0.00     0.007 A 
HETATM   19  C   UNL     1      38.385 -14.673  -3.299  1.00  0.00     0.001 A 
HETATM   20  C   UNL     1      37.383 -13.740  -3.548  1.00  0.00     0.000 A 
HETATM   21  C   UNL     1      37.158 -12.705  -2.645  1.00  0.00     0.001 A 
HETATM   22  C   UNL     1      37.936 -12.602  -1.489  1.00  0.00     0.007 A 
ENDBRANCH  10  17
BRANCH   1  23
HETATM   23  C   UNL     1      43.623 -17.481   2.188  1.00  0.00     0.323 C 
BRANCH  23  24
HETATM   24  C   UNL     1      43.773 -18.768   2.907  1.00  0.00     0.198 A 
HETATM   25  O   UNL     1      43.534 -19.908   2.212  1.00  0.00    -0.194 OA
HETATM   26  N   UNL     1      43.715 -20.951   3.113  1.00  0.00    -0.112 NA
HETATM   27  C   UNL     1      44.036 -20.333   4.257  1.00  0.00     0.152 A 
HETATM   28  C   UNL     1      44.272 -21.067   5.517  1.00  0.00     0.096 C 
HETATM   29  N   UNL     1      44.107 -18.959   4.165  1.00  0.00    -0.208 NA
ENDBRANCH  23  24
ENDBRANCH   1  23
TORSDOF 4
ENDMDL
MODEL 3
REMARK VINA RESULT:      -8.3      3.489      8.403
REMARK  4 active torsions:
REMARK  status: ('A' for Active; 'I' for Inactive)
REMARK    1  A    between atoms: C_5  and  C_6 
REMARK    2  A    between atoms: C_6  and  N_7 
REMARK    3  A    between atoms: N_13  and  C_15 
REMARK    4  A    between atoms: C_19  and  C_20 
ROOT
HETATM    1  N   UNL     1      40.790 -14.467   1.277  1.00  0.00    -0.064 N 
HETATM    2  H   UNL     1      40.417 -15.164   0.604  1.00  0.00     0.280 HD
HETATM    3  C   UNL     1      42.123 -15.002   1.704  1.00  0.00     0.236 C 
HETATM    4  C   UNL     1      42.708 -14.171   2.852  1.00  0.00     0.039 C 
HETATM    5  C   UNL     1      41.746 -13.909   4.049  1.00  0.00    -0.013 C 
HETATM    6  C   UNL     1      41.594 -15.149   4.975  1.00  0.00     0.245 C 
HETATM    7  N   UNL     1      42.847 -15.432   5.773  1.00  0.00    -0.065 N 
HETATM    8  H   UNL     1      43.632 -15.663   5.148  1.00  0.00     0.280 HD
HETATM    9  C   UNL     1      43.298 -14.243   6.619  1.00  0.00     0.244 C 
HETATM   10  C   UNL     1      43.539 -13.039   5.704  1.00  0.00     0.045 C 
HETATM   11  C   UNL     1      42.270 -12.716   4.899  1.00  0.00     0.022 C 
HETATM   12  C   UNL     1      40.350 -13.487   3.495  1.00  0.00     0.039 C 
HETATM   13  C   UNL     1      39.802 -14.383   2.393  1.00  0.00     0.236 C 
ENDROOT
BRANCH   7  14
HETATM   14  C   UNL     1      42.657 -16.631   6.664  1.00  0.00     0.188 A 
HETATM   15  C   UNL     1      43.479 -17.849   6.353  1.00  0.00     0.035 A 
HETATM   16  C   UNL     1      43.806 -17.007   7.554  1.00  0.00     0.035 A 
ENDBRANCH   7  14
BRANCH  10  17
HETATM   17  C   UNL     1      44.022 -11.836   6.486  1.00  0.00    -0.052 A 
HETATM   18  C   UNL     1      43.091 -10.894   6.954  1.00  0.00     0.007 A 
HETATM   19  C   UNL     1      43.510  -9.781   7.684  1.00  0.00     0.001 A 
HETATM   20  C   UNL     1      44.862  -9.592   7.957  1.00  0.00     0.000 A 
HETATM   21  C   UNL     1      45.798 -10.516   7.499  1.00  0.00     0.001 A 
HETATM   22  C   UNL     1      45.383 -11.631   6.768  1.00  0.00     0.007 A 
ENDBRANCH  10  17
BRANCH   1  23
HETATM   23  C   UNL     1      40.860 -13.201   0.389  1.00  0.00     0.323 C 
BRANCH  23  24
HETATM   24  C   UNL     1      40.313 -13.445  -0.966  1.00  0.00     0.198 A 
HETATM   25  O   UNL     1      40.817 -12.710  -1.988  1.00  0.00    -0.194 OA
HETATM   26  N   UNL     1      40.123 -13.109  -3.126  1.00  0.00    -0.112 NA
HETATM   27  C   UNL     1      39.270 -14.035  -2.670  1.00  0.00     0.152 A 
HETATM   28  C   UNL     1      38.285 -14.706  -3.543  1.00  0.00     0.096 C 
HETATM   29  N   UNL     1      39.373 -14.294  -1.319  1.00  0.00    -0.208 NA
ENDBRANCH  23  24
ENDBRANCH   1  23
TORSDOF 4
ENDMDL
MODEL 4
REMARK VINA RESULT:      -8.1      3.566      6.889
REMARK  4 active torsions:
REMARK  status: ('A' for Active; 'I' for Inactive)
REMARK    1  A    between atoms: C_5  and  C_6 
REMARK    2  A    between atoms: C_6  and  N_7 
REMARK    3  A    between atoms: N_13  and  C_15 
REMARK    4  A    between atoms: C_19  and  C_20 
ROOT
HETATM    1  N   UNL     1      40.274 -13.131   1.287  1.00  0.00    -0.064 N 
HETATM    2  H   UNL     1      39.833 -12.191   1.273  1.00  0.00     0.280 HD
HETATM    3  C   UNL     1      39.882 -13.734   2.601  1.00  0.00     0.236 C 
HETATM    4  C   UNL     1      40.627 -15.051   2.847  1.00  0.00     0.039 C 
HETATM    5  C   UNL     1      42.170 -14.998   2.639  1.00  0.00    -0.013 C 
HETATM    6  C   UNL     1      42.910 -14.316   3.825  1.00  0.00     0.245 C 
HETATM    7  N   UNL     1      42.897 -15.163   5.078  1.00  0.00    -0.065 N 
HETATM    8  H   UNL     1      41.934 -15.303   5.412  1.00  0.00     0.280 HD
HETATM    9  C   UNL     1      43.494 -16.553   4.865  1.00  0.00     0.244 C 
HETATM   10  C   UNL     1      42.713 -17.269   3.760  1.00  0.00     0.045 C 
HETATM   11  C   UNL     1      42.732 -16.439   2.467  1.00  0.00     0.022 C 
HETATM   12  C   UNL     1      42.478 -14.236   1.313  1.00  0.00     0.039 C 
HETATM   13  C   UNL     1      41.745 -12.910   1.154  1.00  0.00     0.236 C 
ENDROOT
BRANCH   7  14
HETATM   14  C   UNL     1      43.632 -14.473   6.198  1.00  0.00     0.188 A 
HETATM   15  C   UNL     1      42.860 -13.464   7.000  1.00  0.00     0.035 A 
HETATM   16  C   UNL     1      43.199 -14.800   7.598  1.00  0.00     0.035 A 
ENDBRANCH   7  14
BRANCH  10  17
HETATM   17  C   UNL     1      43.240 -18.670   3.529  1.00  0.00    -0.052 A 
HETATM   18  C   UNL     1      43.192 -19.224   2.239  1.00  0.00     0.007 A 
HETATM   19  C   UNL     1      43.679 -20.510   1.998  1.00  0.00     0.001 A 
HETATM   20  C   UNL     1      44.218 -21.260   3.039  1.00  0.00     0.000 A 
HETATM   21  C   UNL     1      44.272 -20.726   4.323  1.00  0.00     0.001 A 
HETATM   22  C   UNL     1      43.786 -19.440   4.570  1.00  0.00     0.007 A 
ENDBRANCH  10  17
BRANCH   1  23
HETATM   23  C   UNL     1      39.613 -13.792   0.054  1.00  0.00     0.323 C 
BRANCH  23  24
HETATM   24  C   UNL     1      39.971 -13.096  -1.204  1.00  0.00     0.198 A 
HETATM   25  O   UNL     1      40.479 -13.846  -2.214  1.00  0.00    -0.194 OA
HETATM   26  N   UNL     1      40.753 -12.959  -3.250  1.00  0.00    -0.112 NA
HETATM   27  C   UNL     1      40.389 -11.769  -2.755  1.00  0.00     0.152 A 
HETATM   28  C   UNL     1      40.554 -10.510  -3.511  1.00  0.00     0.096 C 
HETATM   29  N   UNL     1      39.870 -11.813  -1.478  1.00  0.00    -0.208 NA
ENDBRANCH  23  24
ENDBRANCH   1  23
TORSDOF 4
ENDMDL
MODEL 5
REMARK VINA RESULT:      -7.9      2.980      8.175
REMARK  4 active torsions:
REMARK  status: ('A' for Active; 'I' for Inactive)
REMARK    1  A    between atoms: C_5  and  C_6 
REMARK    2  A    between atoms: C_6  and  N_7 
REMARK    3  A    between atoms: N_13  and  C_15 
REMARK    4  A    between atoms: C_19  and  C_20 
ROOT
HETATM    1  N   UNL     1      42.233 -16.388   4.717  1.00  0.00    -0.064 N 
HETATM    2  H   UNL     1      41.624 -17.149   4.360  1.00  0.00     0.280 HD
HETATM    3  C   UNL     1      41.496 -15.803   5.882  1.00  0.00     0.236 C 
HETATM    4  C   UNL     1      42.188 -14.533   6.392  1.00  0.00     0.039 C 
HETATM    5  C   UNL     1      42.538 -13.477   5.302  1.00  0.00    -0.013 C 
HETATM    6  C   UNL     1      41.297 -12.660   4.841  1.00  0.00     0.245 C 
HETATM    7  N   UNL     1      40.805 -11.706   5.907  1.00  0.00    -0.065 N 
HETATM    8  H   UNL     1      40.489 -12.222   6.740  1.00  0.00     0.280 HD
HETATM    9  C   UNL     1      41.883 -10.732   6.380  1.00  0.00     0.244 C 
HETATM   10  C   UNL     1      43.074 -11.526   6.920  1.00  0.00     0.045 C 
HETATM   11  C   UNL     1      43.608 -12.488   5.846  1.00  0.00     0.022 C 
HETATM   12  C   UNL     1      43.178 -14.202   4.078  1.00  0.00     0.039 C 
HETATM   13  C   UNL     1      42.414 -15.426   3.590  1.00  0.00     0.236 C 
ENDROOT
BRANCH   7  14
HETATM   14  C   UNL     1      39.611 -10.927   5.420  1.00  0.00     0.188 A 
HETATM   15  C   UNL     1      38.426 -10.849   6.340  1.00  0.00     0.035 A 
HETATM   16  C   UNL     1      39.298  -9.644   6.135  1.00  0.00     0.035 A 
ENDBRANCH   7  14
BRANCH  10  17
HETATM   17  C   UNL     1      44.164 -10.610   7.437  1.00  0.00    -0.052 A 
HETATM   18  C   UNL     1      45.510 -10.967   7.263  1.00  0.00     0.007 A 
HETATM   19  C   UNL     1      46.533 -10.136   7.722  1.00  0.00     0.001 A 
HETATM   20  C   UNL     1      46.226  -8.938   8.361  1.00  0.00     0.000 A 
HETATM   21  C   UNL     1      44.896  -8.570   8.543  1.00  0.00     0.001 A 
HETATM   22  C   UNL     1      43.870  -9.398   8.085  1.00  0.00     0.007 A 
ENDBRANCH  10  17
BRANCH   1  23
HETATM   23  C   UNL     1      43.510 -17.176   5.094  1.00  0.00     0.323 C 
BRANCH  23  24
HETATM   24  C   UNL     1      43.635 -18.431   4.317  1.00  0.00     0.198 A 
HETATM   25  O   UNL     1      43.980 -19.556   4.992  1.00  0.00    -0.194 OA
HETATM   26  N   UNL     1      44.055 -20.567   4.040  1.00  0.00    -0.112 NA
HETATM   27  C   UNL     1      43.755 -19.946   2.891  1.00  0.00     0.152 A 
HETATM   28  C   UNL     1      43.762 -20.640   1.588  1.00  0.00     0.096 C 
HETATM   29  N   UNL     1      43.461 -18.605   3.025  1.00  0.00    -0.208 NA
ENDBRANCH  23  24
ENDBRANCH   1  23
TORSDOF 4
ENDMDL
MODEL 6
REMARK VINA RESULT:      -7.8     16.328     18.226
REMARK  4 active torsions:
REMARK  status: ('A' for Active; 'I' for Inactive)
REMARK    1  A    between atoms: C_5  and  C_6 
REMARK    2  A    between atoms: C_6  and  N_7 
REMARK    3  A    between atoms: N_13  and  C_15 
REMARK    4  A    between atoms: C_19  and  C_20 
ROOT
HETATM    1  N   UNL     1      41.531 -31.639   3.809  1.00  0.00    -0.064 N 
HETATM    2  H   UNL     1      41.363 -31.976   4.776  1.00  0.00     0.280 HD
HETATM    3  C   UNL     1      42.835 -32.251   3.396  1.00  0.00     0.236 C 
HETATM    4  C   UNL     1      43.312 -31.682   2.055  1.00  0.00     0.039 C 
HETATM    5  C   UNL     1      43.309 -30.128   1.947  1.00  0.00    -0.013 C 
HETATM    6  C   UNL     1      44.508 -29.475   2.692  1.00  0.00     0.245 C 
HETATM    7  N   UNL     1      45.828 -29.731   1.998  1.00  0.00    -0.065 N 
HETATM    8  H   UNL     1      46.042 -30.737   1.983  1.00  0.00     0.280 HD
HETATM    9  C   UNL     1      45.840 -29.259   0.545  1.00  0.00     0.244 C 
HETATM   10  C   UNL     1      44.718 -29.965  -0.220  1.00  0.00     0.045 C 
HETATM   11  C   UNL     1      43.362 -29.701   0.452  1.00  0.00     0.022 C 
HETATM   12  C   UNL     1      41.966 -29.581   2.523  1.00  0.00     0.039 C 
HETATM   13  C   UNL     1      41.576 -30.148   3.882  1.00  0.00     0.236 C 
ENDROOT
BRANCH   7  14
HETATM   14  C   UNL     1      46.961 -29.074   2.743  1.00  0.00     0.188 A 
HETATM   15  C   UNL     1      47.834 -29.966   3.578  1.00  0.00     0.035 A 
HETATM   16  C   UNL     1      48.354 -29.401   2.287  1.00  0.00     0.035 A 
ENDBRANCH   7  14
BRANCH  10  17
HETATM   17  C   UNL     1      44.703 -29.560  -1.680  1.00  0.00    -0.052 A 
HETATM   18  C   UNL     1      44.216 -30.459  -2.643  1.00  0.00     0.007 A 
HETATM   19  C   UNL     1      44.184 -30.107  -3.993  1.00  0.00     0.001 A 
HETATM   20  C   UNL     1      44.638 -28.856  -4.400  1.00  0.00     0.000 A 
HETATM   21  C   UNL     1      45.125 -27.954  -3.459  1.00  0.00     0.001 A 
HETATM   22  C   UNL     1      45.159 -28.302  -2.106  1.00  0.00     0.007 A 
ENDBRANCH  10  17
BRANCH   1  23
HETATM   23  C   UNL     1      40.294 -32.205   3.073  1.00  0.00     0.323 C 
BRANCH  23  24
HETATM   24  C   UNL     1      39.215 -32.583   4.016  1.00  0.00     0.198 A 
HETATM   25  O   UNL     1      39.292 -32.104   5.283  1.00  0.00    -0.194 OA
HETATM   26  N   UNL     1      38.191 -32.623   5.956  1.00  0.00    -0.112 NA
HETATM   27  C   UNL     1      37.571 -33.365   5.029  1.00  0.00     0.152 A 
HETATM   28  C   UNL     1      36.357 -34.153   5.324  1.00  0.00     0.096 C 
HETATM   29  N   UNL     1      38.170 -33.348   3.787  1.00  0.00    -0.208 NA
ENDBRANCH  23  24
ENDBRANCH   1  23
TORSDOF 4
ENDMDL
MODEL 7
REMARK VINA RESULT:      -7.8      2.606      5.224
REMARK  4 active torsions:
REMARK  status: ('A' for Active; 'I' for Inactive)
REMARK    1  A    between atoms: C_5  and  C_6 
REMARK    2  A    between atoms: C_6  and  N_7 
REMARK    3  A    between atoms: N_13  and  C_15 
REMARK    4  A    between atoms: C_19  and  C_20 
ROOT
HETATM    1  N   UNL     1      41.029 -11.964   6.229  1.00  0.00    -0.064 N 
HETATM    2  H   UNL     1      41.228 -11.997   7.247  1.00  0.00     0.280 HD
HETATM    3  C   UNL     1      40.476 -13.314   5.888  1.00  0.00     0.236 C 
HETATM    4  C   UNL     1      40.318 -13.478   4.372  1.00  0.00     0.039 C 
HETATM    5  C   UNL     1      41.568 -13.101   3.522  1.00  0.00    -0.013 C 
HETATM    6  C   UNL     1      42.672 -14.196   3.563  1.00  0.00     0.245 C 
HETATM    7  N   UNL     1      42.274 -15.445   2.807  1.00  0.00    -0.065 N 
HETATM    8  H   UNL     1      41.449 -15.884   3.237  1.00  0.00     0.280 HD
HETATM    9  C   UNL     1      41.912 -15.170   1.349  1.00  0.00     0.244 C 
HETATM   10  C   UNL     1      40.764 -14.159   1.299  1.00  0.00     0.045 C 
HETATM   11  C   UNL     1      41.152 -12.870   2.041  1.00  0.00     0.022 C 
HETATM   12  C   UNL     1      42.146 -11.748   4.042  1.00  0.00     0.039 C 
HETATM   13  C   UNL     1      42.326 -11.669   5.552  1.00  0.00     0.236 C 
ENDROOT
BRANCH   7  14
HETATM   14  C   UNL     1      43.372 -16.476   2.860  1.00  0.00     0.188 A 
HETATM   15  C   UNL     1      43.180 -17.625   3.808  1.00  0.00     0.035 A 
HETATM   16  C   UNL     1      43.048 -17.842   2.327  1.00  0.00     0.035 A 
ENDBRANCH   7  14
BRANCH  10  17
HETATM   17  C   UNL     1      40.338 -13.873  -0.126  1.00  0.00    -0.052 A 
HETATM   18  C   UNL     1      40.713 -12.662  -0.732  1.00  0.00     0.007 A 
HETATM   19  C   UNL     1      40.341 -12.378  -2.046  1.00  0.00     0.001 A 
HETATM   20  C   UNL     1      39.590 -13.297  -2.774  1.00  0.00     0.000 A 
HETATM   21  C   UNL     1      39.209 -14.501  -2.188  1.00  0.00     0.001 A 
HETATM   22  C   UNL     1      39.579 -14.789  -0.873  1.00  0.00     0.007 A 
ENDBRANCH  10  17
BRANCH   1  23
HETATM   23  C   UNL     1      39.997 -10.812   6.163  1.00  0.00     0.323 C 
BRANCH  23  24
HETATM   24  C   UNL     1      39.548 -10.394   7.511  1.00  0.00     0.198 A 
HETATM   25  O   UNL     1      38.648 -11.186   8.147  1.00  0.00    -0.194 OA
HETATM   26  N   UNL     1      38.378 -10.561   9.360  1.00  0.00    -0.112 NA
HETATM   27  C   UNL     1      39.136  -9.457   9.326  1.00  0.00     0.152 A 
HETATM   28  C   UNL     1      39.126  -8.454  10.410  1.00  0.00     0.096 C 
HETATM   29  N   UNL     1      39.906  -9.325   8.189  1.00  0.00    -0.208 NA
ENDBRANCH  23  24
ENDBRANCH   1  23
TORSDOF 4
ENDMDL
MODEL 8
REMARK VINA RESULT:      -7.6      8.206     14.083
REMARK  4 active torsions:
REMARK  status: ('A' for Active; 'I' for Inactive)
REMARK    1  A    between atoms: C_5  and  C_6 
REMARK    2  A    between atoms: C_6  and  N_7 
REMARK    3  A    between atoms: N_13  and  C_15 
REMARK    4  A    between atoms: C_19  and  C_20 
ROOT
HETATM    1  N   UNL     1      41.997  -8.296  11.992  1.00  0.00    -0.064 N 
HETATM    2  H   UNL     1      41.935  -8.141  10.967  1.00  0.00     0.280 HD
HETATM    3  C   UNL     1      40.582  -8.279  12.483  1.00  0.00     0.236 C 
HETATM    4  C   UNL     1      40.529  -8.301  14.015  1.00  0.00     0.039 C 
HETATM    5  C   UNL     1      41.434  -7.255  14.732  1.00  0.00    -0.013 C 
HETATM    6  C   UNL     1      40.833  -5.820  14.695  1.00  0.00     0.245 C 
HETATM    7  N   UNL     1      39.613  -5.682  15.578  1.00  0.00    -0.065 N 
HETATM    8  H   UNL     1      38.855  -6.295  15.250  1.00  0.00     0.280 HD
HETATM    9  C   UNL     1      39.883  -6.062  17.033  1.00  0.00     0.244 C 
HETATM   10  C   UNL     1      40.389  -7.505  17.089  1.00  0.00     0.045 C 
HETATM   11  C   UNL     1      41.644  -7.667  16.217  1.00  0.00     0.022 C 
HETATM   12  C   UNL     1      42.842  -7.257  14.062  1.00  0.00     0.039 C 
HETATM   13  C   UNL     1      42.826  -7.182  12.540  1.00  0.00     0.236 C 
ENDROOT
BRANCH   7  14
HETATM   14  C   UNL     1      39.069  -4.279  15.524  1.00  0.00     0.188 A 
HETATM   15  C   UNL     1      37.608  -4.126  15.207  1.00  0.00     0.035 A 
HETATM   16  C   UNL     1      38.103  -3.881  16.604  1.00  0.00     0.035 A 
ENDBRANCH   7  14
BRANCH  10  17
HETATM   17  C   UNL     1      40.641  -7.949  18.515  1.00  0.00    -0.052 A 
HETATM   18  C   UNL     1      39.566  -8.386  19.305  1.00  0.00     0.007 A 
HETATM   19  C   UNL     1      39.773  -8.808  20.619  1.00  0.00     0.001 A 
HETATM   20  C   UNL     1      41.055  -8.800  21.162  1.00  0.00     0.000 A 
HETATM   21  C   UNL     1      42.131  -8.368  20.393  1.00  0.00     0.001 A 
HETATM   22  C   UNL     1      41.929  -7.945  19.077  1.00  0.00     0.007 A 
ENDBRANCH  10  17
BRANCH   1  23
HETATM   23  C   UNL     1      42.679  -9.685  12.044  1.00  0.00     0.323 C 
BRANCH  23  24
HETATM   24  C   UNL     1      43.732  -9.822  11.012  1.00  0.00     0.198 A 
HETATM   25  O   UNL     1      44.500 -10.941  11.043  1.00  0.00    -0.194 OA
HETATM   26  N   UNL     1      45.413 -10.807  10.002  1.00  0.00    -0.112 NA
HETATM   27  C   UNL     1      45.106  -9.622   9.458  1.00  0.00     0.152 A 
HETATM   28  C   UNL     1      45.867  -9.045   8.331  1.00  0.00     0.096 C 
HETATM   29  N   UNL     1      44.039  -8.980  10.049  1.00  0.00    -0.208 NA
ENDBRANCH  23  24
ENDBRANCH   1  23
TORSDOF 4
ENDMDL
MODEL 9
REMARK VINA RESULT:      -7.5      3.863      7.989
REMARK  4 active torsions:
REMARK  status: ('A' for Active; 'I' for Inactive)
REMARK    1  A    between atoms: C_5  and  C_6 
REMARK    2  A    between atoms: C_6  and  N_7 
REMARK    3  A    between atoms: N_13  and  C_15 
REMARK    4  A    between atoms: C_19  and  C_20 
ROOT
HETATM    1  N   UNL     1      42.392 -16.282   3.386  1.00  0.00    -0.064 N 
HETATM    2  H   UNL     1      42.555 -16.793   4.275  1.00  0.00     0.280 HD
HETATM    3  C   UNL     1      42.898 -14.893   3.627  1.00  0.00     0.236 C 
HETATM    4  C   UNL     1      42.543 -13.966   2.459  1.00  0.00     0.039 C 
HETATM    5  C   UNL     1      41.053 -13.999   2.005  1.00  0.00    -0.013 C 
HETATM    6  C   UNL     1      40.118 -13.209   2.966  1.00  0.00     0.245 C 
HETATM    7  N   UNL     1      40.330 -11.714   2.877  1.00  0.00    -0.065 N 
HETATM    8  H   UNL     1      41.284 -11.464   3.171  1.00  0.00     0.280 HD
HETATM    9  C   UNL     1      40.151 -11.168   1.462  1.00  0.00     0.244 C 
HETATM   10  C   UNL     1      41.131 -11.876   0.524  1.00  0.00     0.045 C 
HETATM   11  C   UNL     1      40.920 -13.397   0.577  1.00  0.00     0.022 C 
HETATM   12  C   UNL     1      40.583 -15.484   1.913  1.00  0.00     0.039 C 
HETATM   13  C   UNL     1      40.923 -16.338   3.127  1.00  0.00     0.236 C 
ENDROOT
BRANCH   7  14
HETATM   14  C   UNL     1      39.400 -10.985   3.812  1.00  0.00     0.188 A 
HETATM   15  C   UNL     1      40.008 -10.392   5.052  1.00  0.00     0.035 A 
HETATM   16  C   UNL     1      39.577  -9.498   3.924  1.00  0.00     0.035 A 
ENDBRANCH   7  14
BRANCH  10  17
HETATM   17  C   UNL     1      41.022 -11.349  -0.892  1.00  0.00    -0.052 A 
HETATM   18  C   UNL     1      41.130  -9.969  -1.128  1.00  0.00     0.007 A 
HETATM   19  C   UNL     1      41.042  -9.459  -2.424  1.00  0.00     0.001 A 
HETATM   20  C   UNL     1      40.844 -10.318  -3.501  1.00  0.00     0.000 A 
HETATM   21  C   UNL     1      40.733 -11.689  -3.284  1.00  0.00     0.001 A 
HETATM   22  C   UNL     1      40.821 -12.203  -1.989  1.00  0.00     0.007 A 
ENDBRANCH  10  17
BRANCH   1  23
HETATM   23  C   UNL     1      43.246 -17.115   2.400  1.00  0.00     0.323 C 
BRANCH  23  24
HETATM   24  C   UNL     1      43.538 -18.468   2.929  1.00  0.00     0.198 A 
HETATM   25  O   UNL     1      43.366 -19.521   2.091  1.00  0.00    -0.194 OA
HETATM   26  N   UNL     1      43.676 -20.656   2.833  1.00  0.00    -0.112 NA
HETATM   27  C   UNL     1      43.994 -20.170   4.041  1.00  0.00     0.152 A 
HETATM   28  C   UNL     1      44.348 -21.042   5.179  1.00  0.00     0.096 C 
HETATM   29  N   UNL     1      43.943 -18.795   4.137  1.00  0.00    -0.208 NA
ENDBRANCH  23  24
ENDBRANCH   1  23
TORSDOF 4
ENDMDL
MODEL 10
REMARK VINA RESULT:      -7.5      4.344      7.533
REMARK  4 active torsions:
REMARK  status: ('A' for Active; 'I' for Inactive)
REMARK    1  A    between atoms: C_5  and  C_6 
REMARK    2  A    between atoms: C_6  and  N_7 
REMARK    3  A    between atoms: N_13  and  C_15 
REMARK    4  A    between atoms: C_19  and  C_20 
ROOT
HETATM    1  N   UNL     1      42.716 -16.331   2.667  1.00  0.00    -0.064 N 
HETATM    2  H   UNL     1      43.142 -17.254   2.456  1.00  0.00     0.280 HD
HETATM    3  C   UNL     1      41.264 -16.476   2.331  1.00  0.00     0.236 C 
HETATM    4  C   UNL     1      40.541 -15.127   2.407  1.00  0.00     0.039 C 
HETATM    5  C   UNL     1      41.227 -13.955   1.643  1.00  0.00    -0.013 C 
HETATM    6  C   UNL     1      41.001 -14.030   0.106  1.00  0.00     0.245 C 
HETATM    7  N   UNL     1      39.572 -13.726  -0.283  1.00  0.00    -0.065 N 
HETATM    8  H   UNL     1      38.929 -14.425   0.114  1.00  0.00     0.280 HD
HETATM    9  C   UNL     1      39.095 -12.362   0.214  1.00  0.00     0.244 C 
HETATM   10  C   UNL     1      39.228 -12.310   1.738  1.00  0.00     0.045 C 
HETATM   11  C   UNL     1      40.679 -12.593   2.159  1.00  0.00     0.022 C 
HETATM   12  C   UNL     1      42.755 -13.971   1.955  1.00  0.00     0.039 C 
HETATM   13  C   UNL     1      43.423 -15.332   1.811  1.00  0.00     0.236 C 
ENDROOT
BRANCH   7  14
HETATM   14  C   UNL     1      39.396 -13.798  -1.778  1.00  0.00     0.188 A 
HETATM   15  C   UNL     1      38.647 -14.983  -2.319  1.00  0.00     0.035 A 
HETATM   16  C   UNL     1      38.002 -13.626  -2.308  1.00  0.00     0.035 A 
ENDBRANCH   7  14
BRANCH  10  17
HETATM   17  C   UNL     1      38.736 -10.989   2.293  1.00  0.00    -0.052 A 
HETATM   18  C   UNL     1      38.041 -10.102   1.456  1.00  0.00     0.007 A 
HETATM   19  C   UNL     1      37.570  -8.883   1.944  1.00  0.00     0.001 A 
HETATM   20  C   UNL     1      37.787  -8.532   3.274  1.00  0.00     0.000 A 
HETATM   21  C   UNL     1      38.476  -9.400   4.116  1.00  0.00     0.001 A 
HETATM   22  C   UNL     1      38.949 -10.621   3.632  1.00  0.00     0.007 A 
ENDBRANCH  10  17
BRANCH   1  23
HETATM   23  C   UNL     1      43.016 -16.201   4.180  1.00  0.00     0.323 C 
BRANCH  23  24
HETATM   24  C   UNL     1      43.303 -17.515   4.801  1.00  0.00     0.198 A 
HETATM   25  O   UNL     1      43.012 -17.664   6.118  1.00  0.00    -0.194 OA
HETATM   26  N   UNL     1      43.399 -18.957   6.451  1.00  0.00    -0.112 NA
HETATM   27  C   UNL     1      43.888 -19.450   5.306  1.00  0.00     0.152 A 
HETATM   28  C   UNL     1      44.468 -20.805   5.207  1.00  0.00     0.096 C 
HETATM   29  N   UNL     1      43.825 -18.581   4.236  1.00  0.00    -0.208 NA
ENDBRANCH  23  24
ENDBRANCH   1  23
TORSDOF 4
ENDMDL
