MODEL 1
REMARK VINA RESULT:      -9.2      0.000      0.000
REMARK  8 active torsions:
REMARK  status: ('A' for Active; 'I' for Inactive)
REMARK    1  A    between atoms: C_2  and  S_3 
REMARK    2  A    between atoms: C_2  and  C_24 
REMARK    3  A    between atoms: S_3  and  C_4 
REMARK    4  A    between atoms: N_5  and  C_6 
REMARK    5  A    between atoms: C_13  and  C_14 
REMARK    6  A    between atoms: C_14  and  N_15 
REMARK       I    between atoms: C_24  and  N_25 
REMARK    7  A    between atoms: N_25  and  C_26 
REMARK    8  A    between atoms: C_29  and  C_30 
REMARK       I    between atoms: C_30  and  N_31 
ROOT
HETATM    1  C   UNL     1      42.713 -11.949   3.668  1.00  0.00     0.197 A 
HETATM    2  N   UNL     1      42.796 -12.519   4.929  1.00  0.00    -0.274 N 
HETATM    3  C   UNL     1      43.971 -11.982   5.452  1.00  0.00     0.161 A 
HETATM    4  N   UNL     1      44.558 -11.227   4.543  1.00  0.00    -0.132 NA
HETATM    5  N   UNL     1      43.766 -11.198   3.439  1.00  0.00    -0.122 NA
ENDROOT
BRANCH   1   6
HETATM    6  S   UNL     1      41.333 -12.040   2.625  1.00  0.00    -0.076 SA
BRANCH   6   7
HETATM    7  C   UNL     1      41.815 -13.393   1.486  1.00  0.00     0.143 C 
HETATM    8  C   UNL     1      40.909 -13.412   0.257  1.00  0.00     0.031 C 
BRANCH   7   9
HETATM    9  C   UNL     1      41.740 -14.756   2.196  1.00  0.00     0.236 C 
HETATM   10  N   UNL     1      42.950 -15.442   2.127  1.00  0.00    -0.326 N 
HETATM   11  H   UNL     1      43.721 -14.972   1.669  1.00  0.00     0.169 HD
HETATM   12  O   UNL     1      40.716 -15.174   2.727  1.00  0.00    -0.272 OA
BRANCH  10  13
HETATM   13  C   UNL     1      43.241 -16.731   2.619  1.00  0.00     0.034 A 
HETATM   14  C   UNL     1      43.933 -16.981   3.806  1.00  0.00     0.030 A 
HETATM   15  C   UNL     1      44.174 -18.296   4.229  1.00  0.00     0.019 A 
HETATM   16  C   UNL     1      43.731 -19.377   3.462  1.00  0.00     0.032 A 
HETATM   17  C   UNL     1      43.027 -19.129   2.279  1.00  0.00     0.019 A 
HETATM   18  C   UNL     1      42.787 -17.817   1.860  1.00  0.00     0.030 A 
BRANCH  16  19
HETATM   19  C   UNL     1      43.953 -20.792   3.862  1.00  0.00     0.249 C 
HETATM   20  N   UNL     1      43.939 -21.088   5.196  1.00  0.00    -0.366 N 
HETATM   21  H   UNL     1      43.975 -20.389   5.922  1.00  0.00     0.159 HD
HETATM   22  H   UNL     1      44.181 -22.038   5.447  1.00  0.00     0.159 HD
HETATM   23  O   UNL     1      44.176 -21.663   3.030  1.00  0.00    -0.268 OA
ENDBRANCH  16  19
ENDBRANCH  10  13
ENDBRANCH   7   9
ENDBRANCH   6   7
ENDBRANCH   1   6
BRANCH   2  24
HETATM   24  C   UNL     1      41.944 -13.478   5.543  1.00  0.00     0.043 A 
HETATM   25  C   UNL     1      40.614 -13.143   5.840  1.00  0.00     0.033 A 
HETATM   26  C   UNL     1      39.762 -14.092   6.411  1.00  0.00     0.044 A 
HETATM   27  C   UNL     1      40.239 -15.367   6.688  1.00  0.00     0.116 A 
HETATM   28  F   UNL     1      39.422 -16.275   7.232  1.00  0.00    -0.206 F 
HETATM   29  C   UNL     1      41.557 -15.709   6.409  1.00  0.00     0.044 A 
HETATM   30  C   UNL     1      42.416 -14.766   5.837  1.00  0.00     0.033 A 
ENDBRANCH   2  24
BRANCH   3  31
HETATM   31  C   UNL     1      44.606 -12.322   6.755  1.00  0.00     0.315 C 
BRANCH  31  32
HETATM   32  N   UNL     1      44.605 -11.130   7.710  1.00  0.00    -0.064 N 
HETATM   33  H   UNL     1      44.507 -11.553   8.647  1.00  0.00     0.280 HD
HETATM   34  C   UNL     1      45.927 -10.393   7.723  1.00  0.00     0.235 C 
HETATM   35  C   UNL     1      45.907  -9.353   8.835  1.00  0.00     0.028 C 
HETATM   36  C   UNL     1      44.736  -8.391   8.676  1.00  0.00     0.003 C 
HETATM   37  C   UNL     1      43.413  -9.142   8.573  1.00  0.00     0.028 C 
HETATM   38  C   UNL     1      43.442 -10.203   7.482  1.00  0.00     0.235 C 
ENDBRANCH  31  32
ENDBRANCH   3  31
TORSDOF 8
ENDMDL
MODEL 2
REMARK VINA RESULT:      -9.1      2.667      5.980
REMARK  8 active torsions:
REMARK  status: ('A' for Active; 'I' for Inactive)
REMARK    1  A    between atoms: C_2  and  S_3 
REMARK    2  A    between atoms: C_2  and  C_24 
REMARK    3  A    between atoms: S_3  and  C_4 
REMARK    4  A    between atoms: N_5  and  C_6 
REMARK    5  A    between atoms: C_13  and  C_14 
REMARK    6  A    between atoms: C_14  and  N_15 
REMARK       I    between atoms: C_24  and  N_25 
REMARK    7  A    between atoms: N_25  and  C_26 
REMARK    8  A    between atoms: C_29  and  C_30 
REMARK       I    between atoms: C_30  and  N_31 
ROOT
HETATM    1  C   UNL     1      42.049 -11.248   3.426  1.00  0.00     0.197 A 
HETATM    2  N   UNL     1      41.040 -11.639   2.558  1.00  0.00    -0.274 N 
HETATM    3  C   UNL     1      40.379 -10.446   2.271  1.00  0.00     0.161 A 
HETATM    4  N   UNL     1      40.909  -9.463   2.973  1.00  0.00    -0.132 NA
HETATM    5  N   UNL     1      41.957  -9.963   3.680  1.00  0.00    -0.122 NA
ENDROOT
BRANCH   1   6
HETATM    6  S   UNL     1      43.363 -12.254   3.939  1.00  0.00    -0.076 SA
BRANCH   6   7
HETATM    7  C   UNL     1      42.705 -12.961   5.498  1.00  0.00     0.143 C 
HETATM    8  C   UNL     1      43.611 -12.607   6.675  1.00  0.00     0.031 C 
BRANCH   7   9
HETATM    9  C   UNL     1      42.579 -14.491   5.392  1.00  0.00     0.236 C 
HETATM   10  N   UNL     1      43.285 -14.993   4.302  1.00  0.00    -0.326 N 
HETATM   11  H   UNL     1      43.810 -14.329   3.746  1.00  0.00     0.169 HD
HETATM   12  O   UNL     1      41.907 -15.158   6.172  1.00  0.00    -0.272 OA
BRANCH  10  13
HETATM   13  C   UNL     1      43.360 -16.331   3.865  1.00  0.00     0.034 A 
HETATM   14  C   UNL     1      42.862 -16.789   2.644  1.00  0.00     0.030 A 
HETATM   15  C   UNL     1      42.985 -18.138   2.282  1.00  0.00     0.019 A 
HETATM   16  C   UNL     1      43.603 -19.047   3.145  1.00  0.00     0.032 A 
HETATM   17  C   UNL     1      44.114 -18.589   4.364  1.00  0.00     0.019 A 
HETATM   18  C   UNL     1      43.990 -17.243   4.722  1.00  0.00     0.030 A 
BRANCH  16  19
HETATM   19  C   UNL     1      43.767 -20.488   2.813  1.00  0.00     0.249 C 
HETATM   20  N   UNL     1      44.034 -21.353   3.837  1.00  0.00    -0.366 N 
HETATM   21  H   UNL     1      44.309 -21.054   4.761  1.00  0.00     0.159 HD
HETATM   22  H   UNL     1      44.230 -22.311   3.575  1.00  0.00     0.159 HD
HETATM   23  O   UNL     1      43.700 -20.887   1.657  1.00  0.00    -0.268 OA
ENDBRANCH  16  19
ENDBRANCH  10  13
ENDBRANCH   7   9
ENDBRANCH   6   7
ENDBRANCH   1   6
BRANCH   2  24
HETATM   24  C   UNL     1      40.694 -12.942   2.106  1.00  0.00     0.043 A 
HETATM   25  C   UNL     1      39.886 -13.767   2.903  1.00  0.00     0.033 A 
HETATM   26  C   UNL     1      39.514 -15.035   2.448  1.00  0.00     0.044 A 
HETATM   27  C   UNL     1      39.952 -15.477   1.206  1.00  0.00     0.116 A 
HETATM   28  F   UNL     1      39.593 -16.689   0.771  1.00  0.00    -0.206 F 
HETATM   29  C   UNL     1      40.761 -14.675   0.411  1.00  0.00     0.044 A 
HETATM   30  C   UNL     1      41.138 -13.405   0.857  1.00  0.00     0.033 A 
ENDBRANCH   2  24
BRANCH   3  31
HETATM   31  C   UNL     1      39.144 -10.285   1.455  1.00  0.00     0.315 C 
BRANCH  31  32
HETATM   32  N   UNL     1      39.259 -11.006   0.113  1.00  0.00    -0.064 N 
HETATM   33  H   UNL     1      39.959 -11.747   0.280  1.00  0.00     0.280 HD
HETATM   34  C   UNL     1      37.982 -11.721  -0.276  1.00  0.00     0.235 C 
HETATM   35  C   UNL     1      38.242 -12.569  -1.512  1.00  0.00     0.028 C 
HETATM   36  C   UNL     1      38.778 -11.725  -2.663  1.00  0.00     0.003 C 
HETATM   37  C   UNL     1      40.014 -10.937  -2.241  1.00  0.00     0.028 C 
HETATM   38  C   UNL     1      39.765 -10.112  -0.987  1.00  0.00     0.235 C 
ENDBRANCH  31  32
ENDBRANCH   3  31
TORSDOF 8
ENDMDL
MODEL 3
REMARK VINA RESULT:      -8.7      3.438      6.723
REMARK  8 active torsions:
REMARK  status: ('A' for Active; 'I' for Inactive)
REMARK    1  A    between atoms: C_2  and  S_3 
REMARK    2  A    between atoms: C_2  and  C_24 
REMARK    3  A    between atoms: S_3  and  C_4 
REMARK    4  A    between atoms: N_5  and  C_6 
REMARK    5  A    between atoms: C_13  and  C_14 
REMARK    6  A    between atoms: C_14  and  N_15 
REMARK       I    between atoms: C_24  and  N_25 
REMARK    7  A    between atoms: N_25  and  C_26 
REMARK    8  A    between atoms: C_29  and  C_30 
REMARK       I    between atoms: C_30  and  N_31 
ROOT
HETATM    1  C   UNL     1      40.847 -12.041   5.940  1.00  0.00     0.197 A 
HETATM    2  N   UNL     1      42.101 -12.630   6.000  1.00  0.00    -0.274 N 
HETATM    3  C   UNL     1      41.851 -13.961   5.671  1.00  0.00     0.161 A 
HETATM    4  N   UNL     1      40.553 -14.143   5.511  1.00  0.00    -0.132 NA
HETATM    5  N   UNL     1      39.933 -12.944   5.666  1.00  0.00    -0.122 NA
ENDROOT
BRANCH   1   6
HETATM    6  S   UNL     1      40.545 -10.336   6.009  1.00  0.00    -0.076 SA
BRANCH   6   7
HETATM    7  C   UNL     1      41.189  -9.777   4.387  1.00  0.00     0.143 C 
HETATM    8  C   UNL     1      41.106  -8.256   4.269  1.00  0.00     0.031 C 
BRANCH   7   9
HETATM    9  C   UNL     1      40.399 -10.422   3.235  1.00  0.00     0.236 C 
HETATM   10  N   UNL     1      41.159 -11.369   2.554  1.00  0.00    -0.326 N 
HETATM   11  H   UNL     1      42.093 -11.548   2.902  1.00  0.00     0.169 HD
HETATM   12  O   UNL     1      39.249 -10.099   2.955  1.00  0.00    -0.272 OA
BRANCH  10  13
HETATM   13  C   UNL     1      40.786 -12.123   1.423  1.00  0.00     0.034 A 
HETATM   14  C   UNL     1      40.152 -13.366   1.480  1.00  0.00     0.030 A 
HETATM   15  C   UNL     1      39.808 -14.048   0.303  1.00  0.00     0.019 A 
HETATM   16  C   UNL     1      40.104 -13.495  -0.946  1.00  0.00     0.032 A 
HETATM   17  C   UNL     1      40.729 -12.244  -1.006  1.00  0.00     0.019 A 
HETATM   18  C   UNL     1      41.069 -11.567   0.169  1.00  0.00     0.030 A 
BRANCH  16  19
HETATM   19  C   UNL     1      39.759 -14.168  -2.226  1.00  0.00     0.249 C 
HETATM   20  N   UNL     1      38.730 -15.067  -2.217  1.00  0.00    -0.366 N 
HETATM   21  H   UNL     1      38.320 -15.437  -1.372  1.00  0.00     0.159 HD
HETATM   22  H   UNL     1      38.573 -15.578  -3.077  1.00  0.00     0.159 HD
HETATM   23  O   UNL     1      40.395 -13.954  -3.250  1.00  0.00    -0.268 OA
ENDBRANCH  16  19
ENDBRANCH  10  13
ENDBRANCH   7   9
ENDBRANCH   6   7
ENDBRANCH   1   6
BRANCH   2  24
HETATM   24  C   UNL     1      43.348 -12.058   6.373  1.00  0.00     0.043 A 
HETATM   25  C   UNL     1      43.617 -11.785   7.723  1.00  0.00     0.033 A 
HETATM   26  C   UNL     1      44.855 -11.255   8.098  1.00  0.00     0.044 A 
HETATM   27  C   UNL     1      45.815 -10.997   7.129  1.00  0.00     0.116 A 
HETATM   28  F   UNL     1      47.001 -10.494   7.490  1.00  0.00    -0.206 F 
HETATM   29  C   UNL     1      45.559 -11.253   5.788  1.00  0.00     0.044 A 
HETATM   30  C   UNL     1      44.324 -11.783   5.403  1.00  0.00     0.033 A 
ENDBRANCH   2  24
BRANCH   3  31
HETATM   31  C   UNL     1      42.833 -15.080   5.671  1.00  0.00     0.315 C 
BRANCH  31  32
HETATM   32  N   UNL     1      43.179 -15.525   4.251  1.00  0.00    -0.064 N 
HETATM   33  H   UNL     1      44.177 -15.784   4.301  1.00  0.00     0.280 HD
HETATM   34  C   UNL     1      42.443 -16.782   3.839  1.00  0.00     0.235 C 
HETATM   35  C   UNL     1      42.989 -17.263   2.502  1.00  0.00     0.028 C 
HETATM   36  C   UNL     1      42.881 -16.181   1.434  1.00  0.00     0.003 C 
HETATM   37  C   UNL     1      43.548 -14.887   1.890  1.00  0.00     0.028 C 
HETATM   38  C   UNL     1      43.024 -14.420   3.241  1.00  0.00     0.235 C 
ENDBRANCH  31  32
ENDBRANCH   3  31
TORSDOF 8
ENDMDL
MODEL 4
REMARK VINA RESULT:      -8.7      2.719      3.840
REMARK  8 active torsions:
REMARK  status: ('A' for Active; 'I' for Inactive)
REMARK    1  A    between atoms: C_2  and  S_3 
REMARK    2  A    between atoms: C_2  and  C_24 
REMARK    3  A    between atoms: S_3  and  C_4 
REMARK    4  A    between atoms: N_5  and  C_6 
REMARK    5  A    between atoms: C_13  and  C_14 
REMARK    6  A    between atoms: C_14  and  N_15 
REMARK       I    between atoms: C_24  and  N_25 
REMARK    7  A    between atoms: N_25  and  C_26 
REMARK    8  A    between atoms: C_29  and  C_30 
REMARK       I    between atoms: C_30  and  N_31 
ROOT
HETATM    1  C   UNL     1      43.094 -12.090   6.746  1.00  0.00     0.197 A 
HETATM    2  N   UNL     1      42.960 -10.740   7.036  1.00  0.00    -0.274 N 
HETATM    3  C   UNL     1      44.156 -10.426   7.680  1.00  0.00     0.161 A 
HETATM    4  N   UNL     1      44.885 -11.518   7.820  1.00  0.00    -0.132 NA
HETATM    5  N   UNL     1      44.227 -12.548   7.226  1.00  0.00    -0.122 NA
ENDROOT
BRANCH   1   6
HETATM    6  S   UNL     1      42.028 -12.997   5.724  1.00  0.00    -0.076 SA
BRANCH   6   7
HETATM    7  C   UNL     1      42.686 -12.608   4.058  1.00  0.00     0.143 C 
HETATM    8  C   UNL     1      41.674 -11.795   3.254  1.00  0.00     0.031 C 
BRANCH   7   9
HETATM    9  C   UNL     1      43.029 -13.897   3.293  1.00  0.00     0.236 C 
HETATM   10  N   UNL     1      42.739 -15.035   4.041  1.00  0.00    -0.326 N 
HETATM   11  H   UNL     1      42.318 -14.894   4.952  1.00  0.00     0.169 HD
HETATM   12  O   UNL     1      43.524 -13.893   2.171  1.00  0.00    -0.272 OA
BRANCH  10  13
HETATM   13  C   UNL     1      42.963 -16.381   3.688  1.00  0.00     0.034 A 
HETATM   14  C   UNL     1      42.466 -16.983   2.529  1.00  0.00     0.030 A 
HETATM   15  C   UNL     1      42.742 -18.329   2.248  1.00  0.00     0.019 A 
HETATM   16  C   UNL     1      43.514 -19.091   3.130  1.00  0.00     0.032 A 
HETATM   17  C   UNL     1      44.023 -18.487   4.285  1.00  0.00     0.019 A 
HETATM   18  C   UNL     1      43.746 -17.145   4.562  1.00  0.00     0.030 A 
BRANCH  16  19
HETATM   19  C   UNL     1      43.843 -20.519   2.882  1.00  0.00     0.249 C 
HETATM   20  N   UNL     1      44.050 -21.325   3.967  1.00  0.00    -0.366 N 
HETATM   21  H   UNL     1      44.179 -20.974   4.904  1.00  0.00     0.159 HD
HETATM   22  H   UNL     1      44.361 -22.268   3.772  1.00  0.00     0.159 HD
HETATM   23  O   UNL     1      43.959 -20.959   1.745  1.00  0.00    -0.268 OA
ENDBRANCH  16  19
ENDBRANCH  10  13
ENDBRANCH   7   9
ENDBRANCH   6   7
ENDBRANCH   1   6
BRANCH   2  24
HETATM   24  C   UNL     1      41.856  -9.874   6.809  1.00  0.00     0.043 A 
HETATM   25  C   UNL     1      41.784  -9.129   5.621  1.00  0.00     0.033 A 
HETATM   26  C   UNL     1      40.684  -8.303   5.377  1.00  0.00     0.044 A 
HETATM   27  C   UNL     1      39.664  -8.219   6.316  1.00  0.00     0.116 A 
HETATM   28  F   UNL     1      38.610  -7.430   6.080  1.00  0.00    -0.206 F 
HETATM   29  C   UNL     1      39.726  -8.943   7.501  1.00  0.00     0.044 A 
HETATM   30  C   UNL     1      40.823  -9.772   7.754  1.00  0.00     0.033 A 
ENDBRANCH   2  24
BRANCH   3  31
HETATM   31  C   UNL     1      44.521  -9.123   8.299  1.00  0.00     0.315 C 
BRANCH  31  32
HETATM   32  N   UNL     1      43.693  -8.844   9.552  1.00  0.00    -0.064 N 
HETATM   33  H   UNL     1      42.842  -9.416   9.428  1.00  0.00     0.280 HD
HETATM   34  C   UNL     1      44.356  -9.354  10.814  1.00  0.00     0.235 C 
HETATM   35  C   UNL     1      43.385  -9.217  11.978  1.00  0.00     0.028 C 
HETATM   36  C   UNL     1      42.913  -7.777  12.141  1.00  0.00     0.003 C 
HETATM   37  C   UNL     1      42.326  -7.237  10.842  1.00  0.00     0.028 C 
HETATM   38  C   UNL     1      43.284  -7.401   9.670  1.00  0.00     0.235 C 
ENDBRANCH  31  32
ENDBRANCH   3  31
TORSDOF 8
ENDMDL
MODEL 5
REMARK VINA RESULT:      -8.7      3.332      6.926
REMARK  8 active torsions:
REMARK  status: ('A' for Active; 'I' for Inactive)
REMARK    1  A    between atoms: C_2  and  S_3 
REMARK    2  A    between atoms: C_2  and  C_24 
REMARK    3  A    between atoms: S_3  and  C_4 
REMARK    4  A    between atoms: N_5  and  C_6 
REMARK    5  A    between atoms: C_13  and  C_14 
REMARK    6  A    between atoms: C_14  and  N_15 
REMARK       I    between atoms: C_24  and  N_25 
REMARK    7  A    between atoms: N_25  and  C_26 
REMARK    8  A    between atoms: C_29  and  C_30 
REMARK       I    between atoms: C_30  and  N_31 
ROOT
HETATM    1  C   UNL     1      40.984 -12.830   5.699  1.00  0.00     0.197 A 
HETATM    2  N   UNL     1      42.302 -13.223   5.876  1.00  0.00    -0.274 N 
HETATM    3  C   UNL     1      42.268 -14.594   5.627  1.00  0.00     0.161 A 
HETATM    4  N   UNL     1      41.024 -14.975   5.404  1.00  0.00    -0.132 NA
HETATM    5  N   UNL     1      40.230 -13.872   5.436  1.00  0.00    -0.122 NA
ENDROOT
BRANCH   1   6
HETATM    6  S   UNL     1      40.438 -11.187   5.629  1.00  0.00    -0.076 SA
BRANCH   6   7
HETATM    7  C   UNL     1      40.959 -10.692   3.942  1.00  0.00     0.143 C 
HETATM    8  C   UNL     1      40.968  -9.171   3.804  1.00  0.00     0.031 C 
BRANCH   7   9
HETATM    9  C   UNL     1      40.020 -11.295   2.883  1.00  0.00     0.236 C 
HETATM   10  N   UNL     1      40.725 -11.984   1.900  1.00  0.00    -0.326 N 
HETATM   11  H   UNL     1      41.731 -12.042   2.007  1.00  0.00     0.169 HD
HETATM   12  O   UNL     1      38.803 -11.145   2.911  1.00  0.00    -0.272 OA
BRANCH  10  13
HETATM   13  C   UNL     1      40.208 -12.622   0.754  1.00  0.00     0.034 A 
HETATM   14  C   UNL     1      39.578 -11.956  -0.300  1.00  0.00     0.030 A 
HETATM   15  C   UNL     1      39.097 -12.666  -1.409  1.00  0.00     0.019 A 
HETATM   16  C   UNL     1      39.236 -14.055  -1.473  1.00  0.00     0.032 A 
HETATM   17  C   UNL     1      39.878 -14.724  -0.425  1.00  0.00     0.019 A 
HETATM   18  C   UNL     1      40.357 -14.012   0.680  1.00  0.00     0.030 A 
BRANCH  16  19
HETATM   19  C   UNL     1      38.752 -14.860  -2.626  1.00  0.00     0.249 C 
HETATM   20  N   UNL     1      38.397 -16.159  -2.393  1.00  0.00    -0.366 N 
HETATM   21  H   UNL     1      38.619 -16.653  -1.542  1.00  0.00     0.159 HD
HETATM   22  H   UNL     1      38.157 -16.711  -3.207  1.00  0.00     0.159 HD
HETATM   23  O   UNL     1      38.702 -14.390  -3.755  1.00  0.00    -0.268 OA
ENDBRANCH  16  19
ENDBRANCH  10  13
ENDBRANCH   7   9
ENDBRANCH   6   7
ENDBRANCH   1   6
BRANCH   2  24
HETATM   24  C   UNL     1      43.426 -12.453   6.281  1.00  0.00     0.043 A 
HETATM   25  C   UNL     1      44.359 -12.021   5.325  1.00  0.00     0.033 A 
HETATM   26  C   UNL     1      45.447 -11.234   5.713  1.00  0.00     0.044 A 
HETATM   27  C   UNL     1      45.603 -10.885   7.047  1.00  0.00     0.116 A 
HETATM   28  F   UNL     1      46.643 -10.130   7.416  1.00  0.00    -0.206 F 
HETATM   29  C   UNL     1      44.693 -11.314   8.006  1.00  0.00     0.044 A 
HETATM   30  C   UNL     1      43.602 -12.101   7.628  1.00  0.00     0.033 A 
ENDBRANCH   2  24
BRANCH   3  31
HETATM   31  C   UNL     1      43.397 -15.555   5.766  1.00  0.00     0.315 C 
BRANCH  31  32
HETATM   32  N   UNL     1      43.266 -16.721   4.788  1.00  0.00    -0.064 N 
HETATM   33  H   UNL     1      42.311 -17.083   4.949  1.00  0.00     0.280 HD
HETATM   34  C   UNL     1      43.302 -16.276   3.342  1.00  0.00     0.235 C 
HETATM   35  C   UNL     1      42.969 -17.461   2.447  1.00  0.00     0.028 C 
HETATM   36  C   UNL     1      43.917 -18.629   2.693  1.00  0.00     0.003 C 
HETATM   37  C   UNL     1      43.944 -19.017   4.168  1.00  0.00     0.028 C 
HETATM   38  C   UNL     1      44.247 -17.827   5.067  1.00  0.00     0.235 C 
ENDBRANCH  31  32
ENDBRANCH   3  31
TORSDOF 8
ENDMDL
MODEL 6
REMARK VINA RESULT:      -8.6      3.448      6.758
REMARK  8 active torsions:
REMARK  status: ('A' for Active; 'I' for Inactive)
REMARK    1  A    between atoms: C_2  and  S_3 
REMARK    2  A    between atoms: C_2  and  C_24 
REMARK    3  A    between atoms: S_3  and  C_4 
REMARK    4  A    between atoms: N_5  and  C_6 
REMARK    5  A    between atoms: C_13  and  C_14 
REMARK    6  A    between atoms: C_14  and  N_15 
REMARK       I    between atoms: C_24  and  N_25 
REMARK    7  A    between atoms: N_25  and  C_26 
REMARK    8  A    between atoms: C_29  and  C_30 
REMARK       I    between atoms: C_30  and  N_31 
ROOT
HETATM    1  C   UNL     1      40.046 -12.908   4.058  1.00  0.00     0.197 A 
HETATM    2  N   UNL     1      39.717 -11.827   3.255  1.00  0.00    -0.274 N 
HETATM    3  C   UNL     1      39.447 -12.411   2.018  1.00  0.00     0.161 A 
HETATM    4  N   UNL     1      39.676 -13.710   2.081  1.00  0.00    -0.132 NA
HETATM    5  N   UNL     1      40.036 -14.017   3.355  1.00  0.00    -0.122 NA
ENDROOT
BRANCH   1   6
HETATM    6  S   UNL     1      40.240 -12.845   5.779  1.00  0.00    -0.076 SA
BRANCH   6   7
HETATM    7  C   UNL     1      41.980 -13.387   5.978  1.00  0.00     0.143 C 
HETATM    8  C   UNL     1      42.884 -12.679   4.971  1.00  0.00     0.031 C 
BRANCH   7   9
HETATM    9  C   UNL     1      42.101 -14.909   5.793  1.00  0.00     0.236 C 
HETATM   10  N   UNL     1      42.716 -15.235   4.587  1.00  0.00    -0.326 N 
HETATM   11  H   UNL     1      43.036 -14.467   4.009  1.00  0.00     0.169 HD
HETATM   12  O   UNL     1      41.673 -15.715   6.612  1.00  0.00    -0.272 OA
BRANCH  10  13
HETATM   13  C   UNL     1      42.954 -16.520   4.059  1.00  0.00     0.034 A 
HETATM   14  C   UNL     1      42.486 -16.960   2.819  1.00  0.00     0.030 A 
HETATM   15  C   UNL     1      42.774 -18.255   2.364  1.00  0.00     0.019 A 
HETATM   16  C   UNL     1      43.529 -19.128   3.151  1.00  0.00     0.032 A 
HETATM   17  C   UNL     1      44.010 -18.687   4.389  1.00  0.00     0.019 A 
HETATM   18  C   UNL     1      43.721 -17.395   4.839  1.00  0.00     0.030 A 
BRANCH  16  19
HETATM   19  C   UNL     1      43.870 -20.510   2.719  1.00  0.00     0.249 C 
HETATM   20  N   UNL     1      44.188 -21.421   3.686  1.00  0.00    -0.366 N 
HETATM   21  H   UNL     1      44.387 -21.171   4.643  1.00  0.00     0.159 HD
HETATM   22  H   UNL     1      44.504 -22.327   3.363  1.00  0.00     0.159 HD
HETATM   23  O   UNL     1      43.900 -20.818   1.534  1.00  0.00    -0.268 OA
ENDBRANCH  16  19
ENDBRANCH  10  13
ENDBRANCH   7   9
ENDBRANCH   6   7
ENDBRANCH   1   6
BRANCH   2  24
HETATM   24  C   UNL     1      39.714 -10.440   3.566  1.00  0.00     0.043 A 
HETATM   25  C   UNL     1      38.516  -9.808   3.934  1.00  0.00     0.033 A 
HETATM   26  C   UNL     1      38.514  -8.453   4.275  1.00  0.00     0.044 A 
HETATM   27  C   UNL     1      39.701  -7.733   4.245  1.00  0.00     0.116 A 
HETATM   28  F   UNL     1      39.698  -6.437   4.574  1.00  0.00    -0.206 F 
HETATM   29  C   UNL     1      40.893  -8.343   3.872  1.00  0.00     0.044 A 
HETATM   30  C   UNL     1      40.905  -9.699   3.530  1.00  0.00     0.033 A 
ENDBRANCH   2  24
BRANCH   3  31
HETATM   31  C   UNL     1      39.130 -11.704   0.747  1.00  0.00     0.315 C 
BRANCH  31  32
HETATM   32  N   UNL     1      38.949 -12.684  -0.411  1.00  0.00    -0.064 N 
HETATM   33  H   UNL     1      38.671 -13.568   0.044  1.00  0.00     0.280 HD
HETATM   34  C   UNL     1      37.799 -12.305  -1.320  1.00  0.00     0.235 C 
HETATM   35  C   UNL     1      37.564 -13.428  -2.321  1.00  0.00     0.028 C 
HETATM   36  C   UNL     1      38.826 -13.736  -3.119  1.00  0.00     0.003 C 
HETATM   37  C   UNL     1      40.004 -14.030  -2.197  1.00  0.00     0.028 C 
HETATM   38  C   UNL     1      40.222 -12.922  -1.176  1.00  0.00     0.235 C 
ENDBRANCH  31  32
ENDBRANCH   3  31
TORSDOF 8
ENDMDL
MODEL 7
REMARK VINA RESULT:      -8.5      4.132      9.197
REMARK  8 active torsions:
REMARK  status: ('A' for Active; 'I' for Inactive)
REMARK    1  A    between atoms: C_2  and  S_3 
REMARK    2  A    between atoms: C_2  and  C_24 
REMARK    3  A    between atoms: S_3  and  C_4 
REMARK    4  A    between atoms: N_5  and  C_6 
REMARK    5  A    between atoms: C_13  and  C_14 
REMARK    6  A    between atoms: C_14  and  N_15 
REMARK       I    between atoms: C_24  and  N_25 
REMARK    7  A    between atoms: N_25  and  C_26 
REMARK    8  A    between atoms: C_29  and  C_30 
REMARK       I    between atoms: C_30  and  N_31 
ROOT
HETATM    1  C   UNL     1      42.164 -12.418   6.040  1.00  0.00     0.197 A 
HETATM    2  N   UNL     1      41.616 -13.063   4.941  1.00  0.00    -0.274 N 
HETATM    3  C   UNL     1      40.564 -12.229   4.566  1.00  0.00     0.161 A 
HETATM    4  N   UNL     1      40.462 -11.229   5.421  1.00  0.00    -0.132 NA
HETATM    5  N   UNL     1      41.468 -11.343   6.329  1.00  0.00    -0.122 NA
ENDROOT
BRANCH   1   6
HETATM    6  S   UNL     1      43.663 -12.844   6.797  1.00  0.00    -0.076 SA
BRANCH   6   7
HETATM    7  C   UNL     1      44.481 -11.211   6.949  1.00  0.00     0.143 C 
HETATM    8  C   UNL     1      45.851 -11.229   6.274  1.00  0.00     0.031 C 
BRANCH   7   9
HETATM    9  C   UNL     1      44.647 -10.820   8.428  1.00  0.00     0.236 C 
HETATM   10  N   UNL     1      43.468 -10.308   8.962  1.00  0.00    -0.326 N 
HETATM   11  H   UNL     1      42.657 -10.285   8.354  1.00  0.00     0.169 HD
HETATM   12  O   UNL     1      45.709 -10.931   9.030  1.00  0.00    -0.272 OA
BRANCH  10  13
HETATM   13  C   UNL     1      43.255  -9.805  10.262  1.00  0.00     0.034 A 
HETATM   14  C   UNL     1      43.081 -10.604  11.395  1.00  0.00     0.030 A 
HETATM   15  C   UNL     1      42.882 -10.022  12.655  1.00  0.00     0.019 A 
HETATM   16  C   UNL     1      42.847  -8.632  12.794  1.00  0.00     0.032 A 
HETATM   17  C   UNL     1      43.034  -7.830  11.663  1.00  0.00     0.019 A 
HETATM   18  C   UNL     1      43.233  -8.413  10.408  1.00  0.00     0.030 A 
BRANCH  16  19
HETATM   19  C   UNL     1      42.646  -7.960  14.105  1.00  0.00     0.249 C 
HETATM   20  N   UNL     1      43.377  -6.835  14.365  1.00  0.00    -0.366 N 
HETATM   21  H   UNL     1      44.169  -6.545  13.812  1.00  0.00     0.159 HD
HETATM   22  H   UNL     1      43.289  -6.448  15.297  1.00  0.00     0.159 HD
HETATM   23  O   UNL     1      41.875  -8.413  14.942  1.00  0.00    -0.268 OA
ENDBRANCH  16  19
ENDBRANCH  10  13
ENDBRANCH   7   9
ENDBRANCH   6   7
ENDBRANCH   1   6
BRANCH   2  24
HETATM   24  C   UNL     1      41.973 -14.309   4.356  1.00  0.00     0.043 A 
HETATM   25  C   UNL     1      41.328 -15.485   4.769  1.00  0.00     0.033 A 
HETATM   26  C   UNL     1      41.651 -16.708   4.173  1.00  0.00     0.044 A 
HETATM   27  C   UNL     1      42.615 -16.753   3.174  1.00  0.00     0.116 A 
HETATM   28  F   UNL     1      42.920 -17.923   2.603  1.00  0.00    -0.206 F 
HETATM   29  C   UNL     1      43.269 -15.599   2.764  1.00  0.00     0.044 A 
HETATM   30  C   UNL     1      42.953 -14.371   3.354  1.00  0.00     0.033 A 
ENDBRANCH   2  24
BRANCH   3  31
HETATM   31  C   UNL     1      39.564 -12.482   3.492  1.00  0.00     0.315 C 
BRANCH  31  32
HETATM   32  N   UNL     1      40.220 -12.526   2.113  1.00  0.00    -0.064 N 
HETATM   33  H   UNL     1      41.232 -12.585   2.313  1.00  0.00     0.280 HD
HETATM   34  C   UNL     1      39.874 -13.783   1.343  1.00  0.00     0.235 C 
HETATM   35  C   UNL     1      40.718 -13.841   0.078  1.00  0.00     0.028 C 
HETATM   36  C   UNL     1      40.523 -12.594  -0.778  1.00  0.00     0.003 C 
HETATM   37  C   UNL     1      40.787 -11.325   0.026  1.00  0.00     0.028 C 
HETATM   38  C   UNL     1      39.966 -11.281   1.308  1.00  0.00     0.235 C 
ENDBRANCH  31  32
ENDBRANCH   3  31
TORSDOF 8
ENDMDL
MODEL 8
REMARK VINA RESULT:      -8.4      4.200      9.463
REMARK  8 active torsions:
REMARK  status: ('A' for Active; 'I' for Inactive)
REMARK    1  A    between atoms: C_2  and  S_3 
REMARK    2  A    between atoms: C_2  and  C_24 
REMARK    3  A    between atoms: S_3  and  C_4 
REMARK    4  A    between atoms: N_5  and  C_6 
REMARK    5  A    between atoms: C_13  and  C_14 
REMARK    6  A    between atoms: C_14  and  N_15 
REMARK       I    between atoms: C_24  and  N_25 
REMARK    7  A    between atoms: N_25  and  C_26 
REMARK    8  A    between atoms: C_29  and  C_30 
REMARK       I    between atoms: C_30  and  N_31 
ROOT
HETATM    1  C   UNL     1      43.010 -11.988   6.167  1.00  0.00     0.197 A 
HETATM    2  N   UNL     1      42.338 -13.113   5.713  1.00  0.00    -0.274 N 
HETATM    3  C   UNL     1      41.210 -12.586   5.086  1.00  0.00     0.161 A 
HETATM    4  N   UNL     1      41.191 -11.275   5.233  1.00  0.00    -0.132 NA
HETATM    5  N   UNL     1      42.319 -10.905   5.895  1.00  0.00    -0.122 NA
ENDROOT
BRANCH   1   6
HETATM    6  S   UNL     1      44.618 -11.985   6.813  1.00  0.00    -0.076 SA
BRANCH   6   7
HETATM    7  C   UNL     1      44.676 -10.361   7.661  1.00  0.00     0.143 C 
HETATM    8  C   UNL     1      46.120  -9.901   7.848  1.00  0.00     0.031 C 
BRANCH   7   9
HETATM    9  C   UNL     1      43.982 -10.437   9.032  1.00  0.00     0.236 C 
HETATM   10  N   UNL     1      43.461  -9.205   9.416  1.00  0.00    -0.326 N 
HETATM   11  H   UNL     1      43.558  -8.437   8.762  1.00  0.00     0.169 HD
HETATM   12  O   UNL     1      43.935 -11.466   9.697  1.00  0.00    -0.272 OA
BRANCH  10  13
HETATM   13  C   UNL     1      42.804  -8.883  10.622  1.00  0.00     0.034 A 
HETATM   14  C   UNL     1      41.422  -8.957  10.809  1.00  0.00     0.030 A 
HETATM   15  C   UNL     1      40.849  -8.626  12.045  1.00  0.00     0.019 A 
HETATM   16  C   UNL     1      41.655  -8.209  13.108  1.00  0.00     0.032 A 
HETATM   17  C   UNL     1      43.041  -8.145  12.927  1.00  0.00     0.019 A 
HETATM   18  C   UNL     1      43.609  -8.477  11.693  1.00  0.00     0.030 A 
BRANCH  16  19
HETATM   19  C   UNL     1      41.105  -7.850  14.442  1.00  0.00     0.249 C 
HETATM   20  N   UNL     1      41.544  -8.558  15.526  1.00  0.00    -0.366 N 
HETATM   21  H   UNL     1      42.066  -9.419  15.454  1.00  0.00     0.159 HD
HETATM   22  H   UNL     1      41.090  -8.357  16.407  1.00  0.00     0.159 HD
HETATM   23  O   UNL     1      40.261  -6.972  14.569  1.00  0.00    -0.268 OA
ENDBRANCH  16  19
ENDBRANCH  10  13
ENDBRANCH   7   9
ENDBRANCH   6   7
ENDBRANCH   1   6
BRANCH   2  24
HETATM   24  C   UNL     1      42.658 -14.487   5.889  1.00  0.00     0.043 A 
HETATM   25  C   UNL     1      42.359 -15.125   7.103  1.00  0.00     0.033 A 
HETATM   26  C   UNL     1      42.640 -16.484   7.268  1.00  0.00     0.044 A 
HETATM   27  C   UNL     1      43.220 -17.199   6.228  1.00  0.00     0.116 A 
HETATM   28  F   UNL     1      43.485 -18.500   6.387  1.00  0.00    -0.206 F 
HETATM   29  C   UNL     1      43.531 -16.578   5.025  1.00  0.00     0.044 A 
HETATM   30  C   UNL     1      43.254 -15.219   4.850  1.00  0.00     0.033 A 
ENDBRANCH   2  24
BRANCH   3  31
HETATM   31  C   UNL     1      40.078 -13.352   4.495  1.00  0.00     0.315 C 
BRANCH  31  32
HETATM   32  N   UNL     1      40.416 -13.863   3.095  1.00  0.00    -0.064 N 
HETATM   33  H   UNL     1      41.444 -13.784   3.036  1.00  0.00     0.280 HD
HETATM   34  C   UNL     1      40.103 -15.335   2.921  1.00  0.00     0.235 C 
HETATM   35  C   UNL     1      40.649 -15.805   1.581  1.00  0.00     0.028 C 
HETATM   36  C   UNL     1      40.088 -14.978   0.430  1.00  0.00     0.003 C 
HETATM   37  C   UNL     1      40.328 -13.488   0.652  1.00  0.00     0.028 C 
HETATM   38  C   UNL     1      39.810 -13.022   2.006  1.00  0.00     0.235 C 
ENDBRANCH  31  32
ENDBRANCH   3  31
TORSDOF 8
ENDMDL
MODEL 9
REMARK VINA RESULT:      -8.4      4.164      9.249
REMARK  8 active torsions:
REMARK  status: ('A' for Active; 'I' for Inactive)
REMARK    1  A    between atoms: C_2  and  S_3 
REMARK    2  A    between atoms: C_2  and  C_24 
REMARK    3  A    between atoms: S_3  and  C_4 
REMARK    4  A    between atoms: N_5  and  C_6 
REMARK    5  A    between atoms: C_13  and  C_14 
REMARK    6  A    between atoms: C_14  and  N_15 
REMARK       I    between atoms: C_24  and  N_25 
REMARK    7  A    between atoms: N_25  and  C_26 
REMARK    8  A    between atoms: C_29  and  C_30 
REMARK       I    between atoms: C_30  and  N_31 
ROOT
HETATM    1  C   UNL     1      43.218 -12.530   5.861  1.00  0.00     0.197 A 
HETATM    2  N   UNL     1      42.397 -13.463   5.246  1.00  0.00    -0.274 N 
HETATM    3  C   UNL     1      42.620 -14.626   5.981  1.00  0.00     0.161 A 
HETATM    4  N   UNL     1      43.548 -14.405   6.893  1.00  0.00    -0.132 NA
HETATM    5  N   UNL     1      43.909 -13.096   6.824  1.00  0.00    -0.122 NA
ENDROOT
BRANCH   1   6
HETATM    6  S   UNL     1      43.193 -10.826   5.550  1.00  0.00    -0.076 SA
BRANCH   6   7
HETATM    7  C   UNL     1      41.750 -10.287   6.544  1.00  0.00     0.143 C 
HETATM    8  C   UNL     1      40.749  -9.528   5.674  1.00  0.00     0.031 C 
BRANCH   7   9
HETATM    9  C   UNL     1      42.196  -9.388   7.710  1.00  0.00     0.236 C 
HETATM   10  N   UNL     1      41.980  -9.997   8.943  1.00  0.00    -0.326 N 
HETATM   11  H   UNL     1      41.604 -10.937   8.935  1.00  0.00     0.169 HD
HETATM   12  O   UNL     1      42.657  -8.264   7.544  1.00  0.00    -0.272 OA
BRANCH  10  13
HETATM   13  C   UNL     1      42.220  -9.460  10.225  1.00  0.00     0.034 A 
HETATM   14  C   UNL     1      43.490  -9.181  10.736  1.00  0.00     0.030 A 
HETATM   15  C   UNL     1      43.640  -8.640  12.020  1.00  0.00     0.019 A 
HETATM   16  C   UNL     1      42.519  -8.379  12.813  1.00  0.00     0.032 A 
HETATM   17  C   UNL     1      41.245  -8.646  12.299  1.00  0.00     0.019 A 
HETATM   18  C   UNL     1      41.099  -9.185  11.017  1.00  0.00     0.030 A 
BRANCH  16  19
HETATM   19  C   UNL     1      42.617  -7.801  14.179  1.00  0.00     0.249 C 
HETATM   20  N   UNL     1      43.417  -6.707  14.354  1.00  0.00    -0.366 N 
HETATM   21  H   UNL     1      44.082  -6.388  13.666  1.00  0.00     0.159 HD
HETATM   22  H   UNL     1      43.538  -6.388  15.307  1.00  0.00     0.159 HD
HETATM   23  O   UNL     1      42.028  -8.304  15.128  1.00  0.00    -0.268 OA
ENDBRANCH  16  19
ENDBRANCH  10  13
ENDBRANCH   7   9
ENDBRANCH   6   7
ENDBRANCH   1   6
BRANCH   2  24
HETATM   24  C   UNL     1      41.570 -13.319   4.098  1.00  0.00     0.043 A 
HETATM   25  C   UNL     1      40.196 -13.078   4.253  1.00  0.00     0.033 A 
HETATM   26  C   UNL     1      39.385 -12.901   3.129  1.00  0.00     0.044 A 
HETATM   27  C   UNL     1      39.943 -12.968   1.859  1.00  0.00     0.116 A 
HETATM   28  F   UNL     1      39.166 -12.795   0.784  1.00  0.00    -0.206 F 
HETATM   29  C   UNL     1      41.300 -13.216   1.691  1.00  0.00     0.044 A 
HETATM   30  C   UNL     1      42.120 -13.394   2.809  1.00  0.00     0.033 A 
ENDBRANCH   2  24
BRANCH   3  31
HETATM   31  C   UNL     1      42.064 -15.979   5.701  1.00  0.00     0.315 C 
BRANCH  31  32
HETATM   32  N   UNL     1      42.912 -16.735   4.680  1.00  0.00    -0.064 N 
HETATM   33  H   UNL     1      43.702 -16.099   4.483  1.00  0.00     0.280 HD
HETATM   34  C   UNL     1      43.525 -17.996   5.250  1.00  0.00     0.235 C 
HETATM   35  C   UNL     1      44.504 -18.576   4.239  1.00  0.00     0.028 C 
HETATM   36  C   UNL     1      43.827 -18.844   2.900  1.00  0.00     0.003 C 
HETATM   37  C   UNL     1      43.134 -17.592   2.370  1.00  0.00     0.028 C 
HETATM   38  C   UNL     1      42.178 -16.993   3.392  1.00  0.00     0.235 C 
ENDBRANCH  31  32
ENDBRANCH   3  31
TORSDOF 8
ENDMDL
MODEL 10
REMARK VINA RESULT:      -8.3      4.695      8.208
REMARK  8 active torsions:
REMARK  status: ('A' for Active; 'I' for Inactive)
REMARK    1  A    between atoms: C_2  and  S_3 
REMARK    2  A    between atoms: C_2  and  C_24 
REMARK    3  A    between atoms: S_3  and  C_4 
REMARK    4  A    between atoms: N_5  and  C_6 
REMARK    5  A    between atoms: C_13  and  C_14 
REMARK    6  A    between atoms: C_14  and  N_15 
REMARK       I    between atoms: C_24  and  N_25 
REMARK    7  A    between atoms: N_25  and  C_26 
REMARK    8  A    between atoms: C_29  and  C_30 
REMARK       I    between atoms: C_30  and  N_31 
ROOT
HETATM    1  C   UNL     1      39.778 -13.619   0.637  1.00  0.00     0.197 A 
HETATM    2  N   UNL     1      40.383 -14.010   1.822  1.00  0.00    -0.274 N 
HETATM    3  C   UNL     1      39.865 -13.120   2.760  1.00  0.00     0.161 A 
HETATM    4  N   UNL     1      39.088 -12.240   2.157  1.00  0.00    -0.132 NA
HETATM    5  N   UNL     1      39.026 -12.562   0.838  1.00  0.00    -0.122 NA
ENDROOT
BRANCH   1   6
HETATM    6  S   UNL     1      39.835 -14.508  -0.849  1.00  0.00    -0.076 SA
BRANCH   6   7
HETATM    7  C   UNL     1      39.067 -13.326  -2.021  1.00  0.00     0.143 C 
HETATM    8  C   UNL     1      38.404 -14.069  -3.180  1.00  0.00     0.031 C 
BRANCH   7   9
HETATM    9  C   UNL     1      40.117 -12.348  -2.576  1.00  0.00     0.236 C 
HETATM   10  N   UNL     1      40.018 -11.092  -1.983  1.00  0.00    -0.326 N 
HETATM   11  H   UNL     1      39.320 -10.978  -1.258  1.00  0.00     0.169 HD
HETATM   12  O   UNL     1      40.915 -12.657  -3.455  1.00  0.00    -0.272 OA
BRANCH  10  13
HETATM   13  C   UNL     1      40.776  -9.940  -2.271  1.00  0.00     0.034 A 
HETATM   14  C   UNL     1      41.786  -9.436  -1.448  1.00  0.00     0.030 A 
HETATM   15  C   UNL     1      42.498  -8.285  -1.812  1.00  0.00     0.019 A 
HETATM   16  C   UNL     1      42.202  -7.620  -3.005  1.00  0.00     0.032 A 
HETATM   17  C   UNL     1      41.200  -8.128  -3.838  1.00  0.00     0.019 A 
HETATM   18  C   UNL     1      40.492  -9.277  -3.471  1.00  0.00     0.030 A 
BRANCH  16  19
HETATM   19  C   UNL     1      42.928  -6.399  -3.446  1.00  0.00     0.249 C 
HETATM   20  N   UNL     1      43.417  -6.373  -4.722  1.00  0.00    -0.366 N 
HETATM   21  H   UNL     1      43.481  -7.190  -5.311  1.00  0.00     0.159 HD
HETATM   22  H   UNL     1      43.983  -5.571  -4.969  1.00  0.00     0.159 HD
HETATM   23  O   UNL     1      43.114  -5.458  -2.685  1.00  0.00    -0.268 OA
ENDBRANCH  16  19
ENDBRANCH  10  13
ENDBRANCH   7   9
ENDBRANCH   6   7
ENDBRANCH   1   6
BRANCH   2  24
HETATM   24  C   UNL     1      41.354 -15.024   2.046  1.00  0.00     0.043 A 
HETATM   25  C   UNL     1      40.993 -16.202   2.719  1.00  0.00     0.033 A 
HETATM   26  C   UNL     1      41.934 -17.216   2.912  1.00  0.00     0.044 A 
HETATM   27  C   UNL     1      43.229 -17.053   2.438  1.00  0.00     0.116 A 
HETATM   28  F   UNL     1      44.129 -18.026   2.620  1.00  0.00    -0.206 F 
HETATM   29  C   UNL     1      43.604 -15.888   1.779  1.00  0.00     0.044 A 
HETATM   30  C   UNL     1      42.669 -14.868   1.581  1.00  0.00     0.033 A 
ENDBRANCH   2  24
BRANCH   3  31
HETATM   31  C   UNL     1      40.243 -13.017   4.197  1.00  0.00     0.315 C 
BRANCH  31  32
HETATM   32  N   UNL     1      41.745 -12.797   4.368  1.00  0.00    -0.064 N 
HETATM   33  H   UNL     1      42.176 -13.625   3.926  1.00  0.00     0.280 HD
HETATM   34  C   UNL     1      42.251 -11.600   3.590  1.00  0.00     0.235 C 
HETATM   35  C   UNL     1      43.772 -11.571   3.654  1.00  0.00     0.028 C 
HETATM   36  C   UNL     1      44.268 -11.548   5.095  1.00  0.00     0.003 C 
HETATM   37  C   UNL     1      43.685 -12.706   5.899  1.00  0.00     0.028 C 
HETATM   38  C   UNL     1      42.166 -12.754   5.812  1.00  0.00     0.235 C 
ENDBRANCH  31  32
ENDBRANCH   3  31
TORSDOF 8
ENDMDL
