MODEL 1
REMARK VINA RESULT:      -9.1      0.000      0.000
REMARK  6 active torsions:
REMARK  status: ('A' for Active; 'I' for Inactive)
REMARK    1  A    between atoms: C_5  and  C_6 
REMARK    2  A    between atoms: C_12  and  C_13 
REMARK       I    between atoms: C_13  and  N_14 
REMARK    3  A    between atoms: N_14  and  C_15 
REMARK    4  A    between atoms: C_18  and  C_19 
REMARK    5  A    between atoms: C_19  and  O_20 
REMARK    6  A    between atoms: C_25  and  C_26 
ROOT
HETATM    1  C   UNL     1      41.016 -15.330   2.432  1.00  0.00     0.118 C 
HETATM    2  N   UNL     1      41.534 -13.993   2.773  1.00  0.00    -0.365 N 
HETATM    3  C   UNL     1      40.833 -12.914   2.317  1.00  0.00     0.138 A 
HETATM    4  N   UNL     1      39.914 -13.049   1.298  1.00  0.00    -0.240 N 
HETATM    5  N   UNL     1      39.254 -11.920   1.015  1.00  0.00    -0.181 NA
HETATM    6  C   UNL     1      39.842 -11.014   1.799  1.00  0.00     0.160 A 
HETATM    7  C   UNL     1      40.838 -11.569   2.642  1.00  0.00     0.096 A 
HETATM    8  C   UNL     1      39.610 -14.295   0.618  1.00  0.00     0.221 C 
HETATM    9  C   UNL     1      40.681 -15.356   0.937  1.00  0.00     0.066 C 
HETATM   10  H   UNL     1      42.555 -13.949   2.701  1.00  0.00     0.161 HD
ENDROOT
BRANCH   7  11
HETATM   11  C   UNL     1      41.613 -10.831   3.628  1.00  0.00     0.261 C 
HETATM   12  N   UNL     1      42.225 -11.627   4.578  1.00  0.00    -0.323 N 
HETATM   13  H   UNL     1      42.026 -12.619   4.505  1.00  0.00     0.169 HD
HETATM   14  O   UNL     1      41.673  -9.608   3.567  1.00  0.00    -0.267 OA
BRANCH  12  15
HETATM   15  C   UNL     1      43.063 -11.217   5.635  1.00  0.00     0.035 A 
HETATM   16  C   UNL     1      42.610 -10.558   6.777  1.00  0.00     0.030 A 
HETATM   17  C   UNL     1      43.507 -10.172   7.780  1.00  0.00     0.012 A 
HETATM   18  C   UNL     1      44.883 -10.421   7.664  1.00  0.00    -0.030 A 
HETATM   19  C   UNL     1      45.329 -11.100   6.523  1.00  0.00     0.012 A 
HETATM   20  C   UNL     1      44.429 -11.493   5.521  1.00  0.00     0.030 A 
BRANCH  18  21
HETATM   21  C   UNL     1      45.796  -9.970   8.782  1.00  0.00     0.147 C 
HETATM   22  C   UNL     1      45.126  -9.655  10.115  1.00  0.00     0.044 C 
BRANCH  21  23
HETATM   23  O   UNL     1      46.491  -8.809   8.334  1.00  0.00    -0.391 OA
HETATM   24  H   UNL     1      46.251  -8.082   8.930  1.00  0.00     0.210 HD
ENDBRANCH  21  23
ENDBRANCH  18  21
ENDBRANCH  12  15
ENDBRANCH   7  11
BRANCH   1  25
HETATM   25  C   UNL     1      41.986 -16.391   2.922  1.00  0.00    -0.035 A 
HETATM   26  C   UNL     1      42.379 -16.369   4.272  1.00  0.00     0.010 A 
HETATM   27  C   UNL     1      43.223 -17.352   4.795  1.00  0.00     0.007 A 
HETATM   28  C   UNL     1      43.708 -18.376   3.978  1.00  0.00    -0.062 A 
HETATM   29  C   UNL     1      44.560 -19.472   4.546  1.00  0.00     0.048 C 
HETATM   30  C   UNL     1      43.328 -18.404   2.633  1.00  0.00     0.007 A 
HETATM   31  C   UNL     1      42.485 -17.417   2.108  1.00  0.00     0.010 A 
ENDBRANCH   1  25
BRANCH   8  32
HETATM   32  C   UNL     1      39.517 -14.115  -0.884  1.00  0.00     0.409 C 
HETATM   33  F   UNL     1      38.459 -13.381  -1.280  1.00  0.00    -0.169 F 
HETATM   34  F   UNL     1      40.639 -13.571  -1.406  1.00  0.00    -0.169 F 
HETATM   35  F   UNL     1      39.372 -15.334  -1.475  1.00  0.00    -0.169 F 
ENDBRANCH   8  32
TORSDOF 6
ENDMDL
MODEL 2
REMARK VINA RESULT:      -9.0      4.009      7.897
REMARK  6 active torsions:
REMARK  status: ('A' for Active; 'I' for Inactive)
REMARK    1  A    between atoms: C_5  and  C_6 
REMARK    2  A    between atoms: C_12  and  C_13 
REMARK       I    between atoms: C_13  and  N_14 
REMARK    3  A    between atoms: N_14  and  C_15 
REMARK    4  A    between atoms: C_18  and  C_19 
REMARK    5  A    between atoms: C_19  and  O_20 
REMARK    6  A    between atoms: C_25  and  C_26 
ROOT
HETATM    1  C   UNL     1      43.611 -13.881   5.635  1.00  0.00     0.118 C 
HETATM    2  N   UNL     1      42.485 -13.442   4.792  1.00  0.00    -0.365 N 
HETATM    3  C   UNL     1      42.355 -12.102   4.567  1.00  0.00     0.138 A 
HETATM    4  N   UNL     1      43.005 -11.186   5.366  1.00  0.00    -0.240 N 
HETATM    5  N   UNL     1      42.843  -9.917   4.973  1.00  0.00    -0.181 NA
HETATM    6  C   UNL     1      41.978 -10.016   3.960  1.00  0.00     0.160 A 
HETATM    7  C   UNL     1      41.633 -11.356   3.651  1.00  0.00     0.096 A 
HETATM    8  C   UNL     1      43.852 -11.527   6.495  1.00  0.00     0.221 C 
HETATM    9  C   UNL     1      43.652 -13.003   6.890  1.00  0.00     0.066 C 
HETATM   10  H   UNL     1      41.627 -13.964   4.998  1.00  0.00     0.161 HD
ENDROOT
BRANCH   7  11
HETATM   11  C   UNL     1      40.749 -11.770   2.572  1.00  0.00     0.261 C 
HETATM   12  N   UNL     1      41.338 -12.614   1.650  1.00  0.00    -0.323 N 
HETATM   13  H   UNL     1      42.321 -12.808   1.806  1.00  0.00     0.169 HD
HETATM   14  O   UNL     1      39.593 -11.365   2.541  1.00  0.00    -0.267 OA
BRANCH  12  15
HETATM   15  C   UNL     1      40.738 -13.209   0.521  1.00  0.00     0.035 A 
HETATM   16  C   UNL     1      40.643 -12.593  -0.725  1.00  0.00     0.030 A 
HETATM   17  C   UNL     1      40.022 -13.245  -1.797  1.00  0.00     0.012 A 
HETATM   18  C   UNL     1      39.467 -14.525  -1.650  1.00  0.00    -0.030 A 
HETATM   19  C   UNL     1      39.582 -15.146  -0.400  1.00  0.00     0.012 A 
HETATM   20  C   UNL     1      40.211 -14.496   0.672  1.00  0.00     0.030 A 
BRANCH  18  21
HETATM   21  C   UNL     1      38.804 -15.168  -2.849  1.00  0.00     0.147 C 
HETATM   22  C   UNL     1      37.751 -14.332  -3.567  1.00  0.00     0.044 C 
BRANCH  21  23
HETATM   23  O   UNL     1      38.203 -16.384  -2.412  1.00  0.00    -0.391 OA
HETATM   24  H   UNL     1      37.309 -16.415  -2.789  1.00  0.00     0.210 HD
ENDBRANCH  21  23
ENDBRANCH  18  21
ENDBRANCH  12  15
ENDBRANCH   7  11
BRANCH   1  25
HETATM   25  C   UNL     1      43.520 -15.379   5.867  1.00  0.00    -0.035 A 
HETATM   26  C   UNL     1      43.470 -16.229   4.747  1.00  0.00     0.010 A 
HETATM   27  C   UNL     1      43.443 -17.619   4.895  1.00  0.00     0.007 A 
HETATM   28  C   UNL     1      43.452 -18.194   6.168  1.00  0.00    -0.062 A 
HETATM   29  C   UNL     1      43.490 -19.684   6.335  1.00  0.00     0.048 C 
HETATM   30  C   UNL     1      43.495 -17.358   7.287  1.00  0.00     0.007 A 
HETATM   31  C   UNL     1      43.518 -15.966   7.139  1.00  0.00     0.010 A 
ENDBRANCH   1  25
BRANCH   8  32
HETATM   32  C   UNL     1      43.579 -10.646   7.697  1.00  0.00     0.409 C 
HETATM   33  F   UNL     1      44.308  -9.513   7.719  1.00  0.00    -0.169 F 
HETATM   34  F   UNL     1      42.272 -10.319   7.808  1.00  0.00    -0.169 F 
HETATM   35  F   UNL     1      43.903 -11.323   8.833  1.00  0.00    -0.169 F 
ENDBRANCH   8  32
TORSDOF 6
ENDMDL
MODEL 3
REMARK VINA RESULT:      -8.9      1.575      1.703
REMARK  6 active torsions:
REMARK  status: ('A' for Active; 'I' for Inactive)
REMARK    1  A    between atoms: C_5  and  C_6 
REMARK    2  A    between atoms: C_12  and  C_13 
REMARK       I    between atoms: C_13  and  N_14 
REMARK    3  A    between atoms: N_14  and  C_15 
REMARK    4  A    between atoms: C_18  and  C_19 
REMARK    5  A    between atoms: C_19  and  O_20 
REMARK    6  A    between atoms: C_25  and  C_26 
ROOT
HETATM    1  C   UNL     1      40.949 -15.733   2.724  1.00  0.00     0.118 C 
HETATM    2  N   UNL     1      41.066 -14.556   3.604  1.00  0.00    -0.365 N 
HETATM    3  C   UNL     1      40.258 -13.488   3.334  1.00  0.00     0.138 A 
HETATM    4  N   UNL     1      39.639 -13.364   2.109  1.00  0.00    -0.240 N 
HETATM    5  N   UNL     1      38.820 -12.309   2.024  1.00  0.00    -0.181 NA
HETATM    6  C   UNL     1      39.004 -11.681   3.188  1.00  0.00     0.160 A 
HETATM    7  C   UNL     1      39.890 -12.367   4.057  1.00  0.00     0.096 A 
HETATM    8  C   UNL     1      39.779 -14.305   1.012  1.00  0.00     0.221 C 
HETATM    9  C   UNL     1      40.964 -15.256   1.268  1.00  0.00     0.066 C 
HETATM   10  H   UNL     1      42.041 -14.352   3.842  1.00  0.00     0.161 HD
ENDROOT
BRANCH   7  11
HETATM   11  C   UNL     1      40.244 -11.944   5.403  1.00  0.00     0.261 C 
HETATM   12  N   UNL     1      41.442 -11.259   5.485  1.00  0.00    -0.323 N 
HETATM   13  H   UNL     1      41.952 -11.173   4.612  1.00  0.00     0.169 HD
HETATM   14  O   UNL     1      39.501 -12.208   6.342  1.00  0.00    -0.267 OA
BRANCH  12  15
HETATM   15  C   UNL     1      42.035 -10.696   6.632  1.00  0.00     0.035 A 
HETATM   16  C   UNL     1      41.466  -9.664   7.376  1.00  0.00     0.030 A 
HETATM   17  C   UNL     1      42.123  -9.148   8.499  1.00  0.00     0.012 A 
HETATM   18  C   UNL     1      43.374  -9.639   8.903  1.00  0.00    -0.030 A 
HETATM   19  C   UNL     1      43.932 -10.689   8.162  1.00  0.00     0.012 A 
HETATM   20  C   UNL     1      43.270 -11.210   7.041  1.00  0.00     0.030 A 
BRANCH  18  21
HETATM   21  C   UNL     1      44.031  -9.031  10.122  1.00  0.00     0.147 C 
HETATM   22  C   UNL     1      45.398  -9.589  10.502  1.00  0.00     0.044 C 
BRANCH  21  23
HETATM   23  O   UNL     1      43.144  -9.203  11.224  1.00  0.00    -0.391 OA
HETATM   24  H   UNL     1      43.449  -8.615  11.934  1.00  0.00     0.210 HD
ENDBRANCH  21  23
ENDBRANCH  18  21
ENDBRANCH  12  15
ENDBRANCH   7  11
BRANCH   1  25
HETATM   25  C   UNL     1      42.000 -16.759   3.106  1.00  0.00    -0.035 A 
HETATM   26  C   UNL     1      42.502 -16.750   4.420  1.00  0.00     0.010 A 
HETATM   27  C   UNL     1      43.428 -17.705   4.847  1.00  0.00     0.007 A 
HETATM   28  C   UNL     1      43.888 -18.687   3.966  1.00  0.00    -0.062 A 
HETATM   29  C   UNL     1      44.831 -19.756   4.435  1.00  0.00     0.048 C 
HETATM   30  C   UNL     1      43.400 -18.702   2.656  1.00  0.00     0.007 A 
HETATM   31  C   UNL     1      42.475 -17.743   2.227  1.00  0.00     0.010 A 
ENDBRANCH   1  25
BRANCH   8  32
HETATM   32  C   UNL     1      39.979 -13.603  -0.316  1.00  0.00     0.409 C 
HETATM   33  F   UNL     1      38.849 -13.087  -0.836  1.00  0.00    -0.169 F 
HETATM   34  F   UNL     1      40.907 -12.622  -0.244  1.00  0.00    -0.169 F 
HETATM   35  F   UNL     1      40.439 -14.499  -1.233  1.00  0.00    -0.169 F 
ENDBRANCH   8  32
TORSDOF 6
ENDMDL
MODEL 4
REMARK VINA RESULT:      -8.9      3.141      5.453
REMARK  6 active torsions:
REMARK  status: ('A' for Active; 'I' for Inactive)
REMARK    1  A    between atoms: C_5  and  C_6 
REMARK    2  A    between atoms: C_12  and  C_13 
REMARK       I    between atoms: C_13  and  N_14 
REMARK    3  A    between atoms: N_14  and  C_15 
REMARK    4  A    between atoms: C_18  and  C_19 
REMARK    5  A    between atoms: C_19  and  O_20 
REMARK    6  A    between atoms: C_25  and  C_26 
ROOT
HETATM    1  C   UNL     1      42.600 -15.440   2.018  1.00  0.00     0.118 C 
HETATM    2  N   UNL     1      42.560 -15.079   3.447  1.00  0.00    -0.365 N 
HETATM    3  C   UNL     1      43.353 -15.795   4.297  1.00  0.00     0.138 A 
HETATM    4  N   UNL     1      43.876 -17.012   3.917  1.00  0.00    -0.240 N 
HETATM    5  N   UNL     1      44.693 -17.555   4.827  1.00  0.00    -0.181 NA
HETATM    6  C   UNL     1      44.605 -16.715   5.861  1.00  0.00     0.160 A 
HETATM    7  C   UNL     1      43.785 -15.590   5.595  1.00  0.00     0.096 A 
HETATM    8  C   UNL     1      43.644 -17.648   2.632  1.00  0.00     0.221 C 
HETATM    9  C   UNL     1      42.475 -16.962   1.898  1.00  0.00     0.066 C 
HETATM   10  H   UNL     1      41.608 -14.871   3.762  1.00  0.00     0.161 HD
ENDROOT
BRANCH   7  11
HETATM   11  C   UNL     1      43.540 -14.491   6.518  1.00  0.00     0.261 C 
HETATM   12  N   UNL     1      44.033 -13.273   6.091  1.00  0.00    -0.323 N 
HETATM   13  H   UNL     1      44.544 -13.295   5.215  1.00  0.00     0.169 HD
HETATM   14  O   UNL     1      42.944 -14.698   7.569  1.00  0.00    -0.267 OA
BRANCH  12  15
HETATM   15  C   UNL     1      43.927 -12.026   6.739  1.00  0.00     0.035 A 
HETATM   16  C   UNL     1      42.750 -11.283   6.810  1.00  0.00     0.030 A 
HETATM   17  C   UNL     1      42.726 -10.045   7.462  1.00  0.00     0.012 A 
HETATM   18  C   UNL     1      43.881  -9.508   8.050  1.00  0.00    -0.030 A 
HETATM   19  C   UNL     1      45.056 -10.267   7.991  1.00  0.00     0.012 A 
HETATM   20  C   UNL     1      45.078 -11.511   7.343  1.00  0.00     0.030 A 
BRANCH  18  21
HETATM   21  C   UNL     1      43.786  -8.161   8.733  1.00  0.00     0.147 C 
HETATM   22  C   UNL     1      42.638  -7.259   8.290  1.00  0.00     0.044 C 
BRANCH  21  23
HETATM   23  O   UNL     1      45.016  -7.475   8.515  1.00  0.00    -0.391 OA
HETATM   24  H   UNL     1      44.931  -6.990   7.679  1.00  0.00     0.210 HD
ENDBRANCH  21  23
ENDBRANCH  18  21
ENDBRANCH  12  15
ENDBRANCH   7  11
BRANCH   1  25
HETATM   25  C   UNL     1      41.573 -14.620   1.258  1.00  0.00    -0.035 A 
HETATM   26  C   UNL     1      41.698 -13.219   1.260  1.00  0.00     0.010 A 
HETATM   27  C   UNL     1      40.819 -12.413   0.532  1.00  0.00     0.007 A 
HETATM   28  C   UNL     1      39.782 -12.987  -0.207  1.00  0.00    -0.062 A 
HETATM   29  C   UNL     1      38.875 -12.135  -1.045  1.00  0.00     0.048 C 
HETATM   30  C   UNL     1      39.646 -14.378  -0.212  1.00  0.00     0.007 A 
HETATM   31  C   UNL     1      40.524 -15.185   0.520  1.00  0.00     0.010 A 
ENDBRANCH   1  25
BRANCH   8  32
HETATM   32  C   UNL     1      43.346 -19.127   2.775  1.00  0.00     0.409 C 
HETATM   33  F   UNL     1      44.305 -19.927   2.270  1.00  0.00    -0.169 F 
HETATM   34  F   UNL     1      43.120 -19.483   4.059  1.00  0.00    -0.169 F 
HETATM   35  F   UNL     1      42.208 -19.424   2.088  1.00  0.00    -0.169 F 
ENDBRANCH   8  32
TORSDOF 6
ENDMDL
MODEL 5
REMARK VINA RESULT:      -8.8      4.675      5.955
REMARK  6 active torsions:
REMARK  status: ('A' for Active; 'I' for Inactive)
REMARK    1  A    between atoms: C_5  and  C_6 
REMARK    2  A    between atoms: C_12  and  C_13 
REMARK       I    between atoms: C_13  and  N_14 
REMARK    3  A    between atoms: N_14  and  C_15 
REMARK    4  A    between atoms: C_18  and  C_19 
REMARK    5  A    between atoms: C_19  and  O_20 
REMARK    6  A    between atoms: C_25  and  C_26 
ROOT
HETATM    1  C   UNL     1      40.188 -14.004   0.497  1.00  0.00     0.118 C 
HETATM    2  N   UNL     1      40.890 -12.766   0.113  1.00  0.00    -0.365 N 
HETATM    3  C   UNL     1      40.241 -11.914  -0.734  1.00  0.00     0.138 A 
HETATM    4  N   UNL     1      39.163 -12.344  -1.477  1.00  0.00    -0.240 N 
HETATM    5  N   UNL     1      38.586 -11.376  -2.200  1.00  0.00    -0.181 NA
HETATM    6  C   UNL     1      39.383 -10.324  -1.997  1.00  0.00     0.160 A 
HETATM    7  C   UNL     1      40.438 -10.591  -1.087  1.00  0.00     0.096 A 
HETATM    8  C   UNL     1      38.626 -13.693  -1.454  1.00  0.00     0.221 C 
HETATM    9  C   UNL     1      39.619 -14.653  -0.769  1.00  0.00     0.066 C 
HETATM   10  H   UNL     1      41.885 -12.931  -0.065  1.00  0.00     0.161 HD
ENDROOT
BRANCH   7  11
HETATM   11  C   UNL     1      41.432  -9.625  -0.645  1.00  0.00     0.261 C 
HETATM   12  N   UNL     1      41.513  -8.494  -1.435  1.00  0.00    -0.323 N 
HETATM   13  H   UNL     1      40.908  -8.490  -2.249  1.00  0.00     0.169 HD
HETATM   14  O   UNL     1      42.110  -9.858   0.349  1.00  0.00    -0.267 OA
BRANCH  12  15
HETATM   15  C   UNL     1      42.346  -7.372  -1.250  1.00  0.00     0.035 A 
HETATM   16  C   UNL     1      43.515  -7.143  -1.973  1.00  0.00     0.030 A 
HETATM   17  C   UNL     1      44.297  -6.009  -1.724  1.00  0.00     0.012 A 
HETATM   18  C   UNL     1      43.940  -5.079  -0.735  1.00  0.00    -0.030 A 
HETATM   19  C   UNL     1      42.755  -5.305  -0.025  1.00  0.00     0.012 A 
HETATM   20  C   UNL     1      41.967  -6.438  -0.280  1.00  0.00     0.030 A 
BRANCH  18  21
HETATM   21  C   UNL     1      44.835  -3.880  -0.514  1.00  0.00     0.147 C 
HETATM   22  C   UNL     1      44.859  -3.306   0.898  1.00  0.00     0.044 C 
BRANCH  21  23
HETATM   23  O   UNL     1      44.421  -2.857  -1.416  1.00  0.00    -0.391 OA
HETATM   24  H   UNL     1      43.638  -2.432  -1.030  1.00  0.00     0.210 HD
ENDBRANCH  21  23
ENDBRANCH  18  21
ENDBRANCH  12  15
ENDBRANCH   7  11
BRANCH   1  25
HETATM   25  C   UNL     1      41.108 -14.870   1.339  1.00  0.00    -0.035 A 
HETATM   26  C   UNL     1      40.548 -15.621   2.388  1.00  0.00     0.010 A 
HETATM   27  C   UNL     1      41.333 -16.480   3.162  1.00  0.00     0.007 A 
HETATM   28  C   UNL     1      42.702 -16.600   2.915  1.00  0.00    -0.062 A 
HETATM   29  C   UNL     1      43.540 -17.569   3.697  1.00  0.00     0.048 C 
HETATM   30  C   UNL     1      43.270 -15.853   1.879  1.00  0.00     0.007 A 
HETATM   31  C   UNL     1      42.485 -14.990   1.106  1.00  0.00     0.010 A 
ENDBRANCH   1  25
BRANCH   8  32
HETATM   32  C   UNL     1      38.315 -14.205  -2.846  1.00  0.00     0.409 C 
HETATM   33  F   UNL     1      39.142 -13.731  -3.798  1.00  0.00    -0.169 F 
HETATM   34  F   UNL     1      38.314 -15.555  -2.908  1.00  0.00    -0.169 F 
HETATM   35  F   UNL     1      37.062 -13.804  -3.202  1.00  0.00    -0.169 F 
ENDBRANCH   8  32
TORSDOF 6
ENDMDL
MODEL 6
REMARK VINA RESULT:      -8.6      3.116      5.917
REMARK  6 active torsions:
REMARK  status: ('A' for Active; 'I' for Inactive)
REMARK    1  A    between atoms: C_5  and  C_6 
REMARK    2  A    between atoms: C_12  and  C_13 
REMARK       I    between atoms: C_13  and  N_14 
REMARK    3  A    between atoms: N_14  and  C_15 
REMARK    4  A    between atoms: C_18  and  C_19 
REMARK    5  A    between atoms: C_19  and  O_20 
REMARK    6  A    between atoms: C_25  and  C_26 
ROOT
HETATM    1  C   UNL     1      41.146 -11.807  -1.695  1.00  0.00     0.118 C 
HETATM    2  N   UNL     1      40.830 -11.919  -0.260  1.00  0.00    -0.365 N 
HETATM    3  C   UNL     1      40.461 -13.148   0.208  1.00  0.00     0.138 A 
HETATM    4  N   UNL     1      40.051 -14.138  -0.660  1.00  0.00    -0.240 N 
HETATM    5  N   UNL     1      39.797 -15.307  -0.061  1.00  0.00    -0.181 NA
HETATM    6  C   UNL     1      39.944 -15.028   1.237  1.00  0.00     0.160 A 
HETATM    7  C   UNL     1      40.362 -13.694   1.475  1.00  0.00     0.096 A 
HETATM    8  C   UNL     1      39.957 -13.989  -2.101  1.00  0.00     0.221 C 
HETATM    9  C   UNL     1      40.038 -12.501  -2.493  1.00  0.00     0.066 C 
HETATM   10  H   UNL     1      40.295 -11.114   0.078  1.00  0.00     0.161 HD
ENDROOT
BRANCH   7  11
HETATM   11  C   UNL     1      40.643 -13.122   2.783  1.00  0.00     0.261 C 
HETATM   12  N   UNL     1      41.982 -13.122   3.125  1.00  0.00    -0.323 N 
HETATM   13  H   UNL     1      42.601 -13.560   2.451  1.00  0.00     0.169 HD
HETATM   14  O   UNL     1      39.724 -12.697   3.474  1.00  0.00    -0.267 OA
BRANCH  12  15
HETATM   15  C   UNL     1      42.572 -12.611   4.299  1.00  0.00     0.035 A 
HETATM   16  C   UNL     1      43.064 -13.406   5.333  1.00  0.00     0.030 A 
HETATM   17  C   UNL     1      43.626 -12.823   6.475  1.00  0.00     0.012 A 
HETATM   18  C   UNL     1      43.699 -11.429   6.621  1.00  0.00    -0.030 A 
HETATM   19  C   UNL     1      43.220 -10.637   5.571  1.00  0.00     0.012 A 
HETATM   20  C   UNL     1      42.663 -11.221   4.424  1.00  0.00     0.030 A 
BRANCH  18  21
HETATM   21  C   UNL     1      44.313 -10.867   7.885  1.00  0.00     0.147 C 
HETATM   22  C   UNL     1      45.834 -10.770   7.911  1.00  0.00     0.044 C 
BRANCH  21  23
HETATM   23  O   UNL     1      43.887 -11.683   8.974  1.00  0.00    -0.391 OA
HETATM   24  H   UNL     1      44.681 -11.931   9.475  1.00  0.00     0.210 HD
ENDBRANCH  21  23
ENDBRANCH  18  21
ENDBRANCH  12  15
ENDBRANCH   7  11
BRANCH   1  25
HETATM   25  C   UNL     1      41.417 -10.355  -2.044  1.00  0.00    -0.035 A 
HETATM   26  C   UNL     1      42.146  -9.570  -1.132  1.00  0.00     0.010 A 
HETATM   27  C   UNL     1      42.476  -8.243  -1.423  1.00  0.00     0.007 A 
HETATM   28  C   UNL     1      42.073  -7.663  -2.627  1.00  0.00    -0.062 A 
HETATM   29  C   UNL     1      42.480  -6.261  -2.976  1.00  0.00     0.048 C 
HETATM   30  C   UNL     1      41.343  -8.432  -3.538  1.00  0.00     0.007 A 
HETATM   31  C   UNL     1      41.009  -9.759  -3.246  1.00  0.00     0.010 A 
ENDBRANCH   1  25
BRANCH   8  32
HETATM   32  C   UNL     1      38.676 -14.582  -2.651  1.00  0.00     0.409 C 
HETATM   33  F   UNL     1      38.591 -15.920  -2.511  1.00  0.00    -0.169 F 
HETATM   34  F   UNL     1      37.574 -14.021  -2.105  1.00  0.00    -0.169 F 
HETATM   35  F   UNL     1      38.607 -14.339  -3.990  1.00  0.00    -0.169 F 
ENDBRANCH   8  32
TORSDOF 6
ENDMDL
MODEL 7
REMARK VINA RESULT:      -8.6     16.502     18.065
REMARK  6 active torsions:
REMARK  status: ('A' for Active; 'I' for Inactive)
REMARK    1  A    between atoms: C_5  and  C_6 
REMARK    2  A    between atoms: C_12  and  C_13 
REMARK       I    between atoms: C_13  and  N_14 
REMARK    3  A    between atoms: N_14  and  C_15 
REMARK    4  A    between atoms: C_18  and  C_19 
REMARK    5  A    between atoms: C_19  and  O_20 
REMARK    6  A    between atoms: C_25  and  C_26 
ROOT
HETATM    1  C   UNL     1      43.572 -29.350   0.785  1.00  0.00     0.118 C 
HETATM    2  N   UNL     1      44.943 -29.498   1.307  1.00  0.00    -0.365 N 
HETATM    3  C   UNL     1      45.945 -28.872   0.624  1.00  0.00     0.138 A 
HETATM    4  N   UNL     1      45.752 -28.438  -0.670  1.00  0.00    -0.240 N 
HETATM    5  N   UNL     1      46.799 -27.776  -1.178  1.00  0.00    -0.181 NA
HETATM    6  C   UNL     1      47.726 -27.884  -0.222  1.00  0.00     0.160 A 
HETATM    7  C   UNL     1      47.256 -28.557   0.935  1.00  0.00     0.096 A 
HETATM    8  C   UNL     1      44.522 -28.600  -1.423  1.00  0.00     0.221 C 
HETATM    9  C   UNL     1      43.595 -29.614  -0.724  1.00  0.00     0.066 C 
HETATM   10  H   UNL     1      45.127 -30.452   1.632  1.00  0.00     0.161 HD
ENDROOT
BRANCH   7  11
HETATM   11  C   UNL     1      48.028 -28.783   2.147  1.00  0.00     0.261 C 
HETATM   12  N   UNL     1      48.504 -30.073   2.283  1.00  0.00    -0.323 N 
HETATM   13  H   UNL     1      48.224 -30.717   1.552  1.00  0.00     0.169 HD
HETATM   14  O   UNL     1      48.200 -27.865   2.942  1.00  0.00    -0.267 OA
BRANCH  12  15
HETATM   15  C   UNL     1      49.305 -30.591   3.321  1.00  0.00     0.035 A 
HETATM   16  C   UNL     1      50.666 -30.328   3.459  1.00  0.00     0.030 A 
HETATM   17  C   UNL     1      51.398 -30.889   4.512  1.00  0.00     0.012 A 
HETATM   18  C   UNL     1      50.792 -31.741   5.448  1.00  0.00    -0.030 A 
HETATM   19  C   UNL     1      49.421 -31.988   5.315  1.00  0.00     0.012 A 
HETATM   20  C   UNL     1      48.686 -31.419   4.263  1.00  0.00     0.030 A 
BRANCH  18  21
HETATM   21  C   UNL     1      51.645 -32.319   6.557  1.00  0.00     0.147 C 
HETATM   22  C   UNL     1      52.863 -31.501   6.968  1.00  0.00     0.044 C 
BRANCH  21  23
HETATM   23  O   UNL     1      52.080 -33.611   6.141  1.00  0.00    -0.391 OA
HETATM   24  H   UNL     1      52.724 -33.481   5.426  1.00  0.00     0.210 HD
ENDBRANCH  21  23
ENDBRANCH  18  21
ENDBRANCH  12  15
ENDBRANCH   7  11
BRANCH   1  25
HETATM   25  C   UNL     1      42.621 -30.206   1.602  1.00  0.00    -0.035 A 
HETATM   26  C   UNL     1      42.309 -29.800   2.912  1.00  0.00     0.010 A 
HETATM   27  C   UNL     1      41.397 -30.514   3.693  1.00  0.00     0.007 A 
HETATM   28  C   UNL     1      40.783 -31.663   3.189  1.00  0.00    -0.062 A 
HETATM   29  C   UNL     1      39.753 -32.397   3.995  1.00  0.00     0.048 C 
HETATM   30  C   UNL     1      41.090 -32.079   1.890  1.00  0.00     0.007 A 
HETATM   31  C   UNL     1      42.006 -31.365   1.109  1.00  0.00     0.010 A 
ENDBRANCH   1  25
BRANCH   8  32
HETATM   32  C   UNL     1      44.781 -29.058  -2.844  1.00  0.00     0.409 C 
HETATM   33  F   UNL     1      45.139 -28.063  -3.680  1.00  0.00    -0.169 F 
HETATM   34  F   UNL     1      45.717 -30.032  -2.908  1.00  0.00    -0.169 F 
HETATM   35  F   UNL     1      43.638 -29.590  -3.361  1.00  0.00    -0.169 F 
ENDBRANCH   8  32
TORSDOF 6
ENDMDL
MODEL 8
REMARK VINA RESULT:      -8.6      4.521      7.598
REMARK  6 active torsions:
REMARK  status: ('A' for Active; 'I' for Inactive)
REMARK    1  A    between atoms: C_5  and  C_6 
REMARK    2  A    between atoms: C_12  and  C_13 
REMARK       I    between atoms: C_13  and  N_14 
REMARK    3  A    between atoms: N_14  and  C_15 
REMARK    4  A    between atoms: C_18  and  C_19 
REMARK    5  A    between atoms: C_19  and  O_20 
REMARK    6  A    between atoms: C_25  and  C_26 
ROOT
HETATM    1  C   UNL     1      40.849 -10.330  -1.638  1.00  0.00     0.118 C 
HETATM    2  N   UNL     1      40.966 -11.306  -0.539  1.00  0.00    -0.365 N 
HETATM    3  C   UNL     1      40.349 -12.513  -0.704  1.00  0.00     0.138 A 
HETATM    4  N   UNL     1      39.375 -12.682  -1.665  1.00  0.00    -0.240 N 
HETATM    5  N   UNL     1      38.921 -13.938  -1.757  1.00  0.00    -0.181 NA
HETATM    6  C   UNL     1      39.544 -14.565  -0.756  1.00  0.00     0.160 A 
HETATM    7  C   UNL     1      40.455 -13.732  -0.058  1.00  0.00     0.096 A 
HETATM    8  C   UNL     1      38.906 -11.640  -2.560  1.00  0.00     0.221 C 
HETATM    9  C   UNL     1      39.381 -10.258  -2.070  1.00  0.00     0.066 C 
HETATM   10  H   UNL     1      40.877 -10.860   0.379  1.00  0.00     0.161 HD
ENDROOT
BRANCH   7  11
HETATM   11  C   UNL     1      41.303 -14.153   1.047  1.00  0.00     0.261 C 
HETATM   12  N   UNL     1      41.076 -15.448   1.472  1.00  0.00    -0.323 N 
HETATM   13  H   UNL     1      40.322 -15.934   1.000  1.00  0.00     0.169 HD
HETATM   14  O   UNL     1      42.124 -13.375   1.518  1.00  0.00    -0.267 OA
BRANCH  12  15
HETATM   15  C   UNL     1      41.753 -16.151   2.490  1.00  0.00     0.035 A 
HETATM   16  C   UNL     1      41.448 -16.043   3.846  1.00  0.00     0.030 A 
HETATM   17  C   UNL     1      42.174 -16.767   4.799  1.00  0.00     0.012 A 
HETATM   18  C   UNL     1      43.233 -17.607   4.426  1.00  0.00    -0.030 A 
HETATM   19  C   UNL     1      43.523 -17.726   3.062  1.00  0.00     0.012 A 
HETATM   20  C   UNL     1      42.790 -17.006   2.105  1.00  0.00     0.030 A 
BRANCH  18  21
HETATM   21  C   UNL     1      43.980 -18.354   5.510  1.00  0.00     0.147 C 
HETATM   22  C   UNL     1      44.022 -19.872   5.378  1.00  0.00     0.044 C 
BRANCH  21  23
HETATM   23  O   UNL     1      43.379 -18.020   6.759  1.00  0.00    -0.391 OA
HETATM   24  H   UNL     1      43.626 -18.714   7.392  1.00  0.00     0.210 HD
ENDBRANCH  21  23
ENDBRANCH  18  21
ENDBRANCH  12  15
ENDBRANCH   7  11
BRANCH   1  25
HETATM   25  C   UNL     1      41.492  -9.019  -1.224  1.00  0.00    -0.035 A 
HETATM   26  C   UNL     1      42.733  -8.673  -1.788  1.00  0.00     0.010 A 
HETATM   27  C   UNL     1      43.348  -7.454  -1.490  1.00  0.00     0.007 A 
HETATM   28  C   UNL     1      42.743  -6.554  -0.609  1.00  0.00    -0.062 A 
HETATM   29  C   UNL     1      43.364  -5.215  -0.336  1.00  0.00     0.048 C 
HETATM   30  C   UNL     1      41.513  -6.891  -0.038  1.00  0.00     0.007 A 
HETATM   31  C   UNL     1      40.898  -8.113  -0.334  1.00  0.00     0.010 A 
ENDBRANCH   1  25
BRANCH   8  32
HETATM   32  C   UNL     1      37.396 -11.634  -2.685  1.00  0.00     0.409 C 
HETATM   33  F   UNL     1      36.914 -10.621  -3.430  1.00  0.00    -0.169 F 
HETATM   34  F   UNL     1      36.917 -12.798  -3.179  1.00  0.00    -0.169 F 
HETATM   35  F   UNL     1      36.844 -11.487  -1.448  1.00  0.00    -0.169 F 
ENDBRANCH   8  32
TORSDOF 6
ENDMDL
MODEL 9
REMARK VINA RESULT:      -8.6      3.684      8.458
REMARK  6 active torsions:
REMARK  status: ('A' for Active; 'I' for Inactive)
REMARK    1  A    between atoms: C_5  and  C_6 
REMARK    2  A    between atoms: C_12  and  C_13 
REMARK       I    between atoms: C_13  and  N_14 
REMARK    3  A    between atoms: N_14  and  C_15 
REMARK    4  A    between atoms: C_18  and  C_19 
REMARK    5  A    between atoms: C_19  and  O_20 
REMARK    6  A    between atoms: C_25  and  C_26 
ROOT
HETATM    1  C   UNL     1      42.965 -13.383   6.076  1.00  0.00     0.118 C 
HETATM    2  N   UNL     1      42.574 -13.143   4.676  1.00  0.00    -0.365 N 
HETATM    3  C   UNL     1      41.987 -14.175   4.002  1.00  0.00     0.138 A 
HETATM    4  N   UNL     1      42.085 -15.468   4.470  1.00  0.00    -0.240 N 
HETATM    5  N   UNL     1      41.394 -16.357   3.745  1.00  0.00    -0.181 NA
HETATM    6  C   UNL     1      40.931 -15.630   2.725  1.00  0.00     0.160 A 
HETATM    7  C   UNL     1      41.263 -14.255   2.825  1.00  0.00     0.096 A 
HETATM    8  C   UNL     1      42.801 -15.863   5.670  1.00  0.00     0.221 C 
HETATM    9  C   UNL     1      43.714 -14.718   6.150  1.00  0.00     0.066 C 
HETATM   10  H   UNL     1      43.279 -12.599   4.170  1.00  0.00     0.161 HD
ENDROOT
BRANCH   7  11
HETATM   11  C   UNL     1      40.858 -13.221   1.885  1.00  0.00     0.261 C 
HETATM   12  N   UNL     1      39.722 -13.528   1.162  1.00  0.00    -0.323 N 
HETATM   13  H   UNL     1      39.333 -14.448   1.336  1.00  0.00     0.169 HD
HETATM   14  O   UNL     1      41.516 -12.191   1.789  1.00  0.00    -0.267 OA
BRANCH  12  15
HETATM   15  C   UNL     1      39.066 -12.725   0.207  1.00  0.00     0.035 A 
HETATM   16  C   UNL     1      38.335 -11.580   0.522  1.00  0.00     0.030 A 
HETATM   17  C   UNL     1      37.701 -10.840  -0.483  1.00  0.00     0.012 A 
HETATM   18  C   UNL     1      37.768 -11.231  -1.830  1.00  0.00    -0.030 A 
HETATM   19  C   UNL     1      38.519 -12.370  -2.141  1.00  0.00     0.012 A 
HETATM   20  C   UNL     1      39.160 -13.108  -1.135  1.00  0.00     0.030 A 
BRANCH  18  21
HETATM   21  C   UNL     1      37.053 -10.388  -2.863  1.00  0.00     0.147 C 
HETATM   22  C   UNL     1      35.696 -10.901  -3.331  1.00  0.00     0.044 C 
BRANCH  21  23
HETATM   23  O   UNL     1      37.912 -10.268  -3.994  1.00  0.00    -0.391 OA
HETATM   24  H   UNL     1      37.436  -9.748  -4.662  1.00  0.00     0.210 HD
ENDBRANCH  21  23
ENDBRANCH  18  21
ENDBRANCH  12  15
ENDBRANCH   7  11
BRANCH   1  25
HETATM   25  C   UNL     1      43.701 -12.169   6.614  1.00  0.00    -0.035 A 
HETATM   26  C   UNL     1      42.945 -11.080   7.084  1.00  0.00     0.010 A 
HETATM   27  C   UNL     1      43.564  -9.958   7.643  1.00  0.00     0.007 A 
HETATM   28  C   UNL     1      44.956  -9.892   7.735  1.00  0.00    -0.062 A 
HETATM   29  C   UNL     1      45.625  -8.722   8.394  1.00  0.00     0.048 C 
HETATM   30  C   UNL     1      45.717 -10.967   7.267  1.00  0.00     0.007 A 
HETATM   31  C   UNL     1      45.098 -12.089   6.703  1.00  0.00     0.010 A 
ENDBRANCH   1  25
BRANCH   8  32
HETATM   32  C   UNL     1      43.635 -17.109   5.451  1.00  0.00     0.409 C 
HETATM   33  F   UNL     1      43.021 -18.248   5.825  1.00  0.00    -0.169 F 
HETATM   34  F   UNL     1      44.036 -17.238   4.166  1.00  0.00    -0.169 F 
HETATM   35  F   UNL     1      44.769 -17.028   6.201  1.00  0.00    -0.169 F 
ENDBRANCH   8  32
TORSDOF 6
ENDMDL
MODEL 10
REMARK VINA RESULT:      -8.4     17.069     19.022
REMARK  6 active torsions:
REMARK  status: ('A' for Active; 'I' for Inactive)
REMARK    1  A    between atoms: C_5  and  C_6 
REMARK    2  A    between atoms: C_12  and  C_13 
REMARK       I    between atoms: C_13  and  N_14 
REMARK    3  A    between atoms: N_14  and  C_15 
REMARK    4  A    between atoms: C_18  and  C_19 
REMARK    5  A    between atoms: C_19  and  O_20 
REMARK    6  A    between atoms: C_25  and  C_26 
ROOT
HETATM    1  C   UNL     1      47.767 -30.519   1.480  1.00  0.00     0.118 C 
HETATM    2  N   UNL     1      46.434 -30.583   2.105  1.00  0.00    -0.365 N 
HETATM    3  C   UNL     1      45.350 -30.437   1.288  1.00  0.00     0.138 A 
HETATM    4  N   UNL     1      45.486 -29.899   0.026  1.00  0.00    -0.240 N 
HETATM    5  N   UNL     1      44.350 -29.892  -0.682  1.00  0.00    -0.181 NA
HETATM    6  C   UNL     1      43.441 -30.339   0.189  1.00  0.00     0.160 A 
HETATM    7  C   UNL     1      44.000 -30.701   1.440  1.00  0.00     0.096 A 
HETATM    8  C   UNL     1      46.737 -29.435  -0.545  1.00  0.00     0.221 C 
HETATM    9  C   UNL     1      47.811 -29.301   0.552  1.00  0.00     0.066 C 
HETATM   10  H   UNL     1      46.409 -30.091   3.003  1.00  0.00     0.161 HD
ENDROOT
BRANCH   7  11
HETATM   11  C   UNL     1      43.260 -31.258   2.563  1.00  0.00     0.261 C 
HETATM   12  N   UNL     1      41.892 -31.305   2.371  1.00  0.00    -0.323 N 
HETATM   13  H   UNL     1      41.563 -30.907   1.498  1.00  0.00     0.169 HD
HETATM   14  O   UNL     1      43.860 -31.631   3.565  1.00  0.00    -0.267 OA
BRANCH  12  15
HETATM   15  C   UNL     1      40.916 -31.815   3.251  1.00  0.00     0.035 A 
HETATM   16  C   UNL     1      40.667 -31.300   4.521  1.00  0.00     0.030 A 
HETATM   17  C   UNL     1      39.687 -31.870   5.343  1.00  0.00     0.012 A 
HETATM   18  C   UNL     1      38.938 -32.979   4.923  1.00  0.00    -0.030 A 
HETATM   19  C   UNL     1      39.181 -33.481   3.638  1.00  0.00     0.012 A 
HETATM   20  C   UNL     1      40.158 -32.905   2.813  1.00  0.00     0.030 A 
BRANCH  18  21
HETATM   21  C   UNL     1      37.900 -33.549   5.864  1.00  0.00     0.147 C 
HETATM   22  C   UNL     1      36.466 -33.585   5.347  1.00  0.00     0.044 C 
BRANCH  21  23
HETATM   23  O   UNL     1      37.934 -32.780   7.064  1.00  0.00    -0.391 OA
HETATM   24  H   UNL     1      37.936 -31.844   6.806  1.00  0.00     0.210 HD
ENDBRANCH  21  23
ENDBRANCH  18  21
ENDBRANCH  12  15
ENDBRANCH   7  11
BRANCH   1  25
HETATM   25  C   UNL     1      48.836 -30.583   2.556  1.00  0.00    -0.035 A 
HETATM   26  C   UNL     1      48.492 -31.107   3.815  1.00  0.00     0.010 A 
HETATM   27  C   UNL     1      49.446 -31.244   4.827  1.00  0.00     0.007 A 
HETATM   28  C   UNL     1      50.768 -30.848   4.610  1.00  0.00    -0.062 A 
HETATM   29  C   UNL     1      51.812 -31.054   5.667  1.00  0.00     0.048 C 
HETATM   30  C   UNL     1      51.120 -30.321   3.364  1.00  0.00     0.007 A 
HETATM   31  C   UNL     1      50.163 -30.180   2.351  1.00  0.00     0.010 A 
ENDBRANCH   1  25
BRANCH   8  32
HETATM   32  C   UNL     1      46.579 -28.105  -1.255  1.00  0.00     0.409 C 
HETATM   33  F   UNL     1      46.438 -28.214  -2.590  1.00  0.00    -0.169 F 
HETATM   34  F   UNL     1      45.544 -27.384  -0.770  1.00  0.00    -0.169 F 
HETATM   35  F   UNL     1      47.698 -27.353  -1.055  1.00  0.00    -0.169 F 
ENDBRANCH   8  32
TORSDOF 6
ENDMDL
