MODEL 1
REMARK VINA RESULT:      -8.5      0.000      0.000
REMARK  10 active torsions:
REMARK  status: ('A' for Active; 'I' for Inactive)
REMARK       I    between atoms: C_2  and  N_3 
REMARK    1  A    between atoms: N_3  and  C_4 
REMARK    2  A    between atoms: C_6  and  O_7 
REMARK    3  A    between atoms: O_7  and  C_8 
REMARK    4  A    between atoms: C_8  and  C_9 
REMARK    5  A    between atoms: C_9  and  C_10 
REMARK    6  A    between atoms: C_10  and  C_11 
REMARK    7  A    between atoms: C_11  and  N_12 
REMARK       I    between atoms: N_12  and  C_13 
REMARK    8  A    between atoms: C_13  and  C_14 
REMARK    9  A    between atoms: C_18  and  C_19 
REMARK   10  A    between atoms: C_21  and  O_22 
ROOT
HETATM    1  N   UNL     1      43.344 -11.149   8.206  1.00  0.00    -0.345 N 
HETATM    2  C   UNL     1      44.297 -10.805   9.130  1.00  0.00     0.270 C 
HETATM    3  O   UNL     1      45.499 -10.885   8.898  1.00  0.00    -0.266 OA
HETATM    4  H   UNL     1      42.364 -11.099   8.441  1.00  0.00     0.163 HD
ENDROOT
BRANCH   1   5
HETATM    5  C   UNL     1      43.715 -11.639   6.906  1.00  0.00     0.217 C 
BRANCH   5   6
HETATM    6  C   UNL     1      43.651 -13.101   6.891  1.00  0.00    -0.085 C 
BRANCH   6   7
HETATM    7  C   UNL     1      43.604 -14.404   6.879  1.00  0.00    -0.078 C 
BRANCH   7   8
HETATM    8  C   UNL     1      43.551 -15.924   6.865  1.00  0.00     0.269 C 
BRANCH   8   9
HETATM    9  O   UNL     1      44.498 -16.430   5.928  1.00  0.00    -0.339 OA
BRANCH   9  10
HETATM   10  C   UNL     1      43.981 -16.895   4.746  1.00  0.00     0.072 A 
HETATM   11  C   UNL     1      43.214 -16.154   3.838  1.00  0.00     0.066 A 
HETATM   12  C   UNL     1      42.745 -16.733   2.654  1.00  0.00     0.037 A 
HETATM   13  C   UNL     1      43.048 -18.074   2.389  1.00  0.00     0.029 A 
HETATM   14  C   UNL     1      43.809 -18.820   3.291  1.00  0.00     0.005 A 
HETATM   15  C   UNL     1      44.272 -18.230   4.465  1.00  0.00     0.037 A 
BRANCH  12  16
HETATM   16  N   UNL     1      41.977 -16.042   1.690  1.00  0.00    -0.327 N 
HETATM   17  C   UNL     1      40.656 -15.643   1.793  1.00  0.00     0.218 C 
HETATM   18  C   UNL     1      40.172 -14.919   0.560  1.00  0.00     0.117 C 
HETATM   19  O   UNL     1      39.896 -15.843   2.734  1.00  0.00    -0.274 OA
HETATM   20  H   UNL     1      42.455 -15.818   0.827  1.00  0.00     0.169 HD
ENDBRANCH  12  16
ENDBRANCH   9  10
ENDBRANCH   8   9
ENDBRANCH   7   8
ENDBRANCH   6   7
ENDBRANCH   5   6
ENDBRANCH   1   5
BRANCH   2  21
HETATM   21  C   UNL     1      43.791 -10.355  10.397  1.00  0.00     0.120 A 
HETATM   22  N   UNL     1      43.406 -11.236  11.368  1.00  0.00    -0.272 N 
HETATM   23  H   UNL     1      43.438 -12.250  11.314  1.00  0.00     0.189 HD
HETATM   24  N   UNL     1      42.928 -10.659  12.480  1.00  0.00    -0.174 NA
HETATM   25  C   UNL     1      43.032  -9.340  12.248  1.00  0.00     0.089 A 
HETATM   26  C   UNL     1      43.567  -9.110  10.949  1.00  0.00     0.071 A 
BRANCH  25  27
HETATM   27  C   UNL     1      42.615  -8.347  13.243  1.00  0.00    -0.003 A 
HETATM   28  C   UNL     1      42.018  -8.760  14.448  1.00  0.00     0.050 A 
HETATM   29  C   UNL     1      41.600  -7.824  15.396  1.00  0.00     0.069 A 
HETATM   30  C   UNL     1      41.786  -6.465  15.145  1.00  0.00     0.037 A 
HETATM   31  C   UNL     1      42.383  -6.038  13.959  1.00  0.00     0.004 A 
HETATM   32  C   UNL     1      42.794  -6.976  13.010  1.00  0.00     0.014 A 
BRANCH  29  33
HETATM   33  O   UNL     1      41.002  -8.106  16.595  1.00  0.00    -0.356 OA
HETATM   34  C   UNL     1      40.410  -7.013  17.286  1.00  0.00     0.210 C 
ENDBRANCH  29  33
ENDBRANCH  25  27
ENDBRANCH   2  21
TORSDOF 10
ENDMDL
MODEL 2
REMARK VINA RESULT:      -8.3      1.790      2.756
REMARK  10 active torsions:
REMARK  status: ('A' for Active; 'I' for Inactive)
REMARK       I    between atoms: C_2  and  N_3 
REMARK    1  A    between atoms: N_3  and  C_4 
REMARK    2  A    between atoms: C_6  and  O_7 
REMARK    3  A    between atoms: O_7  and  C_8 
REMARK    4  A    between atoms: C_8  and  C_9 
REMARK    5  A    between atoms: C_9  and  C_10 
REMARK    6  A    between atoms: C_10  and  C_11 
REMARK    7  A    between atoms: C_11  and  N_12 
REMARK       I    between atoms: N_12  and  C_13 
REMARK    8  A    between atoms: C_13  and  C_14 
REMARK    9  A    between atoms: C_18  and  C_19 
REMARK   10  A    between atoms: C_21  and  O_22 
ROOT
HETATM    1  N   UNL     1      44.005 -10.154   8.716  1.00  0.00    -0.345 N 
HETATM    2  C   UNL     1      44.448 -10.297  10.006  1.00  0.00     0.270 C 
HETATM    3  O   UNL     1      45.535 -10.796  10.278  1.00  0.00    -0.266 OA
HETATM    4  H   UNL     1      43.094  -9.765   8.529  1.00  0.00     0.163 HD
ENDROOT
BRANCH   1   5
HETATM    5  C   UNL     1      44.802 -10.602   7.605  1.00  0.00     0.217 C 
BRANCH   5   6
HETATM    6  C   UNL     1      44.356 -11.930   7.180  1.00  0.00    -0.085 C 
BRANCH   6   7
HETATM    7  C   UNL     1      43.964 -13.116   6.809  1.00  0.00    -0.078 C 
BRANCH   7   8
HETATM    8  C   UNL     1      43.507 -14.500   6.375  1.00  0.00     0.269 C 
BRANCH   8   9
HETATM    9  O   UNL     1      42.485 -14.381   5.389  1.00  0.00    -0.339 OA
BRANCH   9  10
HETATM   10  C   UNL     1      42.765 -14.939   4.167  1.00  0.00     0.072 A 
HETATM   11  C   UNL     1      42.762 -16.307   3.869  1.00  0.00     0.066 A 
HETATM   12  C   UNL     1      43.057 -16.762   2.579  1.00  0.00     0.037 A 
HETATM   13  C   UNL     1      43.364 -15.825   1.584  1.00  0.00     0.029 A 
HETATM   14  C   UNL     1      43.373 -14.460   1.874  1.00  0.00     0.005 A 
HETATM   15  C   UNL     1      43.074 -14.021   3.162  1.00  0.00     0.037 A 
BRANCH  12  16
HETATM   16  N   UNL     1      43.061 -18.125   2.207  1.00  0.00    -0.327 N 
HETATM   17  C   UNL     1      43.814 -19.146   2.757  1.00  0.00     0.218 C 
HETATM   18  C   UNL     1      43.546 -20.480   2.103  1.00  0.00     0.117 C 
HETATM   19  O   UNL     1      44.644 -19.051   3.655  1.00  0.00    -0.274 OA
HETATM   20  H   UNL     1      42.439 -18.374   1.449  1.00  0.00     0.169 HD
ENDBRANCH  12  16
ENDBRANCH   9  10
ENDBRANCH   8   9
ENDBRANCH   7   8
ENDBRANCH   6   7
ENDBRANCH   5   6
ENDBRANCH   1   5
BRANCH   2  21
HETATM   21  C   UNL     1      43.544  -9.830  11.021  1.00  0.00     0.120 A 
HETATM   22  N   UNL     1      42.371 -10.477  11.286  1.00  0.00    -0.272 N 
HETATM   23  H   UNL     1      42.024 -11.316  10.830  1.00  0.00     0.189 HD
HETATM   24  N   UNL     1      41.625  -9.901  12.240  1.00  0.00    -0.174 NA
HETATM   25  C   UNL     1      42.352  -8.847  12.646  1.00  0.00     0.089 A 
HETATM   26  C   UNL     1      43.563  -8.768  11.902  1.00  0.00     0.071 A 
BRANCH  25  27
HETATM   27  C   UNL     1      41.880  -7.946  13.703  1.00  0.00    -0.003 A 
HETATM   28  C   UNL     1      40.519  -7.604  13.784  1.00  0.00     0.050 A 
HETATM   29  C   UNL     1      40.058  -6.734  14.775  1.00  0.00     0.069 A 
HETATM   30  C   UNL     1      40.963  -6.208  15.698  1.00  0.00     0.037 A 
HETATM   31  C   UNL     1      42.315  -6.543  15.637  1.00  0.00     0.004 A 
HETATM   32  C   UNL     1      42.773  -7.408  14.641  1.00  0.00     0.014 A 
BRANCH  29  33
HETATM   33  O   UNL     1      38.764  -6.322  14.947  1.00  0.00    -0.356 OA
HETATM   34  C   UNL     1      37.987  -6.149  13.768  1.00  0.00     0.210 C 
ENDBRANCH  29  33
ENDBRANCH  25  27
ENDBRANCH   2  21
TORSDOF 10
ENDMDL
MODEL 3
REMARK VINA RESULT:      -7.9      3.378      9.946
REMARK  10 active torsions:
REMARK  status: ('A' for Active; 'I' for Inactive)
REMARK       I    between atoms: C_2  and  N_3 
REMARK    1  A    between atoms: N_3  and  C_4 
REMARK    2  A    between atoms: C_6  and  O_7 
REMARK    3  A    between atoms: O_7  and  C_8 
REMARK    4  A    between atoms: C_8  and  C_9 
REMARK    5  A    between atoms: C_9  and  C_10 
REMARK    6  A    between atoms: C_10  and  C_11 
REMARK    7  A    between atoms: C_11  and  N_12 
REMARK       I    between atoms: N_12  and  C_13 
REMARK    8  A    between atoms: C_13  and  C_14 
REMARK    9  A    between atoms: C_18  and  C_19 
REMARK   10  A    between atoms: C_21  and  O_22 
ROOT
HETATM    1  N   UNL     1      40.147 -10.035   6.718  1.00  0.00    -0.345 N 
HETATM    2  C   UNL     1      39.358 -11.155   6.654  1.00  0.00     0.270 C 
HETATM    3  O   UNL     1      38.387 -11.320   7.386  1.00  0.00    -0.266 OA
HETATM    4  H   UNL     1      40.954  -9.945   6.121  1.00  0.00     0.163 HD
ENDROOT
BRANCH   1   5
HETATM    5  C   UNL     1      39.877  -8.993   7.671  1.00  0.00     0.217 C 
BRANCH   5   6
HETATM    6  C   UNL     1      40.742  -9.153   8.840  1.00  0.00    -0.085 C 
BRANCH   6   7
HETATM    7  C   UNL     1      41.514  -9.287   9.882  1.00  0.00    -0.078 C 
BRANCH   7   8
HETATM    8  C   UNL     1      42.414  -9.444  11.098  1.00  0.00     0.269 C 
BRANCH   8   9
HETATM    9  O   UNL     1      43.354 -10.490  10.869  1.00  0.00    -0.339 OA
BRANCH   9  10
HETATM   10  C   UNL     1      44.135 -10.358   9.749  1.00  0.00     0.072 A 
HETATM   11  C   UNL     1      43.932 -11.009   8.525  1.00  0.00     0.066 A 
HETATM   12  C   UNL     1      44.792 -10.790   7.445  1.00  0.00     0.037 A 
HETATM   13  C   UNL     1      45.870  -9.911   7.603  1.00  0.00     0.029 A 
HETATM   14  C   UNL     1      46.082  -9.262   8.820  1.00  0.00     0.005 A 
HETATM   15  C   UNL     1      45.215  -9.486   9.888  1.00  0.00     0.037 A 
BRANCH  12  16
HETATM   16  N   UNL     1      44.639 -11.404   6.181  1.00  0.00    -0.327 N 
HETATM   17  C   UNL     1      43.672 -11.141   5.227  1.00  0.00     0.218 C 
HETATM   18  C   UNL     1      43.830 -11.993   3.991  1.00  0.00     0.117 C 
HETATM   19  O   UNL     1      42.746 -10.342   5.316  1.00  0.00    -0.274 OA
HETATM   20  H   UNL     1      45.319 -12.119   5.956  1.00  0.00     0.169 HD
ENDBRANCH  12  16
ENDBRANCH   9  10
ENDBRANCH   8   9
ENDBRANCH   7   8
ENDBRANCH   6   7
ENDBRANCH   5   6
ENDBRANCH   1   5
BRANCH   2  21
HETATM   21  C   UNL     1      39.753 -12.130   5.675  1.00  0.00     0.120 A 
HETATM   22  N   UNL     1      39.269 -12.099   4.398  1.00  0.00    -0.272 N 
HETATM   23  H   UNL     1      38.619 -11.421   4.012  1.00  0.00     0.189 HD
HETATM   24  N   UNL     1      39.711 -13.095   3.616  1.00  0.00    -0.174 NA
HETATM   25  C   UNL     1      40.548 -13.794   4.398  1.00  0.00     0.089 A 
HETATM   26  C   UNL     1      40.599 -13.220   5.701  1.00  0.00     0.071 A 
BRANCH  25  27
HETATM   27  C   UNL     1      41.257 -14.979   3.905  1.00  0.00    -0.003 A 
HETATM   28  C   UNL     1      42.355 -15.493   4.617  1.00  0.00     0.050 A 
HETATM   29  C   UNL     1      43.050 -16.611   4.151  1.00  0.00     0.069 A 
HETATM   30  C   UNL     1      42.641 -17.226   2.967  1.00  0.00     0.037 A 
HETATM   31  C   UNL     1      41.550 -16.734   2.252  1.00  0.00     0.004 A 
HETATM   32  C   UNL     1      40.861 -15.613   2.719  1.00  0.00     0.014 A 
BRANCH  29  33
HETATM   33  O   UNL     1      44.135 -17.192   4.750  1.00  0.00    -0.356 OA
HETATM   34  C   UNL     1      44.404 -18.547   4.409  1.00  0.00     0.210 C 
ENDBRANCH  29  33
ENDBRANCH  25  27
ENDBRANCH   2  21
TORSDOF 10
ENDMDL
MODEL 4
REMARK VINA RESULT:      -7.9      7.329     11.127
REMARK  10 active torsions:
REMARK  status: ('A' for Active; 'I' for Inactive)
REMARK       I    between atoms: C_2  and  N_3 
REMARK    1  A    between atoms: N_3  and  C_4 
REMARK    2  A    between atoms: C_6  and  O_7 
REMARK    3  A    between atoms: O_7  and  C_8 
REMARK    4  A    between atoms: C_8  and  C_9 
REMARK    5  A    between atoms: C_9  and  C_10 
REMARK    6  A    between atoms: C_10  and  C_11 
REMARK    7  A    between atoms: C_11  and  N_12 
REMARK       I    between atoms: N_12  and  C_13 
REMARK    8  A    between atoms: C_13  and  C_14 
REMARK    9  A    between atoms: C_18  and  C_19 
REMARK   10  A    between atoms: C_21  and  O_22 
ROOT
HETATM    1  N   UNL     1      40.736 -14.038  -1.479  1.00  0.00    -0.345 N 
HETATM    2  C   UNL     1      39.993 -13.999  -0.326  1.00  0.00     0.270 C 
HETATM    3  O   UNL     1      39.021 -13.262  -0.193  1.00  0.00    -0.266 OA
HETATM    4  H   UNL     1      41.545 -14.635  -1.544  1.00  0.00     0.163 HD
ENDROOT
BRANCH   1   5
HETATM    5  C   UNL     1      40.412 -13.193  -2.597  1.00  0.00     0.217 C 
BRANCH   5   6
HETATM    6  C   UNL     1      40.863 -11.826  -2.332  1.00  0.00    -0.085 C 
BRANCH   6   7
HETATM    7  C   UNL     1      41.256 -10.606  -2.093  1.00  0.00    -0.078 C 
BRANCH   7   8
HETATM    8  C   UNL     1      41.713  -9.183  -1.813  1.00  0.00     0.269 C 
BRANCH   8   9
HETATM    9  O   UNL     1      42.349  -9.125  -0.539  1.00  0.00    -0.339 OA
BRANCH   9  10
HETATM   10  C   UNL     1      41.535  -9.326   0.547  1.00  0.00     0.072 A 
HETATM   11  C   UNL     1      41.649 -10.368   1.476  1.00  0.00     0.066 A 
HETATM   12  C   UNL     1      40.762 -10.469   2.553  1.00  0.00     0.037 A 
HETATM   13  C   UNL     1      39.748  -9.513   2.688  1.00  0.00     0.029 A 
HETATM   14  C   UNL     1      39.625  -8.474   1.764  1.00  0.00     0.005 A 
HETATM   15  C   UNL     1      40.517  -8.383   0.698  1.00  0.00     0.037 A 
BRANCH  12  16
HETATM   16  N   UNL     1      40.826 -11.486   3.532  1.00  0.00    -0.327 N 
HETATM   17  C   UNL     1      39.948 -12.540   3.711  1.00  0.00     0.218 C 
HETATM   18  C   UNL     1      40.343 -13.434   4.861  1.00  0.00     0.117 C 
HETATM   19  O   UNL     1      38.930 -12.771   3.067  1.00  0.00    -0.274 OA
HETATM   20  H   UNL     1      41.606 -11.429   4.174  1.00  0.00     0.169 HD
ENDBRANCH  12  16
ENDBRANCH   9  10
ENDBRANCH   8   9
ENDBRANCH   7   8
ENDBRANCH   6   7
ENDBRANCH   5   6
ENDBRANCH   1   5
BRANCH   2  21
HETATM   21  C   UNL     1      40.439 -14.875   0.722  1.00  0.00     0.120 A 
HETATM   22  N   UNL     1      39.571 -15.393   1.640  1.00  0.00    -0.272 N 
HETATM   23  H   UNL     1      38.568 -15.236   1.682  1.00  0.00     0.189 HD
HETATM   24  N   UNL     1      40.147 -16.168   2.570  1.00  0.00    -0.174 NA
HETATM   25  C   UNL     1      41.447 -16.190   2.234  1.00  0.00     0.089 A 
HETATM   26  C   UNL     1      41.670 -15.388   1.079  1.00  0.00     0.071 A 
BRANCH  25  27
HETATM   27  C   UNL     1      42.432 -16.948   3.012  1.00  0.00    -0.003 A 
HETATM   28  C   UNL     1      42.690 -16.606   4.351  1.00  0.00     0.050 A 
HETATM   29  C   UNL     1      43.638 -17.308   5.099  1.00  0.00     0.069 A 
HETATM   30  C   UNL     1      44.328 -18.366   4.508  1.00  0.00     0.037 A 
HETATM   31  C   UNL     1      44.080 -18.724   3.183  1.00  0.00     0.004 A 
HETATM   32  C   UNL     1      43.136 -18.017   2.437  1.00  0.00     0.014 A 
BRANCH  29  33
HETATM   33  O   UNL     1      43.979 -17.061   6.401  1.00  0.00    -0.356 OA
HETATM   34  C   UNL     1      43.001 -16.414   7.207  1.00  0.00     0.210 C 
ENDBRANCH  29  33
ENDBRANCH  25  27
ENDBRANCH   2  21
TORSDOF 10
ENDMDL
MODEL 5
REMARK VINA RESULT:      -7.7      7.823     12.813
REMARK  10 active torsions:
REMARK  status: ('A' for Active; 'I' for Inactive)
REMARK       I    between atoms: C_2  and  N_3 
REMARK    1  A    between atoms: N_3  and  C_4 
REMARK    2  A    between atoms: C_6  and  O_7 
REMARK    3  A    between atoms: O_7  and  C_8 
REMARK    4  A    between atoms: C_8  and  C_9 
REMARK    5  A    between atoms: C_9  and  C_10 
REMARK    6  A    between atoms: C_10  and  C_11 
REMARK    7  A    between atoms: C_11  and  N_12 
REMARK       I    between atoms: N_12  and  C_13 
REMARK    8  A    between atoms: C_13  and  C_14 
REMARK    9  A    between atoms: C_18  and  C_19 
REMARK   10  A    between atoms: C_21  and  O_22 
ROOT
HETATM    1  N   UNL     1      40.962 -13.406  -1.149  1.00  0.00    -0.345 N 
HETATM    2  C   UNL     1      40.131 -13.559  -0.068  1.00  0.00     0.270 C 
HETATM    3  O   UNL     1      39.117 -12.885   0.085  1.00  0.00    -0.266 OA
HETATM    4  H   UNL     1      41.802 -13.957  -1.228  1.00  0.00     0.163 HD
ENDROOT
BRANCH   1   5
HETATM    5  C   UNL     1      40.684 -12.425  -2.163  1.00  0.00     0.217 C 
BRANCH   5   6
HETATM    6  C   UNL     1      41.176 -11.116  -1.734  1.00  0.00    -0.085 C 
BRANCH   6   7
HETATM    7  C   UNL     1      41.608  -9.949  -1.343  1.00  0.00    -0.078 C 
BRANCH   7   8
HETATM    8  C   UNL     1      42.112  -8.589  -0.887  1.00  0.00     0.269 C 
BRANCH   8   9
HETATM    9  O   UNL     1      43.195  -8.174  -1.716  1.00  0.00    -0.339 OA
BRANCH   9  10
HETATM   10  C   UNL     1      42.878  -7.293  -2.718  1.00  0.00     0.072 A 
HETATM   11  C   UNL     1      42.924  -7.562  -4.092  1.00  0.00     0.066 A 
HETATM   12  C   UNL     1      42.569  -6.584  -5.027  1.00  0.00     0.037 A 
HETATM   13  C   UNL     1      42.170  -5.322  -4.570  1.00  0.00     0.029 A 
HETATM   14  C   UNL     1      42.126  -5.045  -3.203  1.00  0.00     0.005 A 
HETATM   15  C   UNL     1      42.479  -6.029  -2.282  1.00  0.00     0.037 A 
BRANCH  12  16
HETATM   16  N   UNL     1      42.581  -6.791  -6.424  1.00  0.00    -0.327 N 
HETATM   17  C   UNL     1      43.543  -6.378  -7.329  1.00  0.00     0.218 C 
HETATM   18  C   UNL     1      43.220  -6.787  -8.745  1.00  0.00     0.117 C 
HETATM   19  O   UNL     1      44.554  -5.727  -7.086  1.00  0.00    -0.274 OA
HETATM   20  H   UNL     1      41.791  -7.299  -6.800  1.00  0.00     0.169 HD
ENDBRANCH  12  16
ENDBRANCH   9  10
ENDBRANCH   8   9
ENDBRANCH   7   8
ENDBRANCH   6   7
ENDBRANCH   5   6
ENDBRANCH   1   5
BRANCH   2  21
HETATM   21  C   UNL     1      40.538 -14.556   0.883  1.00  0.00     0.120 A 
HETATM   22  N   UNL     1      39.667 -15.063   1.805  1.00  0.00    -0.272 N 
HETATM   23  H   UNL     1      38.688 -14.815   1.915  1.00  0.00     0.189 HD
HETATM   24  N   UNL     1      40.208 -15.962   2.640  1.00  0.00    -0.174 NA
HETATM   25  C   UNL     1      41.481 -16.080   2.232  1.00  0.00     0.089 A 
HETATM   26  C   UNL     1      41.728 -15.210   1.132  1.00  0.00     0.071 A 
BRANCH  25  27
HETATM   27  C   UNL     1      42.423 -16.989   2.893  1.00  0.00    -0.003 A 
HETATM   28  C   UNL     1      42.785 -16.778   4.236  1.00  0.00     0.050 A 
HETATM   29  C   UNL     1      43.693 -17.625   4.873  1.00  0.00     0.069 A 
HETATM   30  C   UNL     1      44.239 -18.699   4.168  1.00  0.00     0.037 A 
HETATM   31  C   UNL     1      43.885 -18.928   2.839  1.00  0.00     0.004 A 
HETATM   32  C   UNL     1      42.981 -18.075   2.203  1.00  0.00     0.014 A 
BRANCH  29  33
HETATM   33  O   UNL     1      44.126 -17.514   6.167  1.00  0.00    -0.356 OA
HETATM   34  C   UNL     1      44.077 -16.216   6.748  1.00  0.00     0.210 C 
ENDBRANCH  29  33
ENDBRANCH  25  27
ENDBRANCH   2  21
TORSDOF 10
ENDMDL
MODEL 6
REMARK VINA RESULT:      -7.6      5.812     11.062
REMARK  10 active torsions:
REMARK  status: ('A' for Active; 'I' for Inactive)
REMARK       I    between atoms: C_2  and  N_3 
REMARK    1  A    between atoms: N_3  and  C_4 
REMARK    2  A    between atoms: C_6  and  O_7 
REMARK    3  A    between atoms: O_7  and  C_8 
REMARK    4  A    between atoms: C_8  and  C_9 
REMARK    5  A    between atoms: C_9  and  C_10 
REMARK    6  A    between atoms: C_10  and  C_11 
REMARK    7  A    between atoms: C_11  and  N_12 
REMARK       I    between atoms: N_12  and  C_13 
REMARK    8  A    between atoms: C_13  and  C_14 
REMARK    9  A    between atoms: C_18  and  C_19 
REMARK   10  A    between atoms: C_21  and  O_22 
ROOT
HETATM    1  N   UNL     1      38.697 -12.673   1.032  1.00  0.00    -0.345 N 
HETATM    2  C   UNL     1      39.857 -13.270   0.611  1.00  0.00     0.270 C 
HETATM    3  O   UNL     1      40.464 -12.901  -0.390  1.00  0.00    -0.266 OA
HETATM    4  H   UNL     1      38.209 -13.022   1.843  1.00  0.00     0.163 HD
ENDROOT
BRANCH   1   5
HETATM    5  C   UNL     1      38.121 -11.577   0.301  1.00  0.00     0.217 C 
BRANCH   5   6
HETATM    6  C   UNL     1      38.057 -10.391   1.155  1.00  0.00    -0.085 C 
BRANCH   6   7
HETATM    7  C   UNL     1      38.006  -9.338   1.923  1.00  0.00    -0.078 C 
BRANCH   7   8
HETATM    8  C   UNL     1      37.948  -8.110   2.818  1.00  0.00     0.269 C 
BRANCH   8   9
HETATM    9  O   UNL     1      37.629  -8.501   4.151  1.00  0.00    -0.339 OA
BRANCH   9  10
HETATM   10  C   UNL     1      38.646  -9.082   4.864  1.00  0.00     0.072 A 
HETATM   11  C   UNL     1      38.718 -10.427   5.245  1.00  0.00     0.066 A 
HETATM   12  C   UNL     1      39.813 -10.911   5.968  1.00  0.00     0.037 A 
HETATM   13  C   UNL     1      40.842 -10.026   6.313  1.00  0.00     0.029 A 
HETATM   14  C   UNL     1      40.777  -8.683   5.940  1.00  0.00     0.005 A 
HETATM   15  C   UNL     1      39.681  -8.215   5.218  1.00  0.00     0.037 A 
BRANCH  12  16
HETATM   16  N   UNL     1      39.955 -12.257   6.374  1.00  0.00    -0.327 N 
HETATM   17  C   UNL     1      40.563 -13.288   5.680  1.00  0.00     0.218 C 
HETATM   18  C   UNL     1      40.530 -14.594   6.436  1.00  0.00     0.117 C 
HETATM   19  O   UNL     1      41.068 -13.229   4.564  1.00  0.00    -0.274 OA
HETATM   20  H   UNL     1      39.562 -12.486   7.278  1.00  0.00     0.169 HD
ENDBRANCH  12  16
ENDBRANCH   9  10
ENDBRANCH   8   9
ENDBRANCH   7   8
ENDBRANCH   6   7
ENDBRANCH   5   6
ENDBRANCH   1   5
BRANCH   2  21
HETATM   21  C   UNL     1      40.310 -14.370   1.417  1.00  0.00     0.120 A 
HETATM   22  N   UNL     1      39.481 -14.997   2.303  1.00  0.00    -0.272 N 
HETATM   23  H   UNL     1      38.505 -14.778   2.479  1.00  0.00     0.189 HD
HETATM   24  N   UNL     1      40.062 -15.984   3.001  1.00  0.00    -0.174 NA
HETATM   25  C   UNL     1      41.320 -16.033   2.534  1.00  0.00     0.089 A 
HETATM   26  C   UNL     1      41.515 -15.033   1.539  1.00  0.00     0.071 A 
BRANCH  25  27
HETATM   27  C   UNL     1      42.295 -17.003   3.043  1.00  0.00    -0.003 A 
HETATM   28  C   UNL     1      42.693 -16.962   4.392  1.00  0.00     0.050 A 
HETATM   29  C   UNL     1      43.633 -17.868   4.887  1.00  0.00     0.069 A 
HETATM   30  C   UNL     1      44.175 -18.828   4.032  1.00  0.00     0.037 A 
HETATM   31  C   UNL     1      43.786 -18.888   2.694  1.00  0.00     0.004 A 
HETATM   32  C   UNL     1      42.850 -17.976   2.201  1.00  0.00     0.014 A 
BRANCH  29  33
HETATM   33  O   UNL     1      44.103 -17.919   6.171  1.00  0.00    -0.356 OA
HETATM   34  C   UNL     1      43.487 -17.048   7.112  1.00  0.00     0.210 C 
ENDBRANCH  29  33
ENDBRANCH  25  27
ENDBRANCH   2  21
TORSDOF 10
ENDMDL
MODEL 7
REMARK VINA RESULT:      -7.6      1.673      1.985
REMARK  10 active torsions:
REMARK  status: ('A' for Active; 'I' for Inactive)
REMARK       I    between atoms: C_2  and  N_3 
REMARK    1  A    between atoms: N_3  and  C_4 
REMARK    2  A    between atoms: C_6  and  O_7 
REMARK    3  A    between atoms: O_7  and  C_8 
REMARK    4  A    between atoms: C_8  and  C_9 
REMARK    5  A    between atoms: C_9  and  C_10 
REMARK    6  A    between atoms: C_10  and  C_11 
REMARK    7  A    between atoms: C_11  and  N_12 
REMARK       I    between atoms: N_12  and  C_13 
REMARK    8  A    between atoms: C_13  and  C_14 
REMARK    9  A    between atoms: C_18  and  C_19 
REMARK   10  A    between atoms: C_21  and  O_22 
ROOT
HETATM    1  N   UNL     1      43.443 -11.010   8.030  1.00  0.00    -0.345 N 
HETATM    2  C   UNL     1      44.346 -10.758   9.031  1.00  0.00     0.270 C 
HETATM    3  O   UNL     1      45.554 -10.909   8.882  1.00  0.00    -0.266 OA
HETATM    4  H   UNL     1      42.454 -10.903   8.196  1.00  0.00     0.163 HD
ENDROOT
BRANCH   1   5
HETATM    5  C   UNL     1      43.877 -11.484   6.743  1.00  0.00     0.217 C 
BRANCH   5   6
HETATM    6  C   UNL     1      43.655 -12.927   6.645  1.00  0.00    -0.085 C 
BRANCH   6   7
HETATM    7  C   UNL     1      43.451 -14.211   6.550  1.00  0.00    -0.078 C 
BRANCH   7   8
HETATM    8  C   UNL     1      43.214 -15.709   6.438  1.00  0.00     0.269 C 
BRANCH   8   9
HETATM    9  O   UNL     1      41.858 -15.954   6.071  1.00  0.00    -0.339 OA
BRANCH   9  10
HETATM   10  C   UNL     1      41.580 -15.889   4.729  1.00  0.00     0.072 A 
HETATM   11  C   UNL     1      40.734 -14.960   4.111  1.00  0.00     0.066 A 
HETATM   12  C   UNL     1      40.531 -14.985   2.727  1.00  0.00     0.037 A 
HETATM   13  C   UNL     1      41.183 -15.960   1.963  1.00  0.00     0.029 A 
HETATM   14  C   UNL     1      42.025 -16.892   2.572  1.00  0.00     0.005 A 
HETATM   15  C   UNL     1      42.221 -16.854   3.951  1.00  0.00     0.037 A 
BRANCH  12  16
HETATM   16  N   UNL     1      39.701 -14.072   2.038  1.00  0.00    -0.327 N 
HETATM   17  C   UNL     1      40.092 -13.050   1.192  1.00  0.00     0.218 C 
HETATM   18  C   UNL     1      38.921 -12.283   0.629  1.00  0.00     0.117 C 
HETATM   19  O   UNL     1      41.240 -12.727   0.906  1.00  0.00    -0.274 OA
HETATM   20  H   UNL     1      38.706 -14.185   2.187  1.00  0.00     0.169 HD
ENDBRANCH  12  16
ENDBRANCH   9  10
ENDBRANCH   8   9
ENDBRANCH   7   8
ENDBRANCH   6   7
ENDBRANCH   5   6
ENDBRANCH   1   5
BRANCH   2  21
HETATM   21  C   UNL     1      43.777 -10.314  10.274  1.00  0.00     0.120 A 
HETATM   22  N   UNL     1      43.470 -11.193  11.274  1.00  0.00    -0.272 N 
HETATM   23  H   UNL     1      43.606 -12.199  11.260  1.00  0.00     0.189 HD
HETATM   24  N   UNL     1      42.919 -10.626  12.357  1.00  0.00    -0.174 NA
HETATM   25  C   UNL     1      42.891  -9.314  12.075  1.00  0.00     0.089 A 
HETATM   26  C   UNL     1      43.419  -9.079  10.774  1.00  0.00     0.071 A 
BRANCH  25  27
HETATM   27  C   UNL     1      42.359  -8.331  13.025  1.00  0.00    -0.003 A 
HETATM   28  C   UNL     1      40.973  -8.114  13.115  1.00  0.00     0.050 A 
HETATM   29  C   UNL     1      40.453  -7.169  14.003  1.00  0.00     0.069 A 
HETATM   30  C   UNL     1      41.324  -6.442  14.815  1.00  0.00     0.037 A 
HETATM   31  C   UNL     1      42.701  -6.650  14.744  1.00  0.00     0.004 A 
HETATM   32  C   UNL     1      43.217  -7.591  13.851  1.00  0.00     0.014 A 
BRANCH  29  33
HETATM   33  O   UNL     1      39.130  -6.865  14.171  1.00  0.00    -0.356 OA
HETATM   34  C   UNL     1      38.827  -5.787  15.047  1.00  0.00     0.210 C 
ENDBRANCH  29  33
ENDBRANCH  25  27
ENDBRANCH   2  21
TORSDOF 10
ENDMDL
MODEL 8
REMARK VINA RESULT:      -7.6      2.707     12.419
REMARK  10 active torsions:
REMARK  status: ('A' for Active; 'I' for Inactive)
REMARK       I    between atoms: C_2  and  N_3 
REMARK    1  A    between atoms: N_3  and  C_4 
REMARK    2  A    between atoms: C_6  and  O_7 
REMARK    3  A    between atoms: O_7  and  C_8 
REMARK    4  A    between atoms: C_8  and  C_9 
REMARK    5  A    between atoms: C_9  and  C_10 
REMARK    6  A    between atoms: C_10  and  C_11 
REMARK    7  A    between atoms: C_11  and  N_12 
REMARK       I    between atoms: N_12  and  C_13 
REMARK    8  A    between atoms: C_13  and  C_14 
REMARK    9  A    between atoms: C_18  and  C_19 
REMARK   10  A    between atoms: C_21  and  O_22 
ROOT
HETATM    1  N   UNL     1      40.653 -11.036   5.886  1.00  0.00    -0.345 N 
HETATM    2  C   UNL     1      41.888 -11.629   5.811  1.00  0.00     0.270 C 
HETATM    3  O   UNL     1      42.929 -11.012   6.009  1.00  0.00    -0.266 OA
HETATM    4  H   UNL     1      39.819 -11.567   5.689  1.00  0.00     0.163 HD
ENDROOT
BRANCH   1   5
HETATM    5  C   UNL     1      40.522  -9.636   6.191  1.00  0.00     0.217 C 
BRANCH   5   6
HETATM    6  C   UNL     1      40.218  -9.466   7.612  1.00  0.00    -0.085 C 
BRANCH   6   7
HETATM    7  C   UNL     1      39.953  -9.321   8.881  1.00  0.00    -0.078 C 
BRANCH   7   8
HETATM    8  C   UNL     1      39.646  -9.151  10.360  1.00  0.00     0.269 C 
BRANCH   8   9
HETATM    9  O   UNL     1      40.543  -9.947  11.131  1.00  0.00    -0.339 OA
BRANCH   9  10
HETATM   10  C   UNL     1      41.217  -9.292  12.130  1.00  0.00     0.072 A 
HETATM   11  C   UNL     1      40.859  -9.269  13.484  1.00  0.00     0.066 A 
HETATM   12  C   UNL     1      41.630  -8.571  14.419  1.00  0.00     0.037 A 
HETATM   13  C   UNL     1      42.770  -7.885  13.980  1.00  0.00     0.029 A 
HETATM   14  C   UNL     1      43.131  -7.900  12.632  1.00  0.00     0.005 A 
HETATM   15  C   UNL     1      42.356  -8.602  11.712  1.00  0.00     0.037 A 
BRANCH  12  16
HETATM   16  N   UNL     1      41.334  -8.515  15.799  1.00  0.00    -0.327 N 
HETATM   17  C   UNL     1      40.708  -7.490  16.486  1.00  0.00     0.218 C 
HETATM   18  C   UNL     1      40.555  -7.788  17.958  1.00  0.00     0.117 C 
HETATM   19  O   UNL     1      40.319  -6.422  16.025  1.00  0.00    -0.274 OA
HETATM   20  H   UNL     1      41.617  -9.321  16.342  1.00  0.00     0.169 HD
ENDBRANCH  12  16
ENDBRANCH   9  10
ENDBRANCH   8   9
ENDBRANCH   7   8
ENDBRANCH   6   7
ENDBRANCH   5   6
ENDBRANCH   1   5
BRANCH   2  21
HETATM   21  C   UNL     1      41.878 -13.026   5.473  1.00  0.00     0.120 A 
HETATM   22  N   UNL     1      40.918 -13.871   5.951  1.00  0.00    -0.272 N 
HETATM   23  H   UNL     1      40.141 -13.626   6.558  1.00  0.00     0.189 HD
HETATM   24  N   UNL     1      41.066 -15.148   5.568  1.00  0.00    -0.174 NA
HETATM   25  C   UNL     1      42.151 -15.141   4.777  1.00  0.00     0.089 A 
HETATM   26  C   UNL     1      42.691 -13.826   4.695  1.00  0.00     0.071 A 
BRANCH  25  27
HETATM   27  C   UNL     1      42.649 -16.364   4.140  1.00  0.00    -0.003 A 
HETATM   28  C   UNL     1      43.364 -17.312   4.893  1.00  0.00     0.050 A 
HETATM   29  C   UNL     1      43.860 -18.473   4.296  1.00  0.00     0.069 A 
HETATM   30  C   UNL     1      43.633 -18.694   2.937  1.00  0.00     0.037 A 
HETATM   31  C   UNL     1      42.920 -17.768   2.177  1.00  0.00     0.004 A 
HETATM   32  C   UNL     1      42.431 -16.605   2.776  1.00  0.00     0.014 A 
BRANCH  29  33
HETATM   33  O   UNL     1      44.574 -19.458   4.922  1.00  0.00    -0.356 OA
HETATM   34  C   UNL     1      44.091 -20.788   4.778  1.00  0.00     0.210 C 
ENDBRANCH  29  33
ENDBRANCH  25  27
ENDBRANCH   2  21
TORSDOF 10
ENDMDL
MODEL 9
REMARK VINA RESULT:      -7.6      2.162      3.154
REMARK  10 active torsions:
REMARK  status: ('A' for Active; 'I' for Inactive)
REMARK       I    between atoms: C_2  and  N_3 
REMARK    1  A    between atoms: N_3  and  C_4 
REMARK    2  A    between atoms: C_6  and  O_7 
REMARK    3  A    between atoms: O_7  and  C_8 
REMARK    4  A    between atoms: C_8  and  C_9 
REMARK    5  A    between atoms: C_9  and  C_10 
REMARK    6  A    between atoms: C_10  and  C_11 
REMARK    7  A    between atoms: C_11  and  N_12 
REMARK       I    between atoms: N_12  and  C_13 
REMARK    8  A    between atoms: C_13  and  C_14 
REMARK    9  A    between atoms: C_18  and  C_19 
REMARK   10  A    between atoms: C_21  and  O_22 
ROOT
HETATM    1  N   UNL     1      44.859 -10.554   8.522  1.00  0.00    -0.345 N 
HETATM    2  C   UNL     1      44.550  -9.280   8.924  1.00  0.00     0.270 C 
HETATM    3  O   UNL     1      45.018  -8.285   8.380  1.00  0.00    -0.266 OA
HETATM    4  H   UNL     1      44.478 -11.350   9.010  1.00  0.00     0.163 HD
ENDROOT
BRANCH   1   5
HETATM    5  C   UNL     1      45.771 -10.786   7.434  1.00  0.00     0.217 C 
BRANCH   5   6
HETATM    6  C   UNL     1      45.028 -11.202   6.244  1.00  0.00    -0.085 C 
BRANCH   6   7
HETATM    7  C   UNL     1      44.358 -11.574   5.189  1.00  0.00    -0.078 C 
BRANCH   7   8
HETATM    8  C   UNL     1      43.575 -12.007   3.960  1.00  0.00     0.269 C 
BRANCH   8   9
HETATM    9  O   UNL     1      42.334 -12.584   4.358  1.00  0.00    -0.339 OA
BRANCH   9  10
HETATM   10  C   UNL     1      42.401 -13.861   4.856  1.00  0.00     0.072 A 
HETATM   11  C   UNL     1      42.956 -14.969   4.203  1.00  0.00     0.066 A 
HETATM   12  C   UNL     1      42.976 -16.226   4.814  1.00  0.00     0.037 A 
HETATM   13  C   UNL     1      42.423 -16.368   6.093  1.00  0.00     0.029 A 
HETATM   14  C   UNL     1      41.864 -15.270   6.749  1.00  0.00     0.005 A 
HETATM   15  C   UNL     1      41.854 -14.021   6.130  1.00  0.00     0.037 A 
BRANCH  12  16
HETATM   16  N   UNL     1      43.529 -17.382   4.219  1.00  0.00    -0.327 N 
HETATM   17  C   UNL     1      43.138 -17.993   3.041  1.00  0.00     0.218 C 
HETATM   18  C   UNL     1      43.970 -19.210   2.715  1.00  0.00     0.117 C 
HETATM   19  O   UNL     1      42.214 -17.659   2.307  1.00  0.00    -0.274 OA
HETATM   20  H   UNL     1      44.299 -17.807   4.719  1.00  0.00     0.169 HD
ENDBRANCH  12  16
ENDBRANCH   9  10
ENDBRANCH   8   9
ENDBRANCH   7   8
ENDBRANCH   6   7
ENDBRANCH   5   6
ENDBRANCH   1   5
BRANCH   2  21
HETATM   21  C   UNL     1      43.646  -9.190  10.038  1.00  0.00     0.120 A 
HETATM   22  N   UNL     1      42.695 -10.143  10.267  1.00  0.00    -0.272 N 
HETATM   23  H   UNL     1      42.530 -10.980   9.715  1.00  0.00     0.189 HD
HETATM   24  N   UNL     1      41.912  -9.899  11.328  1.00  0.00    -0.174 NA
HETATM   25  C   UNL     1      42.387  -8.753  11.842  1.00  0.00     0.089 A 
HETATM   26  C   UNL     1      43.475  -8.275  11.057  1.00  0.00     0.071 A 
BRANCH  25  27
HETATM   27  C   UNL     1      41.797  -8.140  13.036  1.00  0.00    -0.003 A 
HETATM   28  C   UNL     1      40.504  -7.589  12.983  1.00  0.00     0.050 A 
HETATM   29  C   UNL     1      39.937  -6.987  14.108  1.00  0.00     0.069 A 
HETATM   30  C   UNL     1      40.662  -6.943  15.300  1.00  0.00     0.037 A 
HETATM   31  C   UNL     1      41.941  -7.492  15.372  1.00  0.00     0.004 A 
HETATM   32  C   UNL     1      42.508  -8.087  14.244  1.00  0.00     0.014 A 
BRANCH  29  33
HETATM   33  O   UNL     1      38.697  -6.411  14.174  1.00  0.00    -0.356 OA
HETATM   34  C   UNL     1      37.762  -6.792  13.172  1.00  0.00     0.210 C 
ENDBRANCH  29  33
ENDBRANCH  25  27
ENDBRANCH   2  21
TORSDOF 10
ENDMDL
MODEL 10
REMARK VINA RESULT:      -7.6      2.714     10.283
REMARK  10 active torsions:
REMARK  status: ('A' for Active; 'I' for Inactive)
REMARK       I    between atoms: C_2  and  N_3 
REMARK    1  A    between atoms: N_3  and  C_4 
REMARK    2  A    between atoms: C_6  and  O_7 
REMARK    3  A    between atoms: O_7  and  C_8 
REMARK    4  A    between atoms: C_8  and  C_9 
REMARK    5  A    between atoms: C_9  and  C_10 
REMARK    6  A    between atoms: C_10  and  C_11 
REMARK    7  A    between atoms: C_11  and  N_12 
REMARK       I    between atoms: N_12  and  C_13 
REMARK    8  A    between atoms: C_13  and  C_14 
REMARK    9  A    between atoms: C_18  and  C_19 
REMARK   10  A    between atoms: C_21  and  O_22 
ROOT
HETATM    1  N   UNL     1      43.925  -9.565   7.940  1.00  0.00    -0.345 N 
HETATM    2  C   UNL     1      44.490 -10.814   7.988  1.00  0.00     0.270 C 
HETATM    3  O   UNL     1      45.479 -11.065   8.669  1.00  0.00    -0.266 OA
HETATM    4  H   UNL     1      43.130  -9.387   7.347  1.00  0.00     0.163 HD
ENDROOT
BRANCH   1   5
HETATM    5  C   UNL     1      44.484  -8.471   8.688  1.00  0.00     0.217 C 
BRANCH   5   6
HETATM    6  C   UNL     1      43.992  -8.510  10.065  1.00  0.00    -0.085 C 
BRANCH   6   7
HETATM    7  C   UNL     1      43.550  -8.536  11.292  1.00  0.00    -0.078 C 
BRANCH   7   8
HETATM    8  C   UNL     1      43.033  -8.565  12.722  1.00  0.00     0.269 C 
BRANCH   8   9
HETATM    9  O   UNL     1      41.864  -9.376  12.794  1.00  0.00    -0.339 OA
BRANCH   9  10
HETATM   10  C   UNL     1      40.857  -9.055  11.920  1.00  0.00     0.072 A 
HETATM   11  C   UNL     1      40.492  -9.787  10.784  1.00  0.00     0.066 A 
HETATM   12  C   UNL     1      39.438  -9.366   9.966  1.00  0.00     0.037 A 
HETATM   13  C   UNL     1      38.752  -8.190  10.296  1.00  0.00     0.029 A 
HETATM   14  C   UNL     1      39.112  -7.453  11.425  1.00  0.00     0.005 A 
HETATM   15  C   UNL     1      40.162  -7.886  12.233  1.00  0.00     0.037 A 
BRANCH  12  16
HETATM   16  N   UNL     1      39.011 -10.061   8.813  1.00  0.00    -0.327 N 
HETATM   17  C   UNL     1      39.629 -10.104   7.576  1.00  0.00     0.218 C 
HETATM   18  C   UNL     1      38.881 -10.959   6.583  1.00  0.00     0.117 C 
HETATM   19  O   UNL     1      40.654  -9.518   7.243  1.00  0.00    -0.274 OA
HETATM   20  H   UNL     1      38.150 -10.585   8.910  1.00  0.00     0.169 HD
ENDBRANCH  12  16
ENDBRANCH   9  10
ENDBRANCH   8   9
ENDBRANCH   7   8
ENDBRANCH   6   7
ENDBRANCH   5   6
ENDBRANCH   1   5
BRANCH   2  21
HETATM   21  C   UNL     1      43.849 -11.810   7.173  1.00  0.00     0.120 A 
HETATM   22  N   UNL     1      42.555 -11.670   6.759  1.00  0.00    -0.272 N 
HETATM   23  H   UNL     1      41.934 -10.891   6.959  1.00  0.00     0.189 HD
HETATM   24  N   UNL     1      42.093 -12.698   6.032  1.00  0.00    -0.174 NA
HETATM   25  C   UNL     1      43.136 -13.538   5.933  1.00  0.00     0.089 A 
HETATM   26  C   UNL     1      44.257 -13.016   6.640  1.00  0.00     0.071 A 
BRANCH  25  27
HETATM   27  C   UNL     1      43.043 -14.802   5.195  1.00  0.00    -0.003 A 
HETATM   28  C   UNL     1      43.661 -15.961   5.698  1.00  0.00     0.050 A 
HETATM   29  C   UNL     1      43.594 -17.167   4.998  1.00  0.00     0.069 A 
HETATM   30  C   UNL     1      42.897 -17.220   3.790  1.00  0.00     0.037 A 
HETATM   31  C   UNL     1      42.272 -16.082   3.281  1.00  0.00     0.004 A 
HETATM   32  C   UNL     1      42.346 -14.876   3.981  1.00  0.00     0.014 A 
BRANCH  29  33
HETATM   33  O   UNL     1      44.162 -18.352   5.381  1.00  0.00    -0.356 OA
HETATM   34  C   UNL     1      44.264 -19.363   4.385  1.00  0.00     0.210 C 
ENDBRANCH  29  33
ENDBRANCH  25  27
ENDBRANCH   2  21
TORSDOF 10
ENDMDL
