MODEL 1
REMARK VINA RESULT:      -8.5      0.000      0.000
REMARK  7 active torsions:
REMARK  status: ('A' for Active; 'I' for Inactive)
REMARK    1  A    between atoms: O_2  and  C_3 
REMARK    2  A    between atoms: C_7  and  C_8 
REMARK    3  A    between atoms: C_8  and  C_9 
REMARK       I    between atoms: C_9  and  N_10 
REMARK    4  A    between atoms: N_10  and  C_11 
REMARK    5  A    between atoms: C_11  and  C_12 
REMARK    6  A    between atoms: C_12  and  N_13 
REMARK    7  A    between atoms: C_12  and  C_19 
ROOT
HETATM    1  C   UNL     1      42.253 -12.386   2.590  1.00  0.00     0.222 C 
HETATM    2  N   UNL     1      43.353 -13.193   2.368  1.00  0.00    -0.358 N 
HETATM    3  O   UNL     1      41.117 -12.845   2.490  1.00  0.00    -0.273 OA
HETATM    4  H   UNL     1      44.251 -12.831   2.666  1.00  0.00     0.162 HD
ENDROOT
BRANCH   2   5
HETATM    5  C   UNL     1      43.231 -14.640   2.331  1.00  0.00     0.160 C 
BRANCH   5   6
HETATM    6  C   UNL     1      43.151 -15.410   3.694  1.00  0.00     0.240 C 
BRANCH   6   7
HETATM    7  N   UNL     1      41.838 -15.151   4.454  1.00  0.00    -0.061 N 
HETATM    8  H   UNL     1      41.315 -14.526   3.826  1.00  0.00     0.280 HD
HETATM    9  C   UNL     1      41.924 -14.439   5.779  1.00  0.00     0.236 C 
HETATM   10  C   UNL     1      41.444 -15.465   6.784  1.00  0.00     0.029 C 
HETATM   11  C   UNL     1      40.363 -16.209   6.025  1.00  0.00     0.029 C 
HETATM   12  C   UNL     1      40.925 -16.349   4.622  1.00  0.00     0.236 C 
ENDBRANCH   6   7
BRANCH   6  13
HETATM   13  C   UNL     1      43.387 -16.918   3.551  1.00  0.00    -0.004 A 
HETATM   14  C   UNL     1      44.063 -17.640   4.559  1.00  0.00     0.042 A 
HETATM   15 CL   UNL     1      44.595 -16.874   6.016  1.00  0.00    -0.084 Cl
HETATM   16  C   UNL     1      44.293 -19.013   4.440  1.00  0.00     0.024 A 
HETATM   17  C   UNL     1      43.846 -19.702   3.316  1.00  0.00     0.002 A 
HETATM   18  C   UNL     1      43.165 -19.020   2.316  1.00  0.00     0.001 A 
HETATM   19  C   UNL     1      42.933 -17.646   2.432  1.00  0.00     0.011 A 
ENDBRANCH   6  13
ENDBRANCH   5   6
ENDBRANCH   2   5
BRANCH   1  20
HETATM   20  C   UNL     1      42.517 -10.931   2.989  1.00  0.00     0.144 C 
BRANCH  20  21
HETATM   21  C   UNL     1      42.363 -10.677   4.452  1.00  0.00    -0.014 A 
HETATM   22  C   UNL     1      43.314 -10.948   5.486  1.00  0.00     0.006 A 
HETATM   23  C   UNL     1      42.781 -10.414   6.651  1.00  0.00     0.088 A 
HETATM   24  C   UNL     1      44.592 -11.533   5.543  1.00  0.00     0.017 A 
HETATM   25  C   UNL     1      43.440 -10.381   7.880  1.00  0.00     0.074 A 
HETATM   26  O   UNL     1      41.541  -9.907   6.407  1.00  0.00    -0.321 OA
HETATM   27  C   UNL     1      44.731 -10.918   7.906  1.00  0.00     0.070 A 
HETATM   28  C   UNL     1      45.285 -11.500   6.760  1.00  0.00     0.038 A 
HETATM   29  C   UNL     1      41.284 -10.092   5.087  1.00  0.00     0.151 A 
BRANCH  27  30
HETATM   30  O   UNL     1      45.563 -10.931   8.995  1.00  0.00    -0.356 OA
HETATM   31  C   UNL     1      45.192 -10.118  10.102  1.00  0.00     0.210 C 
ENDBRANCH  27  30
ENDBRANCH  20  21
ENDBRANCH   1  20
TORSDOF 7
ENDMDL
MODEL 2
REMARK VINA RESULT:      -8.2      1.749      3.460
REMARK  7 active torsions:
REMARK  status: ('A' for Active; 'I' for Inactive)
REMARK    1  A    between atoms: O_2  and  C_3 
REMARK    2  A    between atoms: C_7  and  C_8 
REMARK    3  A    between atoms: C_8  and  C_9 
REMARK       I    between atoms: C_9  and  N_10 
REMARK    4  A    between atoms: N_10  and  C_11 
REMARK    5  A    between atoms: C_11  and  C_12 
REMARK    6  A    between atoms: C_12  and  N_13 
REMARK    7  A    between atoms: C_12  and  C_19 
ROOT
HETATM    1  C   UNL     1      42.618 -14.159   2.454  1.00  0.00     0.222 C 
HETATM    2  N   UNL     1      43.460 -15.251   2.542  1.00  0.00    -0.358 N 
HETATM    3  O   UNL     1      41.453 -14.301   2.085  1.00  0.00    -0.273 OA
HETATM    4  H   UNL     1      44.329 -15.117   3.046  1.00  0.00     0.162 HD
ENDROOT
BRANCH   2   5
HETATM    5  C   UNL     1      42.939 -16.607   2.523  1.00  0.00     0.160 C 
BRANCH   5   6
HETATM    6  C   UNL     1      42.885 -17.399   3.874  1.00  0.00     0.240 C 
BRANCH   6   7
HETATM    7  N   UNL     1      43.956 -18.499   3.969  1.00  0.00    -0.061 N 
HETATM    8  H   UNL     1      44.838 -17.972   4.028  1.00  0.00     0.280 HD
HETATM    9  C   UNL     1      44.104 -19.437   2.799  1.00  0.00     0.236 C 
HETATM   10  C   UNL     1      43.717 -20.790   3.357  1.00  0.00     0.029 C 
HETATM   11  C   UNL     1      44.248 -20.741   4.776  1.00  0.00     0.029 C 
HETATM   12  C   UNL     1      43.940 -19.329   5.237  1.00  0.00     0.236 C 
ENDBRANCH   6   7
BRANCH   6  13
HETATM   13  C   UNL     1      42.952 -16.492   5.109  1.00  0.00    -0.004 A 
HETATM   14  C   UNL     1      41.771 -15.994   5.702  1.00  0.00     0.042 A 
HETATM   15 CL   UNL     1      40.208 -16.431   5.105  1.00  0.00    -0.084 Cl
HETATM   16  C   UNL     1      41.816 -15.161   6.823  1.00  0.00     0.024 A 
HETATM   17  C   UNL     1      43.040 -14.811   7.386  1.00  0.00     0.002 A 
HETATM   18  C   UNL     1      44.217 -15.299   6.832  1.00  0.00     0.001 A 
HETATM   19  C   UNL     1      44.176 -16.133   5.711  1.00  0.00     0.011 A 
ENDBRANCH   6  13
ENDBRANCH   5   6
ENDBRANCH   2   5
BRANCH   1  20
HETATM   20  C   UNL     1      43.188 -12.797   2.860  1.00  0.00     0.144 C 
BRANCH  20  21
HETATM   21  C   UNL     1      42.745 -12.344   4.212  1.00  0.00    -0.014 A 
HETATM   22  C   UNL     1      43.572 -11.909   5.296  1.00  0.00     0.006 A 
HETATM   23  C   UNL     1      42.707 -11.458   6.283  1.00  0.00     0.088 A 
HETATM   24  C   UNL     1      44.956 -11.794   5.517  1.00  0.00     0.017 A 
HETATM   25  C   UNL     1      43.111 -10.859   7.477  1.00  0.00     0.074 A 
HETATM   26  O   UNL     1      41.416 -11.660   5.901  1.00  0.00    -0.321 OA
HETATM   27  C   UNL     1      44.490 -10.704   7.656  1.00  0.00     0.070 A 
HETATM   28  C   UNL     1      45.393 -11.182   6.699  1.00  0.00     0.038 A 
HETATM   29  C   UNL     1      41.446 -12.218   4.664  1.00  0.00     0.151 A 
BRANCH  27  30
HETATM   30  O   UNL     1      45.086 -10.093   8.728  1.00  0.00    -0.356 OA
HETATM   31  C   UNL     1      45.771  -8.872   8.477  1.00  0.00     0.210 C 
ENDBRANCH  27  30
ENDBRANCH  20  21
ENDBRANCH   1  20
TORSDOF 7
ENDMDL
MODEL 3
REMARK VINA RESULT:      -8.2      3.587      6.470
REMARK  7 active torsions:
REMARK  status: ('A' for Active; 'I' for Inactive)
REMARK    1  A    between atoms: O_2  and  C_3 
REMARK    2  A    between atoms: C_7  and  C_8 
REMARK    3  A    between atoms: C_8  and  C_9 
REMARK       I    between atoms: C_9  and  N_10 
REMARK    4  A    between atoms: N_10  and  C_11 
REMARK    5  A    between atoms: C_11  and  C_12 
REMARK    6  A    between atoms: C_12  and  N_13 
REMARK    7  A    between atoms: C_12  and  C_19 
ROOT
HETATM    1  C   UNL     1      42.351 -10.870   3.128  1.00  0.00     0.222 C 
HETATM    2  N   UNL     1      42.197 -11.056   1.768  1.00  0.00    -0.358 N 
HETATM    3  O   UNL     1      41.618 -10.089   3.734  1.00  0.00    -0.273 OA
HETATM    4  H   UNL     1      42.673 -11.853   1.360  1.00  0.00     0.162 HD
ENDROOT
BRANCH   2   5
HETATM    5  C   UNL     1      41.000 -10.609   1.077  1.00  0.00     0.160 C 
BRANCH   5   6
HETATM    6  C   UNL     1      39.644 -11.323   1.408  1.00  0.00     0.240 C 
BRANCH   6   7
HETATM    7  N   UNL     1      38.473 -10.817   0.550  1.00  0.00    -0.061 N 
HETATM    8  H   UNL     1      38.600 -11.307  -0.346  1.00  0.00     0.280 HD
HETATM    9  C   UNL     1      38.428  -9.347   0.220  1.00  0.00     0.236 C 
HETATM   10  C   UNL     1      37.176  -8.849   0.910  1.00  0.00     0.029 C 
HETATM   11  C   UNL     1      36.220 -10.017   0.769  1.00  0.00     0.029 C 
HETATM   12  C   UNL     1      37.090 -11.238   1.004  1.00  0.00     0.236 C 
ENDBRANCH   6   7
BRANCH   6  13
HETATM   13  C   UNL     1      39.731 -12.852   1.330  1.00  0.00    -0.004 A 
HETATM   14  C   UNL     1      39.616 -13.641   2.495  1.00  0.00     0.042 A 
HETATM   15 CL   UNL     1      39.314 -12.928   4.042  1.00  0.00    -0.084 Cl
HETATM   16  C   UNL     1      39.701 -15.035   2.441  1.00  0.00     0.024 A 
HETATM   17  C   UNL     1      39.892 -15.677   1.220  1.00  0.00     0.002 A 
HETATM   18  C   UNL     1      39.994 -14.926   0.056  1.00  0.00     0.001 A 
HETATM   19  C   UNL     1      39.909 -13.532   0.107  1.00  0.00     0.011 A 
ENDBRANCH   6  13
ENDBRANCH   5   6
ENDBRANCH   2   5
BRANCH   1  20
HETATM   20  C   UNL     1      43.436 -11.689   3.832  1.00  0.00     0.144 C 
BRANCH  20  21
HETATM   21  C   UNL     1      42.990 -13.061   4.219  1.00  0.00    -0.014 A 
HETATM   22  C   UNL     1      43.025 -14.244   3.415  1.00  0.00     0.006 A 
HETATM   23  C   UNL     1      42.644 -15.287   4.248  1.00  0.00     0.088 A 
HETATM   24  C   UNL     1      43.396 -14.546   2.093  1.00  0.00     0.017 A 
HETATM   25  C   UNL     1      42.637 -16.632   3.878  1.00  0.00     0.074 A 
HETATM   26  O   UNL     1      42.310 -14.805   5.476  1.00  0.00    -0.321 OA
HETATM   27  C   UNL     1      43.061 -16.921   2.577  1.00  0.00     0.070 A 
HETATM   28  C   UNL     1      43.415 -15.890   1.697  1.00  0.00     0.038 A 
HETATM   29  C   UNL     1      42.495 -13.461   5.445  1.00  0.00     0.151 A 
BRANCH  27  30
HETATM   30  O   UNL     1      43.179 -18.176   2.041  1.00  0.00    -0.356 OA
HETATM   31  C   UNL     1      43.867 -19.148   2.818  1.00  0.00     0.210 C 
ENDBRANCH  27  30
ENDBRANCH  20  21
ENDBRANCH   1  20
TORSDOF 7
ENDMDL
MODEL 4
REMARK VINA RESULT:      -8.1      3.145      5.205
REMARK  7 active torsions:
REMARK  status: ('A' for Active; 'I' for Inactive)
REMARK    1  A    between atoms: O_2  and  C_3 
REMARK    2  A    between atoms: C_7  and  C_8 
REMARK    3  A    between atoms: C_8  and  C_9 
REMARK       I    between atoms: C_9  and  N_10 
REMARK    4  A    between atoms: N_10  and  C_11 
REMARK    5  A    between atoms: C_11  and  C_12 
REMARK    6  A    between atoms: C_12  and  N_13 
REMARK    7  A    between atoms: C_12  and  C_19 
ROOT
HETATM    1  C   UNL     1      41.643 -10.799   3.796  1.00  0.00     0.222 C 
HETATM    2  N   UNL     1      42.283 -11.647   2.913  1.00  0.00    -0.358 N 
HETATM    3  O   UNL     1      40.953  -9.871   3.377  1.00  0.00    -0.273 OA
HETATM    4  H   UNL     1      42.657 -12.507   3.297  1.00  0.00     0.162 HD
ENDROOT
BRANCH   2   5
HETATM    5  C   UNL     1      41.920 -11.684   1.507  1.00  0.00     0.160 C 
BRANCH   5   6
HETATM    6  C   UNL     1      41.145 -12.938   0.975  1.00  0.00     0.240 C 
BRANCH   6   7
HETATM    7  N   UNL     1      41.204 -13.078  -0.555  1.00  0.00    -0.061 N 
HETATM    8  H   UNL     1      42.118 -13.520  -0.722  1.00  0.00     0.280 HD
HETATM    9  C   UNL     1      41.194 -11.813  -1.376  1.00  0.00     0.236 C 
HETATM   10  C   UNL     1      39.899 -11.886  -2.155  1.00  0.00     0.029 C 
HETATM   11  C   UNL     1      39.759 -13.366  -2.451  1.00  0.00     0.029 C 
HETATM   12  C   UNL     1      40.211 -14.043  -1.170  1.00  0.00     0.236 C 
ENDBRANCH   6   7
BRANCH   6  13
HETATM   13  C   UNL     1      41.586 -14.248   1.640  1.00  0.00    -0.004 A 
HETATM   14  C   UNL     1      40.733 -14.923   2.539  1.00  0.00     0.042 A 
HETATM   15 CL   UNL     1      39.140 -14.342   2.881  1.00  0.00    -0.084 Cl
HETATM   16  C   UNL     1      41.124 -16.114   3.157  1.00  0.00     0.024 A 
HETATM   17  C   UNL     1      42.374 -16.665   2.888  1.00  0.00     0.002 A 
HETATM   18  C   UNL     1      43.228 -16.029   1.996  1.00  0.00     0.001 A 
HETATM   19  C   UNL     1      42.840 -14.838   1.375  1.00  0.00     0.011 A 
ENDBRANCH   6  13
ENDBRANCH   5   6
ENDBRANCH   2   5
BRANCH   1  20
HETATM   20  C   UNL     1      41.809 -11.085   5.291  1.00  0.00     0.144 C 
BRANCH  20  21
HETATM   21  C   UNL     1      41.249 -12.405   5.711  1.00  0.00    -0.014 A 
HETATM   22  C   UNL     1      41.961 -13.634   5.886  1.00  0.00     0.006 A 
HETATM   23  C   UNL     1      41.047 -14.535   6.416  1.00  0.00     0.088 A 
HETATM   24  C   UNL     1      43.291 -14.055   5.710  1.00  0.00     0.017 A 
HETATM   25  C   UNL     1      41.362 -15.831   6.825  1.00  0.00     0.074 A 
HETATM   26  O   UNL     1      39.818 -13.958   6.502  1.00  0.00    -0.321 OA
HETATM   27  C   UNL     1      42.700 -16.216   6.693  1.00  0.00     0.070 A 
HETATM   28  C   UNL     1      43.640 -15.346   6.127  1.00  0.00     0.038 A 
HETATM   29  C   UNL     1      39.940 -12.684   6.051  1.00  0.00     0.151 A 
BRANCH  27  30
HETATM   30  O   UNL     1      43.222 -17.421   7.086  1.00  0.00    -0.356 OA
HETATM   31  C   UNL     1      43.420 -18.400   6.074  1.00  0.00     0.210 C 
ENDBRANCH  27  30
ENDBRANCH  20  21
ENDBRANCH   1  20
TORSDOF 7
ENDMDL
MODEL 5
REMARK VINA RESULT:      -8.1      3.659      6.856
REMARK  7 active torsions:
REMARK  status: ('A' for Active; 'I' for Inactive)
REMARK    1  A    between atoms: O_2  and  C_3 
REMARK    2  A    between atoms: C_7  and  C_8 
REMARK    3  A    between atoms: C_8  and  C_9 
REMARK       I    between atoms: C_9  and  N_10 
REMARK    4  A    between atoms: N_10  and  C_11 
REMARK    5  A    between atoms: C_11  and  C_12 
REMARK    6  A    between atoms: C_12  and  N_13 
REMARK    7  A    between atoms: C_12  and  C_19 
ROOT
HETATM    1  C   UNL     1      42.485 -10.981   2.939  1.00  0.00     0.222 C 
HETATM    2  N   UNL     1      42.072 -11.053   1.622  1.00  0.00    -0.358 N 
HETATM    3  O   UNL     1      41.950 -10.190   3.715  1.00  0.00    -0.273 OA
HETATM    4  H   UNL     1      42.390 -11.853   1.088  1.00  0.00     0.162 HD
ENDROOT
BRANCH   2   5
HETATM    5  C   UNL     1      40.818 -10.459   1.192  1.00  0.00     0.160 C 
BRANCH   5   6
HETATM    6  C   UNL     1      39.787 -11.371   0.443  1.00  0.00     0.240 C 
BRANCH   6   7
HETATM    7  N   UNL     1      39.959 -11.343  -1.085  1.00  0.00    -0.061 N 
HETATM    8  H   UNL     1      40.247 -12.304  -1.313  1.00  0.00     0.280 HD
HETATM    9  C   UNL     1      41.022 -10.440  -1.655  1.00  0.00     0.236 C 
HETATM   10  C   UNL     1      40.249  -9.417  -2.461  1.00  0.00     0.029 C 
HETATM   11  C   UNL     1      39.101 -10.227  -3.030  1.00  0.00     0.029 C 
HETATM   12  C   UNL     1      38.690 -11.140  -1.890  1.00  0.00     0.236 C 
ENDBRANCH   6   7
BRANCH   6  13
HETATM   13  C   UNL     1      39.783 -12.820   0.945  1.00  0.00    -0.004 A 
HETATM   14  C   UNL     1      39.452 -13.118   2.284  1.00  0.00     0.042 A 
HETATM   15 CL   UNL     1      38.977 -11.879   3.394  1.00  0.00    -0.084 Cl
HETATM   16  C   UNL     1      39.452 -14.433   2.758  1.00  0.00     0.024 A 
HETATM   17  C   UNL     1      39.775 -15.484   1.904  1.00  0.00     0.002 A 
HETATM   18  C   UNL     1      40.091 -15.221   0.577  1.00  0.00     0.001 A 
HETATM   19  C   UNL     1      40.091 -13.907   0.100  1.00  0.00     0.011 A 
ENDBRANCH   6  13
ENDBRANCH   5   6
ENDBRANCH   2   5
BRANCH   1  20
HETATM   20  C   UNL     1      43.598 -11.936   3.380  1.00  0.00     0.144 C 
BRANCH  20  21
HETATM   21  C   UNL     1      43.092 -13.249   3.883  1.00  0.00    -0.014 A 
HETATM   22  C   UNL     1      43.075 -14.497   3.184  1.00  0.00     0.006 A 
HETATM   23  C   UNL     1      42.648 -15.447   4.103  1.00  0.00     0.088 A 
HETATM   24  C   UNL     1      43.434 -14.929   1.895  1.00  0.00     0.017 A 
HETATM   25  C   UNL     1      42.582 -16.817   3.851  1.00  0.00     0.074 A 
HETATM   26  O   UNL     1      42.334 -14.846   5.283  1.00  0.00    -0.321 OA
HETATM   27  C   UNL     1      42.994 -17.235   2.581  1.00  0.00     0.070 A 
HETATM   28  C   UNL     1      43.394 -16.301   1.617  1.00  0.00     0.038 A 
HETATM   29  C   UNL     1      42.578 -13.519   5.136  1.00  0.00     0.151 A 
BRANCH  27  30
HETATM   30  O   UNL     1      43.058 -18.536   2.156  1.00  0.00    -0.356 OA
HETATM   31  C   UNL     1      43.906 -19.414   2.887  1.00  0.00     0.210 C 
ENDBRANCH  27  30
ENDBRANCH  20  21
ENDBRANCH   1  20
TORSDOF 7
ENDMDL
MODEL 6
REMARK VINA RESULT:      -7.9      3.749      6.502
REMARK  7 active torsions:
REMARK  status: ('A' for Active; 'I' for Inactive)
REMARK    1  A    between atoms: O_2  and  C_3 
REMARK    2  A    between atoms: C_7  and  C_8 
REMARK    3  A    between atoms: C_8  and  C_9 
REMARK       I    between atoms: C_9  and  N_10 
REMARK    4  A    between atoms: N_10  and  C_11 
REMARK    5  A    between atoms: C_11  and  C_12 
REMARK    6  A    between atoms: C_12  and  N_13 
REMARK    7  A    between atoms: C_12  and  C_19 
ROOT
HETATM    1  C   UNL     1      40.923 -14.147   0.897  1.00  0.00     0.222 C 
HETATM    2  N   UNL     1      41.780 -15.229   0.962  1.00  0.00    -0.358 N 
HETATM    3  O   UNL     1      41.076 -13.188   1.652  1.00  0.00    -0.273 OA
HETATM    4  H   UNL     1      41.745 -15.885   0.190  1.00  0.00     0.162 HD
ENDROOT
BRANCH   2   5
HETATM    5  C   UNL     1      43.048 -15.145   1.667  1.00  0.00     0.160 C 
BRANCH   5   6
HETATM    6  C   UNL     1      43.115 -15.688   3.135  1.00  0.00     0.240 C 
BRANCH   6   7
HETATM    7  N   UNL     1      41.875 -15.322   3.969  1.00  0.00    -0.061 N 
HETATM    8  H   UNL     1      41.268 -14.833   3.297  1.00  0.00     0.280 HD
HETATM    9  C   UNL     1      42.063 -14.378   5.129  1.00  0.00     0.236 C 
HETATM   10  C   UNL     1      41.726 -15.213   6.346  1.00  0.00     0.029 C 
HETATM   11  C   UNL     1      40.605 -16.105   5.849  1.00  0.00     0.029 C 
HETATM   12  C   UNL     1      41.031 -16.487   4.444  1.00  0.00     0.236 C 
ENDBRANCH   6   7
BRANCH   6  13
HETATM   13  C   UNL     1      43.372 -17.197   3.211  1.00  0.00    -0.004 A 
HETATM   14  C   UNL     1      44.076 -17.754   4.301  1.00  0.00     0.042 A 
HETATM   15 CL   UNL     1      44.619 -16.776   5.620  1.00  0.00    -0.084 Cl
HETATM   16  C   UNL     1      44.324 -19.128   4.380  1.00  0.00     0.024 A 
HETATM   17  C   UNL     1      43.870 -19.980   3.378  1.00  0.00     0.002 A 
HETATM   18  C   UNL     1      43.162 -19.460   2.301  1.00  0.00     0.001 A 
HETATM   19  C   UNL     1      42.912 -18.087   2.219  1.00  0.00     0.011 A 
ENDBRANCH   6  13
ENDBRANCH   5   6
ENDBRANCH   2   5
BRANCH   1  20
HETATM   20  C   UNL     1      39.816 -14.190  -0.160  1.00  0.00     0.144 C 
BRANCH  20  21
HETATM   21  C   UNL     1      40.141 -13.416  -1.395  1.00  0.00    -0.014 A 
HETATM   22  C   UNL     1      40.176 -11.993  -1.545  1.00  0.00     0.006 A 
HETATM   23  C   UNL     1      40.663 -11.752  -2.822  1.00  0.00     0.088 A 
HETATM   24  C   UNL     1      39.906 -10.892  -0.713  1.00  0.00     0.017 A 
HETATM   25  C   UNL     1      40.942 -10.485  -3.336  1.00  0.00     0.074 A 
HETATM   26  O   UNL     1      40.852 -12.929  -3.480  1.00  0.00    -0.321 OA
HETATM   27  C   UNL     1      40.719  -9.404  -2.477  1.00  0.00     0.070 A 
HETATM   28  C   UNL     1      40.192  -9.608  -1.196  1.00  0.00     0.038 A 
HETATM   29  C   UNL     1      40.511 -13.926  -2.624  1.00  0.00     0.151 A 
BRANCH  27  30
HETATM   30  O   UNL     1      40.982  -8.091  -2.769  1.00  0.00    -0.356 OA
HETATM   31  C   UNL     1      41.803  -7.833  -3.901  1.00  0.00     0.210 C 
ENDBRANCH  27  30
ENDBRANCH  20  21
ENDBRANCH   1  20
TORSDOF 7
ENDMDL
MODEL 7
REMARK VINA RESULT:      -7.6      3.247      5.837
REMARK  7 active torsions:
REMARK  status: ('A' for Active; 'I' for Inactive)
REMARK    1  A    between atoms: O_2  and  C_3 
REMARK    2  A    between atoms: C_7  and  C_8 
REMARK    3  A    between atoms: C_8  and  C_9 
REMARK       I    between atoms: C_9  and  N_10 
REMARK    4  A    between atoms: N_10  and  C_11 
REMARK    5  A    between atoms: C_11  and  C_12 
REMARK    6  A    between atoms: C_12  and  N_13 
REMARK    7  A    between atoms: C_12  and  C_19 
ROOT
HETATM    1  C   UNL     1      39.910 -11.986   5.325  1.00  0.00     0.222 C 
HETATM    2  N   UNL     1      39.617 -13.335   5.260  1.00  0.00    -0.358 N 
HETATM    3  O   UNL     1      40.678 -11.557   6.184  1.00  0.00    -0.273 OA
HETATM    4  H   UNL     1      39.158 -13.662   4.419  1.00  0.00     0.162 HD
ENDROOT
BRANCH   2   5
HETATM    5  C   UNL     1      40.425 -14.315   5.966  1.00  0.00     0.160 C 
BRANCH   5   6
HETATM    6  C   UNL     1      41.952 -14.401   5.621  1.00  0.00     0.240 C 
BRANCH   6   7
HETATM    7  N   UNL     1      42.743 -15.276   6.608  1.00  0.00    -0.061 N 
HETATM    8  H   UNL     1      42.619 -14.794   7.509  1.00  0.00     0.280 HD
HETATM    9  C   UNL     1      44.230 -15.401   6.399  1.00  0.00     0.236 C 
HETATM   10  C   UNL     1      44.438 -16.865   6.076  1.00  0.00     0.029 C 
HETATM   11  C   UNL     1      43.408 -17.558   6.947  1.00  0.00     0.029 C 
HETATM   12  C   UNL     1      42.186 -16.663   6.855  1.00  0.00     0.236 C 
ENDBRANCH   6   7
BRANCH   6  13
HETATM   13  C   UNL     1      42.222 -14.857   4.182  1.00  0.00    -0.004 A 
HETATM   14  C   UNL     1      42.869 -14.001   3.265  1.00  0.00     0.042 A 
HETATM   15 CL   UNL     1      43.438 -12.437   3.735  1.00  0.00    -0.084 Cl
HETATM   16  C   UNL     1      43.116 -14.400   1.947  1.00  0.00     0.024 A 
HETATM   17  C   UNL     1      42.730 -15.666   1.516  1.00  0.00     0.002 A 
HETATM   18  C   UNL     1      42.104 -16.534   2.402  1.00  0.00     0.001 A 
HETATM   19  C   UNL     1      41.856 -16.138   3.720  1.00  0.00     0.011 A 
ENDBRANCH   6  13
ENDBRANCH   5   6
ENDBRANCH   2   5
BRANCH   1  20
HETATM   20  C   UNL     1      39.266 -11.077   4.274  1.00  0.00     0.144 C 
BRANCH  20  21
HETATM   21  C   UNL     1      40.052 -10.979   3.008  1.00  0.00    -0.014 A 
HETATM   22  C   UNL     1      40.106 -11.934   1.944  1.00  0.00     0.006 A 
HETATM   23  C   UNL     1      40.849 -11.341   0.932  1.00  0.00     0.088 A 
HETATM   24  C   UNL     1      39.553 -13.206   1.710  1.00  0.00     0.017 A 
HETATM   25  C   UNL     1      41.062 -11.904  -0.327  1.00  0.00     0.074 A 
HETATM   26  O   UNL     1      41.311 -10.128   1.341  1.00  0.00    -0.321 OA
HETATM   27  C   UNL     1      40.460 -13.145  -0.561  1.00  0.00     0.070 A 
HETATM   28  C   UNL     1      39.736 -13.789   0.449  1.00  0.00     0.038 A 
HETATM   29  C   UNL     1      40.849  -9.927   2.602  1.00  0.00     0.151 A 
BRANCH  27  30
HETATM   30  O   UNL     1      40.500 -13.835  -1.744  1.00  0.00    -0.356 OA
HETATM   31  C   UNL     1      39.972 -13.182  -2.892  1.00  0.00     0.210 C 
ENDBRANCH  27  30
ENDBRANCH  20  21
ENDBRANCH   1  20
TORSDOF 7
ENDMDL
MODEL 8
REMARK VINA RESULT:      -7.5      2.520      3.788
REMARK  7 active torsions:
REMARK  status: ('A' for Active; 'I' for Inactive)
REMARK    1  A    between atoms: O_2  and  C_3 
REMARK    2  A    between atoms: C_7  and  C_8 
REMARK    3  A    between atoms: C_8  and  C_9 
REMARK       I    between atoms: C_9  and  N_10 
REMARK    4  A    between atoms: N_10  and  C_11 
REMARK    5  A    between atoms: C_11  and  C_12 
REMARK    6  A    between atoms: C_12  and  N_13 
REMARK    7  A    between atoms: C_12  and  C_19 
ROOT
HETATM    1  C   UNL     1      44.987 -11.630   6.470  1.00  0.00     0.222 C 
HETATM    2  N   UNL     1      44.233 -12.788   6.469  1.00  0.00    -0.358 N 
HETATM    3  O   UNL     1      45.467 -11.201   5.422  1.00  0.00    -0.273 OA
HETATM    4  H   UNL     1      43.691 -12.979   7.304  1.00  0.00     0.162 HD
ENDROOT
BRANCH   2   5
HETATM    5  C   UNL     1      43.716 -13.349   5.233  1.00  0.00     0.160 C 
BRANCH   5   6
HETATM    6  C   UNL     1      42.611 -14.456   5.329  1.00  0.00     0.240 C 
BRANCH   6   7
HETATM    7  N   UNL     1      41.216 -13.951   4.922  1.00  0.00    -0.061 N 
HETATM    8  H   UNL     1      40.843 -14.714   4.340  1.00  0.00     0.280 HD
HETATM    9  C   UNL     1      41.140 -12.705   4.077  1.00  0.00     0.236 C 
HETATM   10  C   UNL     1      40.438 -11.698   4.963  1.00  0.00     0.029 C 
HETATM   11  C   UNL     1      39.442 -12.548   5.726  1.00  0.00     0.029 C 
HETATM   12  C   UNL     1      40.207 -13.819   6.044  1.00  0.00     0.236 C 
ENDBRANCH   6   7
BRANCH   6  13
HETATM   13  C   UNL     1      42.959 -15.727   4.545  1.00  0.00    -0.004 A 
HETATM   14  C   UNL     1      43.867 -16.672   5.070  1.00  0.00     0.042 A 
HETATM   15 CL   UNL     1      44.574 -16.471   6.636  1.00  0.00    -0.084 Cl
HETATM   16  C   UNL     1      44.199 -17.832   4.364  1.00  0.00     0.024 A 
HETATM   17  C   UNL     1      43.627 -18.081   3.120  1.00  0.00     0.002 A 
HETATM   18  C   UNL     1      42.719 -17.176   2.586  1.00  0.00     0.001 A 
HETATM   19  C   UNL     1      42.384 -16.015   3.289  1.00  0.00     0.011 A 
ENDBRANCH   6  13
ENDBRANCH   5   6
ENDBRANCH   2   5
BRANCH   1  20
HETATM   20  C   UNL     1      45.166 -10.908   7.809  1.00  0.00     0.144 C 
BRANCH  20  21
HETATM   21  C   UNL     1      43.935 -10.201   8.273  1.00  0.00    -0.014 A 
HETATM   22  C   UNL     1      43.472 -10.057   9.620  1.00  0.00     0.006 A 
HETATM   23  C   UNL     1      42.375  -9.209   9.562  1.00  0.00     0.088 A 
HETATM   24  C   UNL     1      43.905 -10.505  10.881  1.00  0.00     0.017 A 
HETATM   25  C   UNL     1      41.683  -8.733  10.675  1.00  0.00     0.074 A 
HETATM   26  O   UNL     1      42.098  -8.893   8.267  1.00  0.00    -0.321 OA
HETATM   27  C   UNL     1      42.159  -9.145  11.924  1.00  0.00     0.070 A 
HETATM   28  C   UNL     1      43.239 -10.032  12.019  1.00  0.00     0.038 A 
HETATM   29  C   UNL     1      43.025  -9.514   7.494  1.00  0.00     0.151 A 
BRANCH  27  30
HETATM   30  O   UNL     1      41.657  -8.748  13.136  1.00  0.00    -0.356 OA
HETATM   31  C   UNL     1      40.578  -9.506  13.668  1.00  0.00     0.210 C 
ENDBRANCH  27  30
ENDBRANCH  20  21
ENDBRANCH   1  20
TORSDOF 7
ENDMDL
MODEL 9
REMARK VINA RESULT:      -7.5      4.816      7.908
REMARK  7 active torsions:
REMARK  status: ('A' for Active; 'I' for Inactive)
REMARK    1  A    between atoms: O_2  and  C_3 
REMARK    2  A    between atoms: C_7  and  C_8 
REMARK    3  A    between atoms: C_8  and  C_9 
REMARK       I    between atoms: C_9  and  N_10 
REMARK    4  A    between atoms: N_10  and  C_11 
REMARK    5  A    between atoms: C_11  and  C_12 
REMARK    6  A    between atoms: C_12  and  N_13 
REMARK    7  A    between atoms: C_12  and  C_19 
ROOT
HETATM    1  C   UNL     1      40.909 -13.814   2.362  1.00  0.00     0.222 C 
HETATM    2  N   UNL     1      40.425 -12.562   2.032  1.00  0.00    -0.358 N 
HETATM    3  O   UNL     1      40.137 -14.761   2.503  1.00  0.00    -0.273 OA
HETATM    4  H   UNL     1      41.104 -11.877   1.722  1.00  0.00     0.162 HD
ENDROOT
BRANCH   2   5
HETATM    5  C   UNL     1      39.072 -12.386   1.532  1.00  0.00     0.160 C 
BRANCH   5   6
HETATM    6  C   UNL     1      38.886 -11.760   0.107  1.00  0.00     0.240 C 
BRANCH   6   7
HETATM    7  N   UNL     1      40.026 -10.803  -0.283  1.00  0.00    -0.061 N 
HETATM    8  H   UNL     1      40.597 -10.748   0.572  1.00  0.00     0.280 HD
HETATM    9  C   UNL     1      39.661  -9.384  -0.636  1.00  0.00     0.236 C 
HETATM   10  C   UNL     1      40.042  -9.255  -2.095  1.00  0.00     0.029 C 
HETATM   11  C   UNL     1      41.291 -10.107  -2.200  1.00  0.00     0.029 C 
HETATM   12  C   UNL     1      40.988 -11.316  -1.335  1.00  0.00     0.236 C 
ENDBRANCH   6   7
BRANCH   6  13
HETATM   13  C   UNL     1      38.680 -12.808  -0.993  1.00  0.00    -0.004 A 
HETATM   14  C   UNL     1      37.761 -12.582  -2.040  1.00  0.00     0.042 A 
HETATM   15 CL   UNL     1      36.880 -11.099  -2.164  1.00  0.00    -0.084 Cl
HETATM   16  C   UNL     1      37.557 -13.531  -3.046  1.00  0.00     0.024 A 
HETATM   17  C   UNL     1      38.272 -14.726  -3.035  1.00  0.00     0.002 A 
HETATM   18  C   UNL     1      39.193 -14.968  -2.024  1.00  0.00     0.001 A 
HETATM   19  C   UNL     1      39.400 -14.020  -1.017  1.00  0.00     0.011 A 
ENDBRANCH   6  13
ENDBRANCH   5   6
ENDBRANCH   2   5
BRANCH   1  20
HETATM   20  C   UNL     1      42.426 -13.963   2.511  1.00  0.00     0.144 C 
BRANCH  20  21
HETATM   21  C   UNL     1      42.828 -14.905   3.598  1.00  0.00    -0.014 A 
HETATM   22  C   UNL     1      43.056 -16.313   3.487  1.00  0.00     0.006 A 
HETATM   23  C   UNL     1      43.544 -16.724   4.720  1.00  0.00     0.088 A 
HETATM   24  C   UNL     1      42.958 -17.265   2.456  1.00  0.00     0.017 A 
HETATM   25  C   UNL     1      43.983 -18.016   5.006  1.00  0.00     0.074 A 
HETATM   26  O   UNL     1      43.555 -15.676   5.589  1.00  0.00    -0.321 OA
HETATM   27  C   UNL     1      43.930 -18.937   3.955  1.00  0.00     0.070 A 
HETATM   28  C   UNL     1      43.407 -18.568   2.709  1.00  0.00     0.038 A 
HETATM   29  C   UNL     1      43.098 -14.590   4.916  1.00  0.00     0.151 A 
BRANCH  27  30
HETATM   30  O   UNL     1      44.364 -20.235   4.014  1.00  0.00    -0.356 OA
HETATM   31  C   UNL     1      44.301 -20.880   5.280  1.00  0.00     0.210 C 
ENDBRANCH  27  30
ENDBRANCH  20  21
ENDBRANCH   1  20
TORSDOF 7
ENDMDL
MODEL 10
REMARK VINA RESULT:      -7.4      7.599     11.192
REMARK  7 active torsions:
REMARK  status: ('A' for Active; 'I' for Inactive)
REMARK    1  A    between atoms: O_2  and  C_3 
REMARK    2  A    between atoms: C_7  and  C_8 
REMARK    3  A    between atoms: C_8  and  C_9 
REMARK       I    between atoms: C_9  and  N_10 
REMARK    4  A    between atoms: N_10  and  C_11 
REMARK    5  A    between atoms: C_11  and  C_12 
REMARK    6  A    between atoms: C_12  and  N_13 
REMARK    7  A    between atoms: C_12  and  C_19 
ROOT
HETATM    1  C   UNL     1      39.294  -7.367  10.536  1.00  0.00     0.222 C 
HETATM    2  N   UNL     1      40.668  -7.513  10.492  1.00  0.00    -0.358 N 
HETATM    3  O   UNL     1      38.561  -8.270  10.136  1.00  0.00    -0.273 OA
HETATM    4  H   UNL     1      41.214  -6.844  11.021  1.00  0.00     0.162 HD
ENDROOT
BRANCH   2   5
HETATM    5  C   UNL     1      41.280  -8.814  10.288  1.00  0.00     0.160 C 
BRANCH   5   6
HETATM    6  C   UNL     1      42.440  -9.245  11.250  1.00  0.00     0.240 C 
BRANCH   6   7
HETATM    7  N   UNL     1      43.837  -8.933  10.686  1.00  0.00    -0.061 N 
HETATM    8  H   UNL     1      44.261  -8.336  11.408  1.00  0.00     0.280 HD
HETATM    9  C   UNL     1      43.915  -8.153   9.398  1.00  0.00     0.236 C 
HETATM   10  C   UNL     1      44.540  -9.120   8.416  1.00  0.00     0.029 C 
HETATM   11  C   UNL     1      45.525  -9.891   9.273  1.00  0.00     0.029 C 
HETATM   12  C   UNL     1      44.785 -10.110  10.579  1.00  0.00     0.236 C 
ENDBRANCH   6   7
BRANCH   6  13
HETATM   13  C   UNL     1      42.303  -8.663  12.662  1.00  0.00    -0.004 A 
HETATM   14  C   UNL     1      41.278  -9.106  13.527  1.00  0.00     0.042 A 
HETATM   15 CL   UNL     1      40.180 -10.357  13.060  1.00  0.00    -0.084 Cl
HETATM   16  C   UNL     1      41.135  -8.580  14.814  1.00  0.00     0.024 A 
HETATM   17  C   UNL     1      42.017  -7.605  15.273  1.00  0.00     0.002 A 
HETATM   18  C   UNL     1      43.044  -7.162  14.449  1.00  0.00     0.001 A 
HETATM   19  C   UNL     1      43.189  -7.687  13.161  1.00  0.00     0.011 A 
ENDBRANCH   6  13
ENDBRANCH   5   6
ENDBRANCH   2   5
BRANCH   1  20
HETATM   20  C   UNL     1      38.744  -6.064  11.124  1.00  0.00     0.144 C 
BRANCH  20  21
HETATM   21  C   UNL     1      38.680  -6.064  12.616  1.00  0.00    -0.014 A 
HETATM   22  C   UNL     1      39.553  -5.382  13.522  1.00  0.00     0.006 A 
HETATM   23  C   UNL     1      39.013  -5.565  14.788  1.00  0.00     0.088 A 
HETATM   24  C   UNL     1      40.702  -4.581  13.395  1.00  0.00     0.017 A 
HETATM   25  C   UNL     1      39.510  -4.979  15.952  1.00  0.00     0.074 A 
HETATM   26  O   UNL     1      37.920  -6.373  14.717  1.00  0.00    -0.321 OA
HETATM   27  C   UNL     1      40.621  -4.143  15.800  1.00  0.00     0.070 A 
HETATM   28  C   UNL     1      41.215  -3.966  14.544  1.00  0.00     0.038 A 
HETATM   29  C   UNL     1      37.740  -6.691  13.410  1.00  0.00     0.151 A 
BRANCH  27  30
HETATM   30  O   UNL     1      41.223  -3.432  16.805  1.00  0.00    -0.356 OA
HETATM   31  C   UNL     1      41.823  -4.180  17.856  1.00  0.00     0.210 C 
ENDBRANCH  27  30
ENDBRANCH  20  21
ENDBRANCH   1  20
TORSDOF 7
ENDMDL
