MODEL 1
REMARK VINA RESULT:      -8.2      0.000      0.000
REMARK  3 active torsions:
REMARK  status: ('A' for Active; 'I' for Inactive)
REMARK    1  A    between atoms: N_3  and  C_4 
REMARK    2  A    between atoms: C_8  and  C_9 
REMARK       I    between atoms: C_9  and  N_10 
REMARK    3  A    between atoms: C_17  and  O_18 
ROOT
HETATM    1  C   UNL     1      42.030 -14.513   2.242  1.00  0.00     0.254 C 
HETATM    2  N   UNL     1      40.915 -14.072   1.535  1.00  0.00    -0.343 N 
HETATM    3  C   UNL     1      40.540 -14.835   0.351  1.00  0.00     0.165 C 
HETATM    4  C   UNL     1      39.670 -14.048  -0.605  1.00  0.00    -0.031 A 
HETATM    5  C   UNL     1      39.047 -12.846  -0.214  1.00  0.00    -0.049 A 
HETATM    6  C   UNL     1      39.290 -12.265   1.158  1.00  0.00     0.059 C 
HETATM    7  C   UNL     1      39.826 -13.306   2.139  1.00  0.00     0.131 C 
HETATM    8  C   UNL     1      39.460 -14.543  -1.902  1.00  0.00     0.046 A 
HETATM    9  C   UNL     1      38.662 -13.835  -2.795  1.00  0.00     0.066 A 
HETATM   10  C   UNL     1      38.058 -12.642  -2.421  1.00  0.00     0.037 A 
HETATM   11  C   UNL     1      38.250 -12.145  -1.132  1.00  0.00     0.010 A 
HETATM   12  O   UNL     1      42.610 -15.568   1.992  1.00  0.00    -0.267 OA
ENDROOT
BRANCH   1  13
HETATM   13  C   UNL     1      42.600 -13.648   3.303  1.00  0.00     0.035 A 
HETATM   14  C   UNL     1      42.601 -14.109   4.621  1.00  0.00     0.061 A 
HETATM   15  C   UNL     1      43.203 -13.349   5.624  1.00  0.00     0.146 A 
HETATM   16  C   UNL     1      43.820 -12.129   5.330  1.00  0.00     0.096 A 
HETATM   17  F   UNL     1      43.159 -13.841   6.869  1.00  0.00    -0.204 F 
HETATM   18  C   UNL     1      43.826 -11.678   3.997  1.00  0.00     0.036 A 
HETATM   19  C   UNL     1      43.231 -12.441   2.987  1.00  0.00     0.019 A 
BRANCH  16  20
HETATM   20  N   UNL     1      44.459 -11.342   6.326  1.00  0.00    -0.242 N 
HETATM   21  C   UNL     1      45.803 -11.197   6.598  1.00  0.00     0.120 A 
HETATM   22  C   UNL     1      45.919 -10.316   7.647  1.00  0.00     0.040 A 
HETATM   23  C   UNL     1      44.600  -9.973   7.963  1.00  0.00     0.140 A 
HETATM   24  N   UNL     1      43.713 -10.581   7.177  1.00  0.00    -0.180 NA
ENDBRANCH  16  20
ENDBRANCH   1  13
BRANCH   9  25
HETATM   25  O   UNL     1      38.451 -14.281  -4.067  1.00  0.00    -0.361 OA
HETATM   26  H   UNL     1      38.222 -15.224  -4.031  1.00  0.00     0.217 HD
ENDBRANCH   9  25
TORSDOF 3
ENDMDL
MODEL 2
REMARK VINA RESULT:      -8.0      3.918      6.443
REMARK  3 active torsions:
REMARK  status: ('A' for Active; 'I' for Inactive)
REMARK    1  A    between atoms: N_3  and  C_4 
REMARK    2  A    between atoms: C_8  and  C_9 
REMARK       I    between atoms: C_9  and  N_10 
REMARK    3  A    between atoms: C_17  and  O_18 
ROOT
HETATM    1  C   UNL     1      41.790 -14.829   1.962  1.00  0.00     0.254 C 
HETATM    2  N   UNL     1      42.583 -15.693   2.711  1.00  0.00    -0.343 N 
HETATM    3  C   UNL     1      42.977 -16.945   2.077  1.00  0.00     0.165 C 
HETATM    4  C   UNL     1      43.392 -18.005   3.074  1.00  0.00    -0.031 A 
HETATM    5  C   UNL     1      43.668 -17.684   4.418  1.00  0.00    -0.049 A 
HETATM    6  C   UNL     1      43.485 -16.273   4.925  1.00  0.00     0.059 C 
HETATM    7  C   UNL     1      43.465 -15.251   3.790  1.00  0.00     0.131 C 
HETATM    8  C   UNL     1      43.530 -19.333   2.641  1.00  0.00     0.046 A 
HETATM    9  C   UNL     1      43.913 -20.322   3.542  1.00  0.00     0.066 A 
HETATM   10  C   UNL     1      44.171 -20.014   4.871  1.00  0.00     0.037 A 
HETATM   11  C   UNL     1      44.048 -18.697   5.311  1.00  0.00     0.010 A 
HETATM   12  O   UNL     1      41.532 -15.014   0.774  1.00  0.00    -0.267 OA
ENDROOT
BRANCH   1  13
HETATM   13  C   UNL     1      41.163 -13.663   2.630  1.00  0.00     0.035 A 
HETATM   14  C   UNL     1      40.419 -13.872   3.792  1.00  0.00     0.061 A 
HETATM   15  C   UNL     1      39.886 -12.783   4.483  1.00  0.00     0.146 A 
HETATM   16  C   UNL     1      40.094 -11.475   4.035  1.00  0.00     0.096 A 
HETATM   17  F   UNL     1      39.172 -13.051   5.584  1.00  0.00    -0.204 F 
HETATM   18  C   UNL     1      40.855 -11.273   2.869  1.00  0.00     0.036 A 
HETATM   19  C   UNL     1      41.398 -12.360   2.178  1.00  0.00     0.019 A 
BRANCH  16  20
HETATM   20  N   UNL     1      39.580 -10.345   4.727  1.00  0.00    -0.242 N 
HETATM   21  C   UNL     1      38.405  -9.653   4.523  1.00  0.00     0.120 A 
HETATM   22  C   UNL     1      38.350  -8.647   5.457  1.00  0.00     0.040 A 
HETATM   23  C   UNL     1      39.532  -8.788   6.193  1.00  0.00     0.140 A 
HETATM   24  N   UNL     1      40.280  -9.805   5.766  1.00  0.00    -0.180 NA
ENDBRANCH  16  20
ENDBRANCH   1  13
BRANCH   9  25
HETATM   25  O   UNL     1      44.040 -21.624   3.156  1.00  0.00    -0.361 OA
HETATM   26  H   UNL     1      43.249 -21.878   2.654  1.00  0.00     0.217 HD
ENDBRANCH   9  25
TORSDOF 3
ENDMDL
MODEL 3
REMARK VINA RESULT:      -7.9      4.015      4.923
REMARK  3 active torsions:
REMARK  status: ('A' for Active; 'I' for Inactive)
REMARK    1  A    between atoms: N_3  and  C_4 
REMARK    2  A    between atoms: C_8  and  C_9 
REMARK       I    between atoms: C_9  and  N_10 
REMARK    3  A    between atoms: C_17  and  O_18 
ROOT
HETATM    1  C   UNL     1      40.241 -14.375   0.109  1.00  0.00     0.254 C 
HETATM    2  N   UNL     1      40.410 -13.013  -0.120  1.00  0.00    -0.343 N 
HETATM    3  C   UNL     1      39.943 -12.496  -1.400  1.00  0.00     0.165 C 
HETATM    4  C   UNL     1      40.582 -11.175  -1.772  1.00  0.00    -0.031 A 
HETATM    5  C   UNL     1      41.288 -10.407  -0.824  1.00  0.00    -0.049 A 
HETATM    6  C   UNL     1      41.491 -10.918   0.582  1.00  0.00     0.059 C 
HETATM    7  C   UNL     1      40.494 -12.017   0.947  1.00  0.00     0.131 C 
HETATM    8  C   UNL     1      40.445 -10.695  -3.084  1.00  0.00     0.046 A 
HETATM    9  C   UNL     1      41.024  -9.483  -3.444  1.00  0.00     0.066 A 
HETATM   10  C   UNL     1      41.734  -8.728  -2.518  1.00  0.00     0.037 A 
HETATM   11  C   UNL     1      41.868  -9.190  -1.209  1.00  0.00     0.010 A 
HETATM   12  O   UNL     1      39.607 -15.110  -0.646  1.00  0.00    -0.267 OA
ENDROOT
BRANCH   1  13
HETATM   13  C   UNL     1      40.907 -14.998   1.278  1.00  0.00     0.035 A 
HETATM   14  C   UNL     1      40.122 -15.467   2.332  1.00  0.00     0.061 A 
HETATM   15  C   UNL     1      40.719 -16.128   3.405  1.00  0.00     0.146 A 
HETATM   16  C   UNL     1      42.100 -16.342   3.440  1.00  0.00     0.096 A 
HETATM   17  F   UNL     1      39.912 -16.543   4.390  1.00  0.00    -0.204 F 
HETATM   18  C   UNL     1      42.883 -15.877   2.368  1.00  0.00     0.036 A 
HETATM   19  C   UNL     1      42.288 -15.222   1.286  1.00  0.00     0.019 A 
BRANCH  16  20
HETATM   20  N   UNL     1      42.735 -17.030   4.510  1.00  0.00    -0.242 N 
HETATM   21  C   UNL     1      42.670 -16.788   5.866  1.00  0.00     0.120 A 
HETATM   22  C   UNL     1      43.448 -17.734   6.491  1.00  0.00     0.040 A 
HETATM   23  C   UNL     1      43.957 -18.514   5.448  1.00  0.00     0.140 A 
HETATM   24  N   UNL     1      43.537 -18.103   4.252  1.00  0.00    -0.180 NA
ENDBRANCH  16  20
ENDBRANCH   1  13
BRANCH   9  25
HETATM   25  O   UNL     1      40.923  -8.996  -4.713  1.00  0.00    -0.361 OA
HETATM   26  H   UNL     1      41.620  -8.333  -4.848  1.00  0.00     0.217 HD
ENDBRANCH   9  25
TORSDOF 3
ENDMDL
MODEL 4
REMARK VINA RESULT:      -7.9      4.211      6.799
REMARK  3 active torsions:
REMARK  status: ('A' for Active; 'I' for Inactive)
REMARK    1  A    between atoms: N_3  and  C_4 
REMARK    2  A    between atoms: C_8  and  C_9 
REMARK       I    between atoms: C_9  and  N_10 
REMARK    3  A    between atoms: C_17  and  O_18 
ROOT
HETATM    1  C   UNL     1      42.549 -14.804   2.693  1.00  0.00     0.254 C 
HETATM    2  N   UNL     1      43.074 -15.806   3.503  1.00  0.00    -0.343 N 
HETATM    3  C   UNL     1      43.587 -16.995   2.835  1.00  0.00     0.165 C 
HETATM    4  C   UNL     1      43.674 -18.196   3.752  1.00  0.00    -0.031 A 
HETATM    5  C   UNL     1      43.577 -18.062   5.151  1.00  0.00    -0.049 A 
HETATM    6  C   UNL     1      43.307 -16.715   5.777  1.00  0.00     0.059 C 
HETATM    7  C   UNL     1      43.636 -15.562   4.831  1.00  0.00     0.131 C 
HETATM    8  C   UNL     1      43.883 -19.467   3.194  1.00  0.00     0.046 A 
HETATM    9  C   UNL     1      43.967 -20.583   4.020  1.00  0.00     0.066 A 
HETATM   10  C   UNL     1      43.857 -20.460   5.399  1.00  0.00     0.037 A 
HETATM   11  C   UNL     1      43.659 -19.201   5.966  1.00  0.00     0.010 A 
HETATM   12  O   UNL     1      42.624 -14.823   1.467  1.00  0.00    -0.267 OA
ENDROOT
BRANCH   1  13
HETATM   13  C   UNL     1      41.799 -13.688   3.320  1.00  0.00     0.035 A 
HETATM   14  C   UNL     1      42.381 -12.420   3.356  1.00  0.00     0.061 A 
HETATM   15  C   UNL     1      41.664 -11.339   3.868  1.00  0.00     0.146 A 
HETATM   16  C   UNL     1      40.358 -11.500   4.339  1.00  0.00     0.096 A 
HETATM   17  F   UNL     1      42.283 -10.151   3.885  1.00  0.00    -0.204 F 
HETATM   18  C   UNL     1      39.774 -12.779   4.288  1.00  0.00     0.036 A 
HETATM   19  C   UNL     1      40.486 -13.864   3.768  1.00  0.00     0.019 A 
BRANCH  16  20
HETATM   20  N   UNL     1      39.595 -10.414   4.848  1.00  0.00    -0.242 N 
HETATM   21  C   UNL     1      38.485  -9.797   4.310  1.00  0.00     0.120 A 
HETATM   22  C   UNL     1      38.099  -8.807   5.183  1.00  0.00     0.040 A 
HETATM   23  C   UNL     1      39.027  -8.881   6.227  1.00  0.00     0.140 A 
HETATM   24  N   UNL     1      39.931  -9.842   6.040  1.00  0.00    -0.180 NA
ENDBRANCH  16  20
ENDBRANCH   1  13
BRANCH   9  25
HETATM   25  O   UNL     1      44.154 -21.834   3.509  1.00  0.00    -0.361 OA
HETATM   26  H   UNL     1      43.287 -22.259   3.406  1.00  0.00     0.217 HD
ENDBRANCH   9  25
TORSDOF 3
ENDMDL
MODEL 5
REMARK VINA RESULT:      -7.7      4.381      6.705
REMARK  3 active torsions:
REMARK  status: ('A' for Active; 'I' for Inactive)
REMARK    1  A    between atoms: N_3  and  C_4 
REMARK    2  A    between atoms: C_8  and  C_9 
REMARK       I    between atoms: C_9  and  N_10 
REMARK    3  A    between atoms: C_17  and  O_18 
ROOT
HETATM    1  C   UNL     1      42.934 -14.553   3.634  1.00  0.00     0.254 C 
HETATM    2  N   UNL     1      43.358 -15.705   4.290  1.00  0.00    -0.343 N 
HETATM    3  C   UNL     1      43.820 -16.808   3.456  1.00  0.00     0.165 C 
HETATM    4  C   UNL     1      43.790 -18.141   4.171  1.00  0.00    -0.031 A 
HETATM    5  C   UNL     1      43.642 -18.223   5.571  1.00  0.00    -0.049 A 
HETATM    6  C   UNL     1      43.433 -16.975   6.395  1.00  0.00     0.059 C 
HETATM    7  C   UNL     1      43.877 -15.714   5.657  1.00  0.00     0.131 C 
HETATM    8  C   UNL     1      43.939 -19.321   3.425  1.00  0.00     0.046 A 
HETATM    9  C   UNL     1      43.916 -20.556   4.064  1.00  0.00     0.066 A 
HETATM   10  C   UNL     1      43.754 -20.643   5.441  1.00  0.00     0.037 A 
HETATM   11  C   UNL     1      43.615 -19.478   6.195  1.00  0.00     0.010 A 
HETATM   12  O   UNL     1      43.061 -14.385   2.423  1.00  0.00    -0.267 OA
ENDROOT
BRANCH   1  13
HETATM   13  C   UNL     1      42.233 -13.500   4.406  1.00  0.00     0.035 A 
HETATM   14  C   UNL     1      42.958 -12.395   4.853  1.00  0.00     0.061 A 
HETATM   15  C   UNL     1      42.305 -11.353   5.512  1.00  0.00     0.146 A 
HETATM   16  C   UNL     1      40.924 -11.390   5.726  1.00  0.00     0.096 A 
HETATM   17  F   UNL     1      43.060 -10.326   5.926  1.00  0.00    -0.204 F 
HETATM   18  C   UNL     1      40.198 -12.503   5.262  1.00  0.00     0.036 A 
HETATM   19  C   UNL     1      40.847 -13.545   4.593  1.00  0.00     0.019 A 
BRANCH  16  20
HETATM   20  N   UNL     1      40.228 -10.336   6.376  1.00  0.00    -0.242 N 
HETATM   21  C   UNL     1      39.938  -9.066   5.920  1.00  0.00     0.120 A 
HETATM   22  C   UNL     1      39.234  -8.423   6.910  1.00  0.00     0.040 A 
HETATM   23  C   UNL     1      39.138  -9.365   7.940  1.00  0.00     0.140 A 
HETATM   24  N   UNL     1      39.729 -10.519   7.633  1.00  0.00    -0.180 NA
ENDBRANCH  16  20
ENDBRANCH   1  13
BRANCH   9  25
HETATM   25  O   UNL     1      44.042 -21.720   3.366  1.00  0.00    -0.361 OA
HETATM   26  H   UNL     1      44.949 -21.780   3.025  1.00  0.00     0.217 HD
ENDBRANCH   9  25
TORSDOF 3
ENDMDL
MODEL 6
REMARK VINA RESULT:      -7.6      5.493     10.950
REMARK  3 active torsions:
REMARK  status: ('A' for Active; 'I' for Inactive)
REMARK    1  A    between atoms: N_3  and  C_4 
REMARK    2  A    between atoms: C_8  and  C_9 
REMARK       I    between atoms: C_9  and  N_10 
REMARK    3  A    between atoms: C_17  and  O_18 
ROOT
HETATM    1  C   UNL     1      43.491  -8.801   8.775  1.00  0.00     0.254 C 
HETATM    2  N   UNL     1      42.734  -8.720   9.940  1.00  0.00    -0.343 N 
HETATM    3  C   UNL     1      43.089  -7.671  10.887  1.00  0.00     0.165 C 
HETATM    4  C   UNL     1      42.582  -7.944  12.287  1.00  0.00    -0.031 A 
HETATM    5  C   UNL     1      41.609  -8.932  12.538  1.00  0.00    -0.049 A 
HETATM    6  C   UNL     1      41.095  -9.806  11.419  1.00  0.00     0.059 C 
HETATM    7  C   UNL     1      41.355  -9.194  10.043  1.00  0.00     0.131 C 
HETATM    8  C   UNL     1      43.074  -7.175  13.354  1.00  0.00     0.046 A 
HETATM    9  C   UNL     1      42.619  -7.409  14.647  1.00  0.00     0.066 A 
HETATM   10  C   UNL     1      41.672  -8.392  14.903  1.00  0.00     0.037 A 
HETATM   11  C   UNL     1      41.168  -9.156  13.850  1.00  0.00     0.010 A 
HETATM   12  O   UNL     1      44.333  -7.961   8.462  1.00  0.00    -0.267 OA
ENDROOT
BRANCH   1  13
HETATM   13  C   UNL     1      43.338  -9.984   7.896  1.00  0.00     0.035 A 
HETATM   14  C   UNL     1      42.345  -9.972   6.915  1.00  0.00     0.061 A 
HETATM   15  C   UNL     1      42.233 -11.039   6.024  1.00  0.00     0.146 A 
HETATM   16  C   UNL     1      43.111 -12.126   6.088  1.00  0.00     0.096 A 
HETATM   17  F   UNL     1      41.252 -10.972   5.113  1.00  0.00    -0.204 F 
HETATM   18  C   UNL     1      44.116 -12.125   7.072  1.00  0.00     0.036 A 
HETATM   19  C   UNL     1      44.238 -11.053   7.962  1.00  0.00     0.019 A 
BRANCH  16  20
HETATM   20  N   UNL     1      43.034 -13.218   5.182  1.00  0.00    -0.242 N 
HETATM   21  C   UNL     1      43.029 -13.212   3.803  1.00  0.00     0.120 A 
HETATM   22  C   UNL     1      42.955 -14.519   3.384  1.00  0.00     0.040 A 
HETATM   23  C   UNL     1      42.913 -15.263   4.568  1.00  0.00     0.140 A 
HETATM   24  N   UNL     1      42.961 -14.495   5.656  1.00  0.00    -0.180 NA
ENDBRANCH  16  20
ENDBRANCH   1  13
BRANCH   9  25
HETATM   25  O   UNL     1      43.088  -6.691  15.707  1.00  0.00    -0.361 OA
HETATM   26  H   UNL     1      43.960  -7.038  15.955  1.00  0.00     0.217 HD
ENDBRANCH   9  25
TORSDOF 3
ENDMDL
MODEL 7
REMARK VINA RESULT:      -7.6      2.862      3.574
REMARK  3 active torsions:
REMARK  status: ('A' for Active; 'I' for Inactive)
REMARK    1  A    between atoms: N_3  and  C_4 
REMARK    2  A    between atoms: C_8  and  C_9 
REMARK       I    between atoms: C_9  and  N_10 
REMARK    3  A    between atoms: C_17  and  O_18 
ROOT
HETATM    1  C   UNL     1      39.818 -12.205   2.434  1.00  0.00     0.254 C 
HETATM    2  N   UNL     1      39.788 -12.650   1.116  1.00  0.00    -0.343 N 
HETATM    3  C   UNL     1      38.857 -11.982   0.214  1.00  0.00     0.165 C 
HETATM    4  C   UNL     1      38.529 -12.808  -1.011  1.00  0.00    -0.031 A 
HETATM    5  C   UNL     1      39.298 -13.933  -1.368  1.00  0.00    -0.049 A 
HETATM    6  C   UNL     1      40.437 -14.396  -0.491  1.00  0.00     0.059 C 
HETATM    7  C   UNL     1      40.920 -13.298   0.454  1.00  0.00     0.131 C 
HETATM    8  C   UNL     1      37.449 -12.425  -1.823  1.00  0.00     0.046 A 
HETATM    9  C   UNL     1      37.132 -13.170  -2.954  1.00  0.00     0.066 A 
HETATM   10  C   UNL     1      37.877 -14.289  -3.303  1.00  0.00     0.037 A 
HETATM   11  C   UNL     1      38.959 -14.673  -2.511  1.00  0.00     0.010 A 
HETATM   12  O   UNL     1      39.208 -11.211   2.821  1.00  0.00    -0.267 OA
ENDROOT
BRANCH   1  13
HETATM   13  C   UNL     1      40.560 -12.996   3.445  1.00  0.00     0.035 A 
HETATM   14  C   UNL     1      40.195 -14.325   3.663  1.00  0.00     0.061 A 
HETATM   15  C   UNL     1      40.928 -15.113   4.550  1.00  0.00     0.146 A 
HETATM   16  C   UNL     1      42.038 -14.594   5.224  1.00  0.00     0.096 A 
HETATM   17  F   UNL     1      40.520 -16.377   4.723  1.00  0.00    -0.204 F 
HETATM   18  C   UNL     1      42.406 -13.257   4.991  1.00  0.00     0.036 A 
HETATM   19  C   UNL     1      41.679 -12.466   4.095  1.00  0.00     0.019 A 
BRANCH  16  20
HETATM   20  N   UNL     1      42.816 -15.377   6.119  1.00  0.00    -0.242 N 
HETATM   21  C   UNL     1      43.871 -16.224   5.851  1.00  0.00     0.120 A 
HETATM   22  C   UNL     1      44.302 -16.740   7.050  1.00  0.00     0.040 A 
HETATM   23  C   UNL     1      43.456 -16.162   8.003  1.00  0.00     0.140 A 
HETATM   24  N   UNL     1      42.560 -15.341   7.459  1.00  0.00    -0.180 NA
ENDBRANCH  16  20
ENDBRANCH   1  13
BRANCH   9  25
HETATM   25  O   UNL     1      36.080 -12.835  -3.754  1.00  0.00    -0.361 OA
HETATM   26  H   UNL     1      35.396 -13.519  -3.670  1.00  0.00     0.217 HD
ENDBRANCH   9  25
TORSDOF 3
ENDMDL
MODEL 8
REMARK VINA RESULT:      -7.5      4.458      7.607
REMARK  3 active torsions:
REMARK  status: ('A' for Active; 'I' for Inactive)
REMARK    1  A    between atoms: N_3  and  C_4 
REMARK    2  A    between atoms: C_8  and  C_9 
REMARK       I    between atoms: C_9  and  N_10 
REMARK    3  A    between atoms: C_17  and  O_18 
ROOT
HETATM    1  C   UNL     1      42.876 -12.294   3.631  1.00  0.00     0.254 C 
HETATM    2  N   UNL     1      41.837 -11.724   4.359  1.00  0.00    -0.343 N 
HETATM    3  C   UNL     1      41.937 -10.298   4.647  1.00  0.00     0.165 C 
HETATM    4  C   UNL     1      41.073  -9.870   5.813  1.00  0.00    -0.031 A 
HETATM    5  C   UNL     1      40.059 -10.705   6.324  1.00  0.00    -0.049 A 
HETATM    6  C   UNL     1      39.852 -12.093   5.766  1.00  0.00     0.059 C 
HETATM    7  C   UNL     1      40.475 -12.256   4.381  1.00  0.00     0.131 C 
HETATM    8  C   UNL     1      41.270  -8.600   6.379  1.00  0.00     0.046 A 
HETATM    9  C   UNL     1      40.484  -8.188   7.451  1.00  0.00     0.066 A 
HETATM   10  C   UNL     1      39.494  -9.013   7.969  1.00  0.00     0.037 A 
HETATM   11  C   UNL     1      39.281 -10.272   7.408  1.00  0.00     0.010 A 
HETATM   12  O   UNL     1      43.778 -11.635   3.119  1.00  0.00    -0.267 OA
ENDROOT
BRANCH   1  13
HETATM   13  C   UNL     1      42.950 -13.771   3.517  1.00  0.00     0.035 A 
HETATM   14  C   UNL     1      43.070 -14.345   2.250  1.00  0.00     0.061 A 
HETATM   15  C   UNL     1      43.222 -15.725   2.122  1.00  0.00     0.146 A 
HETATM   16  C   UNL     1      43.269 -16.551   3.249  1.00  0.00     0.096 A 
HETATM   17  F   UNL     1      43.320 -16.214   0.878  1.00  0.00    -0.204 F 
HETATM   18  C   UNL     1      43.160 -15.964   4.522  1.00  0.00     0.036 A 
HETATM   19  C   UNL     1      43.016 -14.580   4.656  1.00  0.00     0.019 A 
BRANCH  16  20
HETATM   20  N   UNL     1      43.443 -17.959   3.151  1.00  0.00    -0.242 N 
HETATM   21  C   UNL     1      43.003 -18.830   2.177  1.00  0.00     0.120 A 
HETATM   22  C   UNL     1      43.435 -20.088   2.522  1.00  0.00     0.040 A 
HETATM   23  C   UNL     1      44.129 -19.902   3.722  1.00  0.00     0.140 A 
HETATM   24  N   UNL     1      44.144 -18.628   4.112  1.00  0.00    -0.180 NA
ENDBRANCH  16  20
ENDBRANCH   1  13
BRANCH   9  25
HETATM   25  O   UNL     1      40.661  -6.968   8.034  1.00  0.00    -0.361 OA
HETATM   26  H   UNL     1      40.159  -6.945   8.864  1.00  0.00     0.217 HD
ENDBRANCH   9  25
TORSDOF 3
ENDMDL
MODEL 9
REMARK VINA RESULT:      -7.5      4.532      6.952
REMARK  3 active torsions:
REMARK  status: ('A' for Active; 'I' for Inactive)
REMARK    1  A    between atoms: N_3  and  C_4 
REMARK    2  A    between atoms: C_8  and  C_9 
REMARK       I    between atoms: C_9  and  N_10 
REMARK    3  A    between atoms: C_17  and  O_18 
ROOT
HETATM    1  C   UNL     1      42.257 -14.377   4.852  1.00  0.00     0.254 C 
HETATM    2  N   UNL     1      42.269 -15.668   4.334  1.00  0.00    -0.343 N 
HETATM    3  C   UNL     1      42.729 -16.731   5.219  1.00  0.00     0.165 C 
HETATM    4  C   UNL     1      43.174 -17.969   4.471  1.00  0.00    -0.031 A 
HETATM    5  C   UNL     1      42.859 -18.161   3.111  1.00  0.00    -0.049 A 
HETATM    6  C   UNL     1      42.126 -17.094   2.334  1.00  0.00     0.059 C 
HETATM    7  C   UNL     1      41.395 -16.113   3.249  1.00  0.00     0.131 C 
HETATM    8  C   UNL     1      43.893 -18.960   5.158  1.00  0.00     0.046 A 
HETATM    9  C   UNL     1      44.310 -20.106   4.489  1.00  0.00     0.066 A 
HETATM   10  C   UNL     1      44.015 -20.294   3.145  1.00  0.00     0.037 A 
HETATM   11  C   UNL     1      43.292 -19.322   2.454  1.00  0.00     0.010 A 
HETATM   12  O   UNL     1      42.482 -14.125   6.033  1.00  0.00    -0.267 OA
ENDROOT
BRANCH   1  13
HETATM   13  C   UNL     1      42.032 -13.233   3.934  1.00  0.00     0.035 A 
HETATM   14  C   UNL     1      40.724 -12.896   3.585  1.00  0.00     0.061 A 
HETATM   15  C   UNL     1      40.483 -11.776   2.788  1.00  0.00     0.146 A 
HETATM   16  C   UNL     1      41.535 -10.973   2.338  1.00  0.00     0.096 A 
HETATM   17  F   UNL     1      39.206 -11.513   2.479  1.00  0.00    -0.204 F 
HETATM   18  C   UNL     1      42.850 -11.314   2.705  1.00  0.00     0.036 A 
HETATM   19  C   UNL     1      43.096 -12.430   3.510  1.00  0.00     0.019 A 
BRANCH  16  20
HETATM   20  N   UNL     1      41.319  -9.815   1.542  1.00  0.00    -0.242 N 
HETATM   21  C   UNL     1      40.577  -8.687   1.821  1.00  0.00     0.120 A 
HETATM   22  C   UNL     1      40.689  -7.842   0.743  1.00  0.00     0.040 A 
HETATM   23  C   UNL     1      41.513  -8.529  -0.155  1.00  0.00     0.140 A 
HETATM   24  N   UNL     1      41.900  -9.715   0.312  1.00  0.00    -0.180 NA
ENDBRANCH  16  20
ENDBRANCH   1  13
BRANCH   9  25
HETATM   25  O   UNL     1      45.023 -21.080   5.123  1.00  0.00    -0.361 OA
HETATM   26  H   UNL     1      45.629 -20.659   5.755  1.00  0.00     0.217 HD
ENDBRANCH   9  25
TORSDOF 3
ENDMDL
MODEL 10
REMARK VINA RESULT:      -7.4      4.536      7.934
REMARK  3 active torsions:
REMARK  status: ('A' for Active; 'I' for Inactive)
REMARK    1  A    between atoms: N_3  and  C_4 
REMARK    2  A    between atoms: C_8  and  C_9 
REMARK       I    between atoms: C_9  and  N_10 
REMARK    3  A    between atoms: C_17  and  O_18 
ROOT
HETATM    1  C   UNL     1      40.096 -13.529   3.007  1.00  0.00     0.254 C 
HETATM    2  N   UNL     1      40.752 -14.746   3.165  1.00  0.00    -0.343 N 
HETATM    3  C   UNL     1      40.745 -15.331   4.500  1.00  0.00     0.165 C 
HETATM    4  C   UNL     1      41.849 -16.347   4.704  1.00  0.00    -0.031 A 
HETATM    5  C   UNL     1      42.569 -16.880   3.616  1.00  0.00    -0.049 A 
HETATM    6  C   UNL     1      42.309 -16.394   2.210  1.00  0.00     0.059 C 
HETATM    7  C   UNL     1      40.952 -15.705   2.079  1.00  0.00     0.131 C 
HETATM    8  C   UNL     1      42.141 -16.786   6.005  1.00  0.00     0.046 A 
HETATM    9  C   UNL     1      43.150 -17.721   6.213  1.00  0.00     0.066 A 
HETATM   10  C   UNL     1      43.873 -18.238   5.146  1.00  0.00     0.037 A 
HETATM   11  C   UNL     1      43.586 -17.818   3.848  1.00  0.00     0.010 A 
HETATM   12  O   UNL     1      39.416 -13.012   3.891  1.00  0.00    -0.267 OA
ENDROOT
BRANCH   1  13
HETATM   13  C   UNL     1      40.273 -12.773   1.743  1.00  0.00     0.035 A 
HETATM   14  C   UNL     1      39.344 -12.948   0.716  1.00  0.00     0.061 A 
HETATM   15  C   UNL     1      39.443 -12.190  -0.450  1.00  0.00     0.146 A 
HETATM   16  C   UNL     1      40.459 -11.241  -0.607  1.00  0.00     0.096 A 
HETATM   17  F   UNL     1      38.528 -12.413  -1.402  1.00  0.00    -0.204 F 
HETATM   18  C   UNL     1      41.384 -11.063   0.437  1.00  0.00     0.036 A 
HETATM   19  C   UNL     1      41.283 -11.815   1.612  1.00  0.00     0.019 A 
BRANCH  16  20
HETATM   20  N   UNL     1      40.574 -10.440  -1.775  1.00  0.00    -0.242 N 
HETATM   21  C   UNL     1      40.801 -10.823  -3.080  1.00  0.00     0.120 A 
HETATM   22  C   UNL     1      40.815  -9.684  -3.849  1.00  0.00     0.040 A 
HETATM   23  C   UNL     1      40.595  -8.645  -2.938  1.00  0.00     0.140 A 
HETATM   24  N   UNL     1      40.447  -9.084  -1.689  1.00  0.00    -0.180 NA
ENDBRANCH  16  20
ENDBRANCH   1  13
BRANCH   9  25
HETATM   25  O   UNL     1      43.469 -18.156   7.465  1.00  0.00    -0.361 OA
HETATM   26  H   UNL     1      43.695 -17.387   8.013  1.00  0.00     0.217 HD
ENDBRANCH   9  25
TORSDOF 3
ENDMDL
