MODEL 1
REMARK VINA RESULT:      -7.6      0.000      0.000
REMARK  5 active torsions:
REMARK  status: ('A' for Active; 'I' for Inactive)
REMARK    1  A    between atoms: C_4  and  C_5 
REMARK    2  A    between atoms: C_5  and  N_6 
REMARK    3  A    between atoms: N_6  and  C_9 
REMARK    4  A    between atoms: C_12  and  O_13 
REMARK    5  A    between atoms: O_13  and  C_14 
ROOT
HETATM    1  C   UNL     1      43.249 -15.944   3.940  1.00  0.00     0.164 A 
HETATM    2  N   UNL     1      43.842 -16.847   4.748  1.00  0.00    -0.236 NA
HETATM    3  C   UNL     1      43.979 -18.104   4.253  1.00  0.00     0.142 A 
HETATM    4  C   UNL     1      43.541 -18.496   2.995  1.00  0.00     0.062 A 
HETATM    5  C   UNL     1      43.726 -19.838   2.545  1.00  0.00     0.101 C 
HETATM    6  N   UNL     1      43.875 -20.930   2.184  1.00  0.00    -0.191 NA
HETATM    7  C   UNL     1      42.920 -17.539   2.192  1.00  0.00     0.028 A 
HETATM    8  C   UNL     1      42.769 -16.240   2.673  1.00  0.00     0.059 A 
ENDROOT
BRANCH   1   9
HETATM    9  O   UNL     1      43.065 -14.649   4.375  1.00  0.00    -0.329 OA
BRANCH   9  10
HETATM   10  C   UNL     1      42.827 -14.504   5.781  1.00  0.00     0.130 C 
HETATM   11  C   UNL     1      43.871 -13.501   6.297  1.00  0.00     0.034 C 
HETATM   12  C   UNL     1      43.713 -12.124   5.644  1.00  0.00     0.035 C 
HETATM   13  C   UNL     1      42.299 -11.550   5.782  1.00  0.00     0.186 C 
HETATM   14  C   UNL     1      41.225 -12.568   5.380  1.00  0.00     0.035 C 
HETATM   15  C   UNL     1      41.417 -13.945   6.024  1.00  0.00     0.034 C 
BRANCH  13  16
HETATM   16  N   UNL     1      42.048 -11.112   7.190  1.00  0.00    -0.065 N 
HETATM   17  H   UNL     1      42.502 -11.711   7.890  1.00  0.00     0.278 HD
HETATM   18  H   UNL     1      41.045 -11.202   7.426  1.00  0.00     0.278 HD
BRANCH  16  19
HETATM   19  C   UNL     1      42.389  -9.679   7.521  1.00  0.00     0.299 C 
BRANCH  19  20
HETATM   20  C   UNL     1      43.210  -9.618   8.769  1.00  0.00     0.101 A 
HETATM   21  N   UNL     1      42.788  -9.028   9.870  1.00  0.00    -0.249 NA
HETATM   22  C   UNL     1      43.768  -9.128  10.851  1.00  0.00     0.038 A 
HETATM   23  C   UNL     1      43.521  -8.535  12.193  1.00  0.00     0.071 C 
HETATM   24  C   UNL     1      44.915  -9.793  10.457  1.00  0.00     0.078 A 
HETATM   25  S   UNL     1      44.772 -10.311   8.831  1.00  0.00    -0.083 SA
ENDBRANCH  19  20
ENDBRANCH  16  19
ENDBRANCH  13  16
ENDBRANCH   9  10
ENDBRANCH   1   9
TORSDOF 5
ENDMDL
MODEL 2
REMARK VINA RESULT:      -7.0      5.823      7.828
REMARK  5 active torsions:
REMARK  status: ('A' for Active; 'I' for Inactive)
REMARK    1  A    between atoms: C_4  and  C_5 
REMARK    2  A    between atoms: C_5  and  N_6 
REMARK    3  A    between atoms: N_6  and  C_9 
REMARK    4  A    between atoms: C_12  and  O_13 
REMARK    5  A    between atoms: O_13  and  C_14 
ROOT
HETATM    1  C   UNL     1      43.107 -16.335   3.153  1.00  0.00     0.164 A 
HETATM    2  N   UNL     1      43.396 -16.381   4.470  1.00  0.00    -0.236 NA
HETATM    3  C   UNL     1      43.799 -17.581   4.959  1.00  0.00     0.142 A 
HETATM    4  C   UNL     1      43.915 -18.734   4.194  1.00  0.00     0.062 A 
HETATM    5  C   UNL     1      44.349 -19.959   4.783  1.00  0.00     0.101 C 
HETATM    6  N   UNL     1      44.700 -20.954   5.265  1.00  0.00    -0.191 NA
HETATM    7  C   UNL     1      43.594 -18.652   2.839  1.00  0.00     0.028 A 
HETATM    8  C   UNL     1      43.180 -17.432   2.308  1.00  0.00     0.059 A 
ENDROOT
BRANCH   1   9
HETATM    9  O   UNL     1      42.681 -15.153   2.584  1.00  0.00    -0.329 OA
BRANCH   9  10
HETATM   10  C   UNL     1      41.596 -15.276   1.656  1.00  0.00     0.130 C 
HETATM   11  C   UNL     1      40.317 -15.399   2.498  1.00  0.00     0.034 C 
HETATM   12  C   UNL     1      40.072 -14.151   3.352  1.00  0.00     0.035 C 
HETATM   13  C   UNL     1      40.058 -12.855   2.536  1.00  0.00     0.186 C 
HETATM   14  C   UNL     1      41.268 -12.754   1.600  1.00  0.00     0.035 C 
HETATM   15  C   UNL     1      41.510 -14.021   0.774  1.00  0.00     0.034 C 
BRANCH  13  16
HETATM   16  N   UNL     1      38.807 -12.763   1.721  1.00  0.00    -0.065 N 
HETATM   17  H   UNL     1      37.950 -12.881   2.276  1.00  0.00     0.278 HD
HETATM   18  H   UNL     1      38.753 -13.546   1.047  1.00  0.00     0.278 HD
BRANCH  16  19
HETATM   19  C   UNL     1      38.641 -11.523   0.878  1.00  0.00     0.299 C 
BRANCH  19  20
HETATM   20  C   UNL     1      38.680 -11.875  -0.575  1.00  0.00     0.101 A 
HETATM   21  N   UNL     1      38.600 -13.117  -1.008  1.00  0.00    -0.249 NA
HETATM   22  C   UNL     1      38.670 -13.127  -2.397  1.00  0.00     0.038 A 
HETATM   23  C   UNL     1      38.599 -14.423  -3.123  1.00  0.00     0.071 C 
HETATM   24  C   UNL     1      38.806 -11.878  -2.977  1.00  0.00     0.078 A 
HETATM   25  S   UNL     1      38.844 -10.663  -1.771  1.00  0.00    -0.083 SA
ENDBRANCH  19  20
ENDBRANCH  16  19
ENDBRANCH  13  16
ENDBRANCH   9  10
ENDBRANCH   1   9
TORSDOF 5
ENDMDL
MODEL 3
REMARK VINA RESULT:      -6.8      4.422     10.717
REMARK  5 active torsions:
REMARK  status: ('A' for Active; 'I' for Inactive)
REMARK    1  A    between atoms: C_4  and  C_5 
REMARK    2  A    between atoms: C_5  and  N_6 
REMARK    3  A    between atoms: N_6  and  C_9 
REMARK    4  A    between atoms: C_12  and  O_13 
REMARK    5  A    between atoms: O_13  and  C_14 
ROOT
HETATM    1  C   UNL     1      42.961  -8.181  13.141  1.00  0.00     0.164 A 
HETATM    2  N   UNL     1      41.966  -9.042  13.442  1.00  0.00    -0.236 NA
HETATM    3  C   UNL     1      41.329  -8.842  14.623  1.00  0.00     0.142 A 
HETATM    4  C   UNL     1      41.648  -7.828  15.516  1.00  0.00     0.062 A 
HETATM    5  C   UNL     1      40.927  -7.681  16.740  1.00  0.00     0.101 C 
HETATM    6  N   UNL     1      40.340  -7.566  17.733  1.00  0.00    -0.191 NA
HETATM    7  C   UNL     1      42.691  -6.965  15.180  1.00  0.00     0.028 A 
HETATM    8  C   UNL     1      43.362  -7.146  13.971  1.00  0.00     0.059 A 
ENDROOT
BRANCH   1   9
HETATM    9  O   UNL     1      43.662  -8.326  11.963  1.00  0.00    -0.329 OA
BRANCH   9  10
HETATM   10  C   UNL     1      42.982  -9.053  10.931  1.00  0.00     0.130 C 
HETATM   11  C   UNL     1      42.937  -8.126   9.706  1.00  0.00     0.034 C 
HETATM   12  C   UNL     1      44.340  -7.781   9.198  1.00  0.00     0.035 C 
HETATM   13  C   UNL     1      45.198  -9.017   8.908  1.00  0.00     0.186 C 
HETATM   14  C   UNL     1      45.174 -10.016  10.071  1.00  0.00     0.035 C 
HETATM   15  C   UNL     1      43.763 -10.328  10.580  1.00  0.00     0.034 C 
BRANCH  13  16
HETATM   16  N   UNL     1      44.722  -9.705   7.668  1.00  0.00    -0.065 N 
HETATM   17  H   UNL     1      44.846  -9.143   6.817  1.00  0.00     0.278 HD
HETATM   18  H   UNL     1      43.699  -9.848   7.701  1.00  0.00     0.278 HD
BRANCH  16  19
HETATM   19  C   UNL     1      45.290 -11.077   7.399  1.00  0.00     0.299 C 
BRANCH  19  20
HETATM   20  C   UNL     1      44.478 -11.779   6.357  1.00  0.00     0.101 A 
HETATM   21  N   UNL     1      44.261 -11.268   5.161  1.00  0.00    -0.249 NA
HETATM   22  C   UNL     1      43.472 -12.143   4.423  1.00  0.00     0.038 A 
HETATM   23  C   UNL     1      43.092 -11.785   3.030  1.00  0.00     0.071 C 
HETATM   24  C   UNL     1      43.109 -13.298   5.091  1.00  0.00     0.078 A 
HETATM   25  S   UNL     1      43.766 -13.301   6.673  1.00  0.00    -0.083 SA
ENDBRANCH  19  20
ENDBRANCH  16  19
ENDBRANCH  13  16
ENDBRANCH   9  10
ENDBRANCH   1   9
TORSDOF 5
ENDMDL
MODEL 4
REMARK VINA RESULT:      -6.5      3.620      4.563
REMARK  5 active torsions:
REMARK  status: ('A' for Active; 'I' for Inactive)
REMARK    1  A    between atoms: C_4  and  C_5 
REMARK    2  A    between atoms: C_5  and  N_6 
REMARK    3  A    between atoms: N_6  and  C_9 
REMARK    4  A    between atoms: C_12  and  O_13 
REMARK    5  A    between atoms: O_13  and  C_14 
ROOT
HETATM    1  C   UNL     1      43.251 -16.059   3.781  1.00  0.00     0.164 A 
HETATM    2  N   UNL     1      43.650 -16.975   4.689  1.00  0.00    -0.236 NA
HETATM    3  C   UNL     1      43.815 -18.244   4.237  1.00  0.00     0.142 A 
HETATM    4  C   UNL     1      43.590 -18.637   2.924  1.00  0.00     0.062 A 
HETATM    5  C   UNL     1      43.790 -19.993   2.526  1.00  0.00     0.101 C 
HETATM    6  N   UNL     1      43.951 -21.096   2.206  1.00  0.00    -0.191 NA
HETATM    7  C   UNL     1      43.166 -17.667   2.016  1.00  0.00     0.028 A 
HETATM    8  C   UNL     1      42.990 -16.355   2.452  1.00  0.00     0.059 A 
ENDROOT
BRANCH   1   9
HETATM    9  O   UNL     1      43.053 -14.751   4.166  1.00  0.00    -0.329 OA
BRANCH   9  10
HETATM   10  C   UNL     1      41.930 -14.098   3.560  1.00  0.00     0.130 C 
HETATM   11  C   UNL     1      40.674 -14.745   4.164  1.00  0.00     0.034 C 
HETATM   12  C   UNL     1      40.590 -14.527   5.678  1.00  0.00     0.035 C 
HETATM   13  C   UNL     1      40.683 -13.052   6.081  1.00  0.00     0.186 C 
HETATM   14  C   UNL     1      41.865 -12.347   5.405  1.00  0.00     0.035 C 
HETATM   15  C   UNL     1      41.945 -12.599   3.896  1.00  0.00     0.034 C 
BRANCH  13  16
HETATM   16  N   UNL     1      39.422 -12.331   5.725  1.00  0.00    -0.065 N 
HETATM   17  H   UNL     1      38.578 -12.908   5.835  1.00  0.00     0.278 HD
HETATM   18  H   UNL     1      39.409 -12.095   4.719  1.00  0.00     0.278 HD
BRANCH  16  19
HETATM   19  C   UNL     1      39.175 -11.018   6.427  1.00  0.00     0.299 C 
BRANCH  19  20
HETATM   20  C   UNL     1      38.666 -10.000   5.457  1.00  0.00     0.101 A 
HETATM   21  N   UNL     1      37.893  -8.996   5.820  1.00  0.00    -0.249 NA
HETATM   22  C   UNL     1      37.580  -8.228   4.704  1.00  0.00     0.038 A 
HETATM   23  C   UNL     1      36.714  -7.029   4.862  1.00  0.00     0.071 C 
HETATM   24  C   UNL     1      38.129  -8.682   3.518  1.00  0.00     0.078 A 
HETATM   25  S   UNL     1      39.058 -10.093   3.795  1.00  0.00    -0.083 SA
ENDBRANCH  19  20
ENDBRANCH  16  19
ENDBRANCH  13  16
ENDBRANCH   9  10
ENDBRANCH   1   9
TORSDOF 5
ENDMDL
MODEL 5
REMARK VINA RESULT:      -6.4      5.464      9.164
REMARK  5 active torsions:
REMARK  status: ('A' for Active; 'I' for Inactive)
REMARK    1  A    between atoms: C_4  and  C_5 
REMARK    2  A    between atoms: C_5  and  N_6 
REMARK    3  A    between atoms: N_6  and  C_9 
REMARK    4  A    between atoms: C_12  and  O_13 
REMARK    5  A    between atoms: O_13  and  C_14 
ROOT
HETATM    1  C   UNL     1      42.107 -13.838   5.023  1.00  0.00     0.164 A 
HETATM    2  N   UNL     1      41.789 -12.542   5.221  1.00  0.00    -0.236 NA
HETATM    3  C   UNL     1      42.553 -11.860   6.113  1.00  0.00     0.142 A 
HETATM    4  C   UNL     1      43.609 -12.420   6.818  1.00  0.00     0.062 A 
HETATM    5  C   UNL     1      44.368 -11.634   7.737  1.00  0.00     0.101 C 
HETATM    6  N   UNL     1      44.982 -10.994   8.485  1.00  0.00    -0.191 NA
HETATM    7  C   UNL     1      43.901 -13.766   6.599  1.00  0.00     0.028 A 
HETATM    8  C   UNL     1      43.135 -14.490   5.687  1.00  0.00     0.059 A 
ENDROOT
BRANCH   1   9
HETATM    9  O   UNL     1      41.370 -14.599   4.140  1.00  0.00    -0.329 OA
BRANCH   9  10
HETATM   10  C   UNL     1      42.072 -15.024   2.965  1.00  0.00     0.130 C 
HETATM   11  C   UNL     1      41.148 -16.016   2.243  1.00  0.00     0.034 C 
HETATM   12  C   UNL     1      39.836 -15.360   1.801  1.00  0.00     0.035 C 
HETATM   13  C   UNL     1      40.047 -14.103   0.951  1.00  0.00     0.186 C 
HETATM   14  C   UNL     1      41.053 -13.139   1.593  1.00  0.00     0.035 C 
HETATM   15  C   UNL     1      42.347 -13.821   2.050  1.00  0.00     0.034 C 
BRANCH  13  16
HETATM   16  N   UNL     1      40.533 -14.470  -0.415  1.00  0.00    -0.065 N 
HETATM   17  H   UNL     1      41.111 -15.320  -0.426  1.00  0.00     0.278 HD
HETATM   18  H   UNL     1      41.178 -13.749  -0.778  1.00  0.00     0.278 HD
BRANCH  16  19
HETATM   19  C   UNL     1      39.481 -14.616  -1.487  1.00  0.00     0.299 C 
BRANCH  19  20
HETATM   20  C   UNL     1      39.091 -13.272  -2.016  1.00  0.00     0.101 A 
HETATM   21  N   UNL     1      37.873 -12.784  -1.890  1.00  0.00    -0.249 NA
HETATM   22  C   UNL     1      37.816 -11.529  -2.483  1.00  0.00     0.038 A 
HETATM   23  C   UNL     1      36.536 -10.771  -2.467  1.00  0.00     0.071 C 
HETATM   24  C   UNL     1      39.004 -11.102  -3.049  1.00  0.00     0.078 A 
HETATM   25  S   UNL     1      40.223 -12.287  -2.836  1.00  0.00    -0.083 SA
ENDBRANCH  19  20
ENDBRANCH  16  19
ENDBRANCH  13  16
ENDBRANCH   9  10
ENDBRANCH   1   9
TORSDOF 5
ENDMDL
MODEL 6
REMARK VINA RESULT:      -6.4      2.083      2.781
REMARK  5 active torsions:
REMARK  status: ('A' for Active; 'I' for Inactive)
REMARK    1  A    between atoms: C_4  and  C_5 
REMARK    2  A    between atoms: C_5  and  N_6 
REMARK    3  A    between atoms: N_6  and  C_9 
REMARK    4  A    between atoms: C_12  and  O_13 
REMARK    5  A    between atoms: O_13  and  C_14 
ROOT
HETATM    1  C   UNL     1      41.921 -14.385   2.598  1.00  0.00     0.164 A 
HETATM    2  N   UNL     1      41.181 -15.292   3.269  1.00  0.00    -0.236 NA
HETATM    3  C   UNL     1      41.569 -16.589   3.162  1.00  0.00     0.142 A 
HETATM    4  C   UNL     1      42.655 -17.015   2.409  1.00  0.00     0.062 A 
HETATM    5  C   UNL     1      43.002 -18.399   2.349  1.00  0.00     0.101 C 
HETATM    6  N   UNL     1      43.280 -19.524   2.301  1.00  0.00    -0.191 NA
HETATM    7  C   UNL     1      43.389 -16.052   1.717  1.00  0.00     0.028 A 
HETATM    8  C   UNL     1      43.014 -14.713   1.811  1.00  0.00     0.059 A 
ENDROOT
BRANCH   1   9
HETATM    9  O   UNL     1      41.583 -13.049   2.650  1.00  0.00    -0.329 OA
BRANCH   9  10
HETATM   10  C   UNL     1      42.577 -12.188   3.220  1.00  0.00     0.130 C 
HETATM   11  C   UNL     1      42.166 -10.753   2.857  1.00  0.00     0.034 C 
HETATM   12  C   UNL     1      40.809 -10.376   3.459  1.00  0.00     0.035 C 
HETATM   13  C   UNL     1      40.741 -10.589   4.975  1.00  0.00     0.186 C 
HETATM   14  C   UNL     1      41.251 -11.978   5.381  1.00  0.00     0.035 C 
HETATM   15  C   UNL     1      42.597 -12.344   4.748  1.00  0.00     0.034 C 
BRANCH  13  16
HETATM   16  N   UNL     1      41.548  -9.550   5.686  1.00  0.00    -0.065 N 
HETATM   17  H   UNL     1      41.290  -8.589   5.430  1.00  0.00     0.278 HD
HETATM   18  H   UNL     1      42.541  -9.604   5.404  1.00  0.00     0.278 HD
BRANCH  16  19
HETATM   19  C   UNL     1      41.575  -9.633   7.193  1.00  0.00     0.299 C 
BRANCH  19  20
HETATM   20  C   UNL     1      42.972  -9.452   7.696  1.00  0.00     0.101 A 
HETATM   21  N   UNL     1      43.946 -10.294   7.412  1.00  0.00    -0.249 NA
HETATM   22  C   UNL     1      45.118  -9.867   8.024  1.00  0.00     0.038 A 
HETATM   23  C   UNL     1      46.365 -10.658   7.847  1.00  0.00     0.071 C 
HETATM   24  C   UNL     1      44.994  -8.704   8.763  1.00  0.00     0.078 A 
HETATM   25  S   UNL     1      43.383  -8.126   8.694  1.00  0.00    -0.083 SA
ENDBRANCH  19  20
ENDBRANCH  16  19
ENDBRANCH  13  16
ENDBRANCH   9  10
ENDBRANCH   1   9
TORSDOF 5
ENDMDL
MODEL 7
REMARK VINA RESULT:      -6.3      4.991     12.347
REMARK  5 active torsions:
REMARK  status: ('A' for Active; 'I' for Inactive)
REMARK    1  A    between atoms: C_4  and  C_5 
REMARK    2  A    between atoms: C_5  and  N_6 
REMARK    3  A    between atoms: N_6  and  C_9 
REMARK    4  A    between atoms: C_12  and  O_13 
REMARK    5  A    between atoms: O_13  and  C_14 
ROOT
HETATM    1  C   UNL     1      41.126  -7.050  15.163  1.00  0.00     0.164 A 
HETATM    2  N   UNL     1      41.228  -5.704  15.178  1.00  0.00    -0.236 NA
HETATM    3  C   UNL     1      41.251  -5.113  16.400  1.00  0.00     0.142 A 
HETATM    4  C   UNL     1      41.168  -5.806  17.600  1.00  0.00     0.062 A 
HETATM    5  C   UNL     1      41.202  -5.110  18.847  1.00  0.00     0.101 C 
HETATM    6  N   UNL     1      41.228  -4.542  19.857  1.00  0.00    -0.191 NA
HETATM    7  C   UNL     1      41.050  -7.194  17.546  1.00  0.00     0.028 A 
HETATM    8  C   UNL     1      41.026  -7.828  16.305  1.00  0.00     0.059 A 
ENDROOT
BRANCH   1   9
HETATM    9  O   UNL     1      41.087  -7.722  13.959  1.00  0.00    -0.329 OA
BRANCH   9  10
HETATM   10  C   UNL     1      41.989  -8.830  13.847  1.00  0.00     0.130 C 
HETATM   11  C   UNL     1      41.236  -9.924  13.075  1.00  0.00     0.034 C 
HETATM   12  C   UNL     1      40.862  -9.472  11.660  1.00  0.00     0.035 C 
HETATM   13  C   UNL     1      42.061  -8.967  10.851  1.00  0.00     0.186 C 
HETATM   14  C   UNL     1      42.899  -7.953  11.639  1.00  0.00     0.035 C 
HETATM   15  C   UNL     1      43.240  -8.415  13.059  1.00  0.00     0.034 C 
BRANCH  13  16
HETATM   16  N   UNL     1      42.938 -10.110  10.448  1.00  0.00    -0.065 N 
HETATM   17  H   UNL     1      42.532 -10.692   9.704  1.00  0.00     0.278 HD
HETATM   18  H   UNL     1      43.047 -10.779  11.228  1.00  0.00     0.278 HD
BRANCH  16  19
HETATM   19  C   UNL     1      44.350  -9.766  10.042  1.00  0.00     0.299 C 
BRANCH  19  20
HETATM   20  C   UNL     1      44.714 -10.477   8.778  1.00  0.00     0.101 A 
HETATM   21  N   UNL     1      44.062 -11.537   8.344  1.00  0.00    -0.249 NA
HETATM   22  C   UNL     1      44.633 -11.976   7.156  1.00  0.00     0.038 A 
HETATM   23  C   UNL     1      44.065 -13.166   6.468  1.00  0.00     0.071 C 
HETATM   24  C   UNL     1      45.715 -11.229   6.724  1.00  0.00     0.078 A 
HETATM   25  S   UNL     1      46.028  -9.949   7.818  1.00  0.00    -0.083 SA
ENDBRANCH  19  20
ENDBRANCH  16  19
ENDBRANCH  13  16
ENDBRANCH   9  10
ENDBRANCH   1   9
TORSDOF 5
ENDMDL
MODEL 8
REMARK VINA RESULT:      -6.3      6.446     10.149
REMARK  5 active torsions:
REMARK  status: ('A' for Active; 'I' for Inactive)
REMARK    1  A    between atoms: C_4  and  C_5 
REMARK    2  A    between atoms: C_5  and  N_6 
REMARK    3  A    between atoms: N_6  and  C_9 
REMARK    4  A    between atoms: C_12  and  O_13 
REMARK    5  A    between atoms: O_13  and  C_14 
ROOT
HETATM    1  C   UNL     1      43.011  -8.862  10.936  1.00  0.00     0.164 A 
HETATM    2  N   UNL     1      42.401  -9.075   9.752  1.00  0.00    -0.236 NA
HETATM    3  C   UNL     1      43.128  -9.718   8.803  1.00  0.00     0.142 A 
HETATM    4  C   UNL     1      44.437 -10.145   8.983  1.00  0.00     0.062 A 
HETATM    5  C   UNL     1      45.134 -10.818   7.935  1.00  0.00     0.101 C 
HETATM    6  N   UNL     1      45.699 -11.363   7.082  1.00  0.00    -0.191 NA
HETATM    7  C   UNL     1      45.041  -9.895  10.215  1.00  0.00     0.028 A 
HETATM    8  C   UNL     1      44.317  -9.240  11.209  1.00  0.00     0.059 A 
ENDROOT
BRANCH   1   9
HETATM    9  O   UNL     1      42.340  -8.207  11.947  1.00  0.00    -0.329 OA
BRANCH   9  10
HETATM   10  C   UNL     1      42.848  -8.435  13.267  1.00  0.00     0.130 C 
HETATM   11  C   UNL     1      43.339  -7.074  13.784  1.00  0.00     0.034 C 
HETATM   12  C   UNL     1      42.200  -6.055  13.884  1.00  0.00     0.035 C 
HETATM   13  C   UNL     1      41.015  -6.554  14.717  1.00  0.00     0.186 C 
HETATM   14  C   UNL     1      40.571  -7.960  14.299  1.00  0.00     0.035 C 
HETATM   15  C   UNL     1      41.729  -8.957  14.181  1.00  0.00     0.034 C 
BRANCH  13  16
HETATM   16  N   UNL     1      41.368  -6.570  16.171  1.00  0.00    -0.065 N 
HETATM   17  H   UNL     1      41.832  -5.709  16.487  1.00  0.00     0.278 HD
HETATM   18  H   UNL     1      42.078  -7.296  16.365  1.00  0.00     0.278 HD
BRANCH  16  19
HETATM   19  C   UNL     1      40.246  -6.868  17.134  1.00  0.00     0.299 C 
BRANCH  19  20
HETATM   20  C   UNL     1      40.772  -7.580  18.339  1.00  0.00     0.101 A 
HETATM   21  N   UNL     1      40.070  -8.479  18.998  1.00  0.00    -0.249 NA
HETATM   22  C   UNL     1      40.818  -8.956  20.069  1.00  0.00     0.038 A 
HETATM   23  C   UNL     1      40.235  -9.989  20.966  1.00  0.00     0.071 C 
HETATM   24  C   UNL     1      42.076  -8.393  20.190  1.00  0.00     0.078 A 
HETATM   25  S   UNL     1      42.337  -7.248  18.944  1.00  0.00    -0.083 SA
ENDBRANCH  19  20
ENDBRANCH  16  19
ENDBRANCH  13  16
ENDBRANCH   9  10
ENDBRANCH   1   9
TORSDOF 5
ENDMDL
MODEL 9
REMARK VINA RESULT:      -6.3     16.798     19.450
REMARK  5 active torsions:
REMARK  status: ('A' for Active; 'I' for Inactive)
REMARK    1  A    between atoms: C_4  and  C_5 
REMARK    2  A    between atoms: C_5  and  N_6 
REMARK    3  A    between atoms: N_6  and  C_9 
REMARK    4  A    between atoms: C_12  and  O_13 
REMARK    5  A    between atoms: O_13  and  C_14 
ROOT
HETATM    1  C   UNL     1      51.015 -31.733   5.424  1.00  0.00     0.164 A 
HETATM    2  N   UNL     1      52.183 -31.100   5.663  1.00  0.00    -0.236 NA
HETATM    3  C   UNL     1      52.846 -31.459   6.791  1.00  0.00     0.142 A 
HETATM    4  C   UNL     1      52.388 -32.412   7.692  1.00  0.00     0.062 A 
HETATM    5  C   UNL     1      53.147 -32.737   8.857  1.00  0.00     0.101 C 
HETATM    6  N   UNL     1      53.765 -32.997   9.803  1.00  0.00    -0.191 NA
HETATM    7  C   UNL     1      51.171 -33.035   7.421  1.00  0.00     0.028 A 
HETATM    8  C   UNL     1      50.469 -32.688   6.268  1.00  0.00     0.059 A 
ENDROOT
BRANCH   1   9
HETATM    9  O   UNL     1      50.278 -31.415   4.303  1.00  0.00    -0.329 OA
BRANCH   9  10
HETATM   10  C   UNL     1      50.416 -30.065   3.842  1.00  0.00     0.130 C 
HETATM   11  C   UNL     1      50.852 -30.151   2.371  1.00  0.00     0.034 C 
HETATM   12  C   UNL     1      49.799 -30.844   1.502  1.00  0.00     0.035 C 
HETATM   13  C   UNL     1      48.409 -30.209   1.616  1.00  0.00     0.186 C 
HETATM   14  C   UNL     1      47.990 -30.006   3.077  1.00  0.00     0.035 C 
HETATM   15  C   UNL     1      49.068 -29.335   3.934  1.00  0.00     0.034 C 
BRANCH  13  16
HETATM   16  N   UNL     1      48.379 -28.888   0.916  1.00  0.00    -0.065 N 
HETATM   17  H   UNL     1      48.582 -28.955  -0.089  1.00  0.00     0.278 HD
HETATM   18  H   UNL     1      49.135 -28.274   1.263  1.00  0.00     0.278 HD
BRANCH  16  19
HETATM   19  C   UNL     1      47.121 -28.069   1.076  1.00  0.00     0.299 C 
BRANCH  19  20
HETATM   20  C   UNL     1      46.154 -28.385  -0.019  1.00  0.00     0.101 A 
HETATM   21  N   UNL     1      46.265 -27.885  -1.234  1.00  0.00    -0.249 NA
HETATM   22  C   UNL     1      45.221 -28.353  -2.023  1.00  0.00     0.038 A 
HETATM   23  C   UNL     1      45.132 -27.926  -3.445  1.00  0.00     0.071 C 
HETATM   24  C   UNL     1      44.341 -29.200  -1.374  1.00  0.00     0.078 A 
HETATM   25  S   UNL     1      44.822 -29.423   0.255  1.00  0.00    -0.083 SA
ENDBRANCH  19  20
ENDBRANCH  16  19
ENDBRANCH  13  16
ENDBRANCH   9  10
ENDBRANCH   1   9
TORSDOF 5
ENDMDL
MODEL 10
REMARK VINA RESULT:      -6.2      4.096      5.990
REMARK  5 active torsions:
REMARK  status: ('A' for Active; 'I' for Inactive)
REMARK    1  A    between atoms: C_4  and  C_5 
REMARK    2  A    between atoms: C_5  and  N_6 
REMARK    3  A    between atoms: N_6  and  C_9 
REMARK    4  A    between atoms: C_12  and  O_13 
REMARK    5  A    between atoms: O_13  and  C_14 
ROOT
HETATM    1  C   UNL     1      43.227 -16.109   3.623  1.00  0.00     0.164 A 
HETATM    2  N   UNL     1      43.877 -16.815   4.572  1.00  0.00    -0.236 NA
HETATM    3  C   UNL     1      44.062 -18.137   4.323  1.00  0.00     0.142 A 
HETATM    4  C   UNL     1      43.618 -18.781   3.176  1.00  0.00     0.062 A 
HETATM    5  C   UNL     1      43.855 -20.176   2.986  1.00  0.00     0.101 C 
HETATM    6  N   UNL     1      44.048 -21.309   2.836  1.00  0.00    -0.191 NA
HETATM    7  C   UNL     1      42.938 -18.023   2.223  1.00  0.00     0.028 A 
HETATM    8  C   UNL     1      42.736 -16.663   2.451  1.00  0.00     0.059 A 
ENDROOT
BRANCH   1   9
HETATM    9  O   UNL     1      42.993 -14.763   3.809  1.00  0.00    -0.329 OA
BRANCH   9  10
HETATM   10  C   UNL     1      41.862 -14.236   3.103  1.00  0.00     0.130 C 
HETATM   11  C   UNL     1      40.831 -13.838   4.171  1.00  0.00     0.034 C 
HETATM   12  C   UNL     1      41.364 -12.743   5.101  1.00  0.00     0.035 C 
HETATM   13  C   UNL     1      41.867 -11.506   4.349  1.00  0.00     0.186 C 
HETATM   14  C   UNL     1      42.813 -11.878   3.202  1.00  0.00     0.035 C 
HETATM   15  C   UNL     1      42.273 -12.992   2.300  1.00  0.00     0.034 C 
BRANCH  13  16
HETATM   16  N   UNL     1      40.716 -10.728   3.795  1.00  0.00    -0.065 N 
HETATM   17  H   UNL     1      40.084 -10.364   4.519  1.00  0.00     0.278 HD
HETATM   18  H   UNL     1      40.097 -11.339   3.237  1.00  0.00     0.278 HD
BRANCH  16  19
HETATM   19  C   UNL     1      41.059  -9.586   2.869  1.00  0.00     0.299 C 
BRANCH  19  20
HETATM   20  C   UNL     1      40.500  -9.840   1.505  1.00  0.00     0.101 A 
HETATM   21  N   UNL     1      39.452 -10.612   1.298  1.00  0.00    -0.249 NA
HETATM   22  C   UNL     1      39.176 -10.659  -0.064  1.00  0.00     0.038 A 
HETATM   23  C   UNL     1      38.028 -11.471  -0.549  1.00  0.00     0.071 C 
HETATM   24  C   UNL     1      40.036  -9.917  -0.854  1.00  0.00     0.078 A 
HETATM   25  S   UNL     1      41.213  -9.139   0.117  1.00  0.00    -0.083 SA
ENDBRANCH  19  20
ENDBRANCH  16  19
ENDBRANCH  13  16
ENDBRANCH   9  10
ENDBRANCH   1   9
TORSDOF 5
ENDMDL
