MODEL 1
REMARK VINA RESULT:      -9.0      0.000      0.000
REMARK  7 active torsions:
REMARK  status: ('A' for Active; 'I' for Inactive)
REMARK    1  A    between atoms: O_2  and  C_3 
REMARK    2  A    between atoms: C_6  and  C_7 
REMARK       I    between atoms: C_7  and  N_8 
REMARK    3  A    between atoms: N_8  and  C_9 
REMARK    4  A    between atoms: C_9  and  N_10 
REMARK    5  A    between atoms: N_10  and  C_11 
REMARK    6  A    between atoms: C_14  and  N_15 
REMARK       I    between atoms: N_18  and  C_19 
REMARK    7  A    between atoms: C_19  and  C_20 
ROOT
HETATM    1  C   UNL     1      41.897 -11.696   2.267  1.00  0.00     0.034 C 
HETATM    2  C   UNL     1      42.898 -12.468   2.852  1.00  0.00     0.032 C 
HETATM    3  C   UNL     1      43.463 -12.081   4.072  1.00  0.00     0.031 C 
HETATM    4  C   UNL     1      43.053 -10.920   4.743  1.00  0.00     0.030 C 
HETATM    5  C   UNL     1      42.184 -10.069   4.039  1.00  0.00     0.031 C 
HETATM    6  C   UNL     1      41.618 -10.442   2.805  1.00  0.00     0.032 C 
ENDROOT
BRANCH   1   7
HETATM    7  N   UNL     1      41.083 -12.218   1.220  1.00  0.00    -0.333 N 
HETATM    8  H   UNL     1      41.106 -11.671   0.371  1.00  0.00     0.168 HD
BRANCH   7   9
HETATM    9  C   UNL     1      39.836 -12.759   1.473  1.00  0.00     0.179 C 
HETATM   10  S   UNL     1      38.448 -11.975   2.016  1.00  0.00    -0.040 SA
BRANCH   9  11
HETATM   11  N   UNL     1      39.635 -14.102   1.192  1.00  0.00    -0.299 N 
HETATM   12  C   UNL     1      40.127 -15.383   1.412  1.00  0.00     0.257 C 
HETATM   13  O   UNL     1      39.562 -16.336   0.874  1.00  0.00    -0.267 OA
HETATM   14  H   UNL     1      38.779 -14.200   0.654  1.00  0.00     0.171 HD
BRANCH  12  15
HETATM   15  C   UNL     1      41.231 -15.682   2.326  1.00  0.00     0.032 A 
HETATM   16  C   UNL     1      40.926 -15.705   3.695  1.00  0.00     0.020 A 
HETATM   17  C   UNL     1      41.806 -16.299   4.600  1.00  0.00     0.038 A 
HETATM   18  C   UNL     1      42.979 -16.889   4.130  1.00  0.00     0.068 A 
HETATM   19  C   UNL     1      43.312 -16.812   2.774  1.00  0.00     0.038 A 
HETATM   20  C   UNL     1      42.424 -16.235   1.859  1.00  0.00     0.020 A 
BRANCH  18  21
HETATM   21  O   UNL     1      43.850 -17.567   4.938  1.00  0.00    -0.356 OA
HETATM   22  C   UNL     1      44.460 -18.682   4.283  1.00  0.00     0.210 C 
ENDBRANCH  18  21
ENDBRANCH  12  15
ENDBRANCH   9  11
ENDBRANCH   7   9
ENDBRANCH   1   7
BRANCH   4  23
HETATM   23  N   UNL     1      43.362 -10.687   6.078  1.00  0.00    -0.378 N 
HETATM   24  C   UNL     1      42.710  -9.608   6.839  1.00  0.00     0.143 C 
HETATM   25  C   UNL     1      42.657  -9.954   8.351  1.00  0.00     0.146 C 
HETATM   26  N   UNL     1      43.935 -10.446   8.894  1.00  0.00    -0.345 N 
HETATM   27  C   UNL     1      44.371 -10.323  10.211  1.00  0.00     0.253 C 
HETATM   28  C   UNL     1      44.627 -11.433   8.061  1.00  0.00     0.146 C 
HETATM   29  O   UNL     1      45.463 -10.742  10.595  1.00  0.00    -0.267 OA
HETATM   30  C   UNL     1      44.706 -11.031   6.583  1.00  0.00     0.143 C 
BRANCH  27  31
HETATM   31  C   UNL     1      43.518  -9.671  11.228  1.00  0.00     0.032 A 
HETATM   32  C   UNL     1      42.821 -10.421  12.181  1.00  0.00     0.017 A 
HETATM   33  C   UNL     1      42.104  -9.768  13.186  1.00  0.00     0.001 A 
HETATM   34  C   UNL     1      42.103  -8.374  13.253  1.00  0.00     0.000 A 
HETATM   35  C   UNL     1      42.823  -7.627  12.321  1.00  0.00     0.001 A 
HETATM   36  C   UNL     1      43.537  -8.274  11.312  1.00  0.00     0.017 A 
ENDBRANCH  27  31
ENDBRANCH   4  23
TORSDOF 7
ENDMDL
MODEL 2
REMARK VINA RESULT:      -8.9      2.132      2.859
REMARK  7 active torsions:
REMARK  status: ('A' for Active; 'I' for Inactive)
REMARK    1  A    between atoms: O_2  and  C_3 
REMARK    2  A    between atoms: C_6  and  C_7 
REMARK       I    between atoms: C_7  and  N_8 
REMARK    3  A    between atoms: N_8  and  C_9 
REMARK    4  A    between atoms: C_9  and  N_10 
REMARK    5  A    between atoms: N_10  and  C_11 
REMARK    6  A    between atoms: C_14  and  N_15 
REMARK       I    between atoms: N_18  and  C_19 
REMARK    7  A    between atoms: C_19  and  C_20 
ROOT
HETATM    1  C   UNL     1      39.957 -13.921   3.531  1.00  0.00     0.034 C 
HETATM    2  C   UNL     1      39.677 -12.577   3.304  1.00  0.00     0.032 C 
HETATM    3  C   UNL     1      40.072 -11.609   4.234  1.00  0.00     0.031 C 
HETATM    4  C   UNL     1      40.753 -11.948   5.412  1.00  0.00     0.030 C 
HETATM    5  C   UNL     1      40.851 -13.320   5.701  1.00  0.00     0.031 C 
HETATM    6  C   UNL     1      40.446 -14.303   4.778  1.00  0.00     0.032 C 
ENDROOT
BRANCH   1   7
HETATM    7  N   UNL     1      39.870 -14.879   2.478  1.00  0.00    -0.333 N 
HETATM    8  H   UNL     1      39.894 -15.838   2.793  1.00  0.00     0.168 HD
BRANCH   7   9
HETATM    9  C   UNL     1      40.528 -14.696   1.276  1.00  0.00     0.179 C 
HETATM   10  S   UNL     1      39.865 -14.523  -0.263  1.00  0.00    -0.040 SA
BRANCH   9  11
HETATM   11  N   UNL     1      41.908 -14.562   1.299  1.00  0.00    -0.299 N 
HETATM   12  C   UNL     1      43.078 -15.062   1.859  1.00  0.00     0.257 C 
HETATM   13  O   UNL     1      44.152 -14.544   1.551  1.00  0.00    -0.267 OA
HETATM   14  H   UNL     1      42.181 -13.861   0.616  1.00  0.00     0.171 HD
BRANCH  12  15
HETATM   15  C   UNL     1      43.121 -16.237   2.732  1.00  0.00     0.032 A 
HETATM   16  C   UNL     1      43.147 -17.489   2.101  1.00  0.00     0.020 A 
HETATM   17  C   UNL     1      43.523 -18.626   2.815  1.00  0.00     0.038 A 
HETATM   18  C   UNL     1      43.895 -18.505   4.153  1.00  0.00     0.068 A 
HETATM   19  C   UNL     1      43.811 -17.267   4.798  1.00  0.00     0.038 A 
HETATM   20  C   UNL     1      43.453 -16.119   4.082  1.00  0.00     0.020 A 
BRANCH  18  21
HETATM   21  O   UNL     1      44.359 -19.555   4.897  1.00  0.00    -0.356 OA
HETATM   22  C   UNL     1      43.985 -20.825   4.358  1.00  0.00     0.210 C 
ENDBRANCH  18  21
ENDBRANCH  12  15
ENDBRANCH   9  11
ENDBRANCH   7   9
ENDBRANCH   1   7
BRANCH   4  23
HETATM   23  N   UNL     1      41.422 -11.002   6.179  1.00  0.00    -0.378 N 
HETATM   24  C   UNL     1      40.698  -9.910   6.853  1.00  0.00     0.143 C 
HETATM   25  C   UNL     1      41.457  -9.449   8.125  1.00  0.00     0.146 C 
HETATM   26  N   UNL     1      42.899  -9.234   7.913  1.00  0.00    -0.345 N 
HETATM   27  C   UNL     1      43.713  -8.353   8.623  1.00  0.00     0.253 C 
HETATM   28  C   UNL     1      43.577 -10.275   7.137  1.00  0.00     0.146 C 
HETATM   29  O   UNL     1      44.911  -8.207   8.380  1.00  0.00    -0.267 OA
HETATM   30  C   UNL     1      42.824 -10.667   5.860  1.00  0.00     0.143 C 
BRANCH  27  31
HETATM   31  C   UNL     1      43.156  -7.537   9.724  1.00  0.00     0.032 A 
HETATM   32  C   UNL     1      43.089  -8.031  11.031  1.00  0.00     0.017 A 
HETATM   33  C   UNL     1      42.650  -7.199  12.064  1.00  0.00     0.001 A 
HETATM   34  C   UNL     1      42.303  -5.874  11.795  1.00  0.00     0.000 A 
HETATM   35  C   UNL     1      42.400  -5.372  10.497  1.00  0.00     0.001 A 
HETATM   36  C   UNL     1      42.833  -6.201   9.462  1.00  0.00     0.017 A 
ENDBRANCH  27  31
ENDBRANCH   4  23
TORSDOF 7
ENDMDL
MODEL 3
REMARK VINA RESULT:      -8.8      1.869      2.466
REMARK  7 active torsions:
REMARK  status: ('A' for Active; 'I' for Inactive)
REMARK    1  A    between atoms: O_2  and  C_3 
REMARK    2  A    between atoms: C_6  and  C_7 
REMARK       I    between atoms: C_7  and  N_8 
REMARK    3  A    between atoms: N_8  and  C_9 
REMARK    4  A    between atoms: C_9  and  N_10 
REMARK    5  A    between atoms: N_10  and  C_11 
REMARK    6  A    between atoms: C_14  and  N_15 
REMARK       I    between atoms: N_18  and  C_19 
REMARK    7  A    between atoms: C_19  and  C_20 
ROOT
HETATM    1  C   UNL     1      39.892 -12.775   2.370  1.00  0.00     0.034 C 
HETATM    2  C   UNL     1      40.882 -11.841   2.080  1.00  0.00     0.032 C 
HETATM    3  C   UNL     1      41.466 -11.092   3.108  1.00  0.00     0.031 C 
HETATM    4  C   UNL     1      41.083 -11.248   4.448  1.00  0.00     0.030 C 
HETATM    5  C   UNL     1      39.956 -12.055   4.682  1.00  0.00     0.031 C 
HETATM    6  C   UNL     1      39.353 -12.804   3.654  1.00  0.00     0.032 C 
ENDROOT
BRANCH   1   7
HETATM    7  N   UNL     1      39.518 -13.770   1.420  1.00  0.00    -0.333 N 
HETATM    8  H   UNL     1      39.069 -14.578   1.828  1.00  0.00     0.168 HD
BRANCH   7   9
HETATM    9  C   UNL     1      40.334 -14.095   0.352  1.00  0.00     0.179 C 
HETATM   10  S   UNL     1      40.226 -13.568  -1.244  1.00  0.00    -0.040 SA
BRANCH   9  11
HETATM   11  N   UNL     1      41.437 -14.902   0.593  1.00  0.00    -0.299 N 
HETATM   12  C   UNL     1      42.238 -15.443   1.591  1.00  0.00     0.257 C 
HETATM   13  O   UNL     1      43.201 -16.140   1.266  1.00  0.00    -0.267 OA
HETATM   14  H   UNL     1      41.764 -15.280  -0.291  1.00  0.00     0.171 HD
BRANCH  12  15
HETATM   15  C   UNL     1      41.954 -15.309   3.021  1.00  0.00     0.032 A 
HETATM   16  C   UNL     1      40.986 -16.174   3.553  1.00  0.00     0.020 A 
HETATM   17  C   UNL     1      40.891 -16.356   4.932  1.00  0.00     0.038 A 
HETATM   18  C   UNL     1      41.779 -15.689   5.776  1.00  0.00     0.068 A 
HETATM   19  C   UNL     1      42.704 -14.782   5.249  1.00  0.00     0.038 A 
HETATM   20  C   UNL     1      42.817 -14.610   3.865  1.00  0.00     0.020 A 
BRANCH  18  21
HETATM   21  O   UNL     1      41.809 -15.880   7.130  1.00  0.00    -0.356 OA
HETATM   22  C   UNL     1      42.964 -15.303   7.745  1.00  0.00     0.210 C 
ENDBRANCH  18  21
ENDBRANCH  12  15
ENDBRANCH   9  11
ENDBRANCH   7   9
ENDBRANCH   1   7
BRANCH   4  23
HETATM   23  N   UNL     1      41.849 -10.760   5.499  1.00  0.00    -0.378 N 
HETATM   24  C   UNL     1      41.440  -9.563   6.254  1.00  0.00     0.143 C 
HETATM   25  C   UNL     1      41.988  -9.613   7.705  1.00  0.00     0.146 C 
HETATM   26  N   UNL     1      43.414  -9.976   7.791  1.00  0.00    -0.345 N 
HETATM   27  C   UNL     1      44.299  -9.598   8.798  1.00  0.00     0.253 C 
HETATM   28  C   UNL     1      43.824 -11.095   6.940  1.00  0.00     0.146 C 
HETATM   29  O   UNL     1      45.487  -9.921   8.798  1.00  0.00    -0.267 OA
HETATM   30  C   UNL     1      43.308 -10.984   5.501  1.00  0.00     0.143 C 
BRANCH  27  31
HETATM   31  C   UNL     1      43.837  -8.773   9.936  1.00  0.00     0.032 A 
HETATM   32  C   UNL     1      43.284  -7.504   9.736  1.00  0.00     0.017 A 
HETATM   33  C   UNL     1      42.769  -6.795  10.823  1.00  0.00     0.001 A 
HETATM   34  C   UNL     1      42.784  -7.360  12.098  1.00  0.00     0.000 A 
HETATM   35  C   UNL     1      43.307  -8.639  12.293  1.00  0.00     0.001 A 
HETATM   36  C   UNL     1      43.828  -9.350  11.211  1.00  0.00     0.017 A 
ENDBRANCH  27  31
ENDBRANCH   4  23
TORSDOF 7
ENDMDL
MODEL 4
REMARK VINA RESULT:      -8.7      2.792      9.375
REMARK  7 active torsions:
REMARK  status: ('A' for Active; 'I' for Inactive)
REMARK    1  A    between atoms: O_2  and  C_3 
REMARK    2  A    between atoms: C_6  and  C_7 
REMARK       I    between atoms: C_7  and  N_8 
REMARK    3  A    between atoms: N_8  and  C_9 
REMARK    4  A    between atoms: C_9  and  N_10 
REMARK    5  A    between atoms: N_10  and  C_11 
REMARK    6  A    between atoms: C_14  and  N_15 
REMARK       I    between atoms: N_18  and  C_19 
REMARK    7  A    between atoms: C_19  and  C_20 
ROOT
HETATM    1  C   UNL     1      40.388  -9.997   7.510  1.00  0.00     0.034 C 
HETATM    2  C   UNL     1      39.509 -10.908   6.930  1.00  0.00     0.032 C 
HETATM    3  C   UNL     1      39.971 -11.824   5.979  1.00  0.00     0.031 C 
HETATM    4  C   UNL     1      41.314 -11.859   5.576  1.00  0.00     0.030 C 
HETATM    5  C   UNL     1      42.129 -10.810   6.035  1.00  0.00     0.031 C 
HETATM    6  C   UNL     1      41.672  -9.876   6.984  1.00  0.00     0.032 C 
ENDROOT
BRANCH   1   7
HETATM    7  N   UNL     1      40.036  -9.289   8.697  1.00  0.00    -0.333 N 
HETATM    8  H   UNL     1      39.247  -9.683   9.190  1.00  0.00     0.168 HD
BRANCH   7   9
HETATM    9  C   UNL     1      40.065  -7.909   8.752  1.00  0.00     0.179 C 
HETATM   10  S   UNL     1      39.298  -6.805   7.738  1.00  0.00    -0.040 SA
BRANCH   9  11
HETATM   11  N   UNL     1      40.745  -7.310   9.803  1.00  0.00    -0.299 N 
HETATM   12  C   UNL     1      41.925  -7.331  10.536  1.00  0.00     0.257 C 
HETATM   13  O   UNL     1      42.054  -6.544  11.475  1.00  0.00    -0.267 OA
HETATM   14  H   UNL     1      40.194  -6.529  10.146  1.00  0.00     0.171 HD
BRANCH  12  15
HETATM   15  C   UNL     1      43.073  -8.177  10.203  1.00  0.00     0.032 A 
HETATM   16  C   UNL     1      43.076  -9.473  10.739  1.00  0.00     0.020 A 
HETATM   17  C   UNL     1      43.929 -10.445  10.219  1.00  0.00     0.038 A 
HETATM   18  C   UNL     1      44.761 -10.126   9.147  1.00  0.00     0.068 A 
HETATM   19  C   UNL     1      44.801  -8.818   8.651  1.00  0.00     0.038 A 
HETATM   20  C   UNL     1      43.934  -7.844   9.156  1.00  0.00     0.020 A 
BRANCH  18  21
HETATM   21  O   UNL     1      45.561 -11.043   8.523  1.00  0.00    -0.356 OA
HETATM   22  C   UNL     1      45.749 -10.761   7.133  1.00  0.00     0.210 C 
ENDBRANCH  18  21
ENDBRANCH  12  15
ENDBRANCH   9  11
ENDBRANCH   7   9
ENDBRANCH   1   7
BRANCH   4  23
HETATM   23  N   UNL     1      41.853 -12.940   4.888  1.00  0.00    -0.378 N 
HETATM   24  C   UNL     1      42.423 -14.096   5.601  1.00  0.00     0.143 C 
HETATM   25  C   UNL     1      42.308 -15.383   4.742  1.00  0.00     0.146 C 
HETATM   26  N   UNL     1      42.741 -15.208   3.344  1.00  0.00    -0.345 N 
HETATM   27  C   UNL     1      43.264 -16.198   2.515  1.00  0.00     0.253 C 
HETATM   28  C   UNL     1      42.259 -13.989   2.692  1.00  0.00     0.146 C 
HETATM   29  O   UNL     1      43.625 -15.978   1.359  1.00  0.00    -0.267 OA
HETATM   30  C   UNL     1      42.437 -12.730   3.548  1.00  0.00     0.143 C 
BRANCH  27  31
HETATM   31  C   UNL     1      43.408 -17.588   3.001  1.00  0.00     0.032 A 
HETATM   32  C   UNL     1      43.064 -18.678   2.195  1.00  0.00     0.017 A 
HETATM   33  C   UNL     1      43.305 -19.977   2.648  1.00  0.00     0.001 A 
HETATM   34  C   UNL     1      43.909 -20.184   3.889  1.00  0.00     0.000 A 
HETATM   35  C   UNL     1      44.281 -19.096   4.679  1.00  0.00     0.001 A 
HETATM   36  C   UNL     1      44.037 -17.797   4.234  1.00  0.00     0.017 A 
ENDBRANCH  27  31
ENDBRANCH   4  23
TORSDOF 7
ENDMDL
MODEL 5
REMARK VINA RESULT:      -8.7      2.298      3.717
REMARK  7 active torsions:
REMARK  status: ('A' for Active; 'I' for Inactive)
REMARK    1  A    between atoms: O_2  and  C_3 
REMARK    2  A    between atoms: C_6  and  C_7 
REMARK       I    between atoms: C_7  and  N_8 
REMARK    3  A    between atoms: N_8  and  C_9 
REMARK    4  A    between atoms: C_9  and  N_10 
REMARK    5  A    between atoms: N_10  and  C_11 
REMARK    6  A    between atoms: C_14  and  N_15 
REMARK       I    between atoms: N_18  and  C_19 
REMARK    7  A    between atoms: C_19  and  C_20 
ROOT
HETATM    1  C   UNL     1      39.447 -12.698   4.012  1.00  0.00     0.034 C 
HETATM    2  C   UNL     1      39.488 -11.342   3.700  1.00  0.00     0.032 C 
HETATM    3  C   UNL     1      39.845 -10.405   4.675  1.00  0.00     0.031 C 
HETATM    4  C   UNL     1      40.169 -10.786   5.985  1.00  0.00     0.030 C 
HETATM    5  C   UNL     1      39.935 -12.131   6.317  1.00  0.00     0.031 C 
HETATM    6  C   UNL     1      39.564 -13.082   5.347  1.00  0.00     0.032 C 
ENDROOT
BRANCH   1   7
HETATM    7  N   UNL     1      39.415 -13.689   2.988  1.00  0.00    -0.333 N 
HETATM    8  H   UNL     1      38.999 -14.564   3.277  1.00  0.00     0.168 HD
BRANCH   7   9
HETATM    9  C   UNL     1      40.471 -13.863   2.114  1.00  0.00     0.179 C 
HETATM   10  S   UNL     1      40.746 -13.095   0.640  1.00  0.00    -0.040 SA
BRANCH   9  11
HETATM   11  N   UNL     1      41.497 -14.719   2.489  1.00  0.00    -0.299 N 
HETATM   12  C   UNL     1      42.535 -14.901   3.394  1.00  0.00     0.257 C 
HETATM   13  O   UNL     1      43.243 -15.903   3.290  1.00  0.00    -0.267 OA
HETATM   14  H   UNL     1      41.453 -15.554   1.913  1.00  0.00     0.171 HD
BRANCH  12  15
HETATM   15  C   UNL     1      42.784 -14.014   4.532  1.00  0.00     0.032 A 
HETATM   16  C   UNL     1      42.931 -14.624   5.786  1.00  0.00     0.020 A 
HETATM   17  C   UNL     1      43.495 -13.918   6.848  1.00  0.00     0.038 A 
HETATM   18  C   UNL     1      43.932 -12.610   6.648  1.00  0.00     0.068 A 
HETATM   19  C   UNL     1      43.730 -11.981   5.414  1.00  0.00     0.038 A 
HETATM   20  C   UNL     1      43.183 -12.690   4.340  1.00  0.00     0.020 A 
BRANCH  18  21
HETATM   21  O   UNL     1      44.574 -11.880   7.611  1.00  0.00    -0.356 OA
HETATM   22  C   UNL     1      45.667 -11.117   7.092  1.00  0.00     0.210 C 
ENDBRANCH  18  21
ENDBRANCH  12  15
ENDBRANCH   9  11
ENDBRANCH   7   9
ENDBRANCH   1   7
BRANCH   4  23
HETATM   23  N   UNL     1      40.820  -9.931   6.866  1.00  0.00    -0.378 N 
HETATM   24  C   UNL     1      40.181  -9.489   8.118  1.00  0.00     0.143 C 
HETATM   25  C   UNL     1      41.249  -9.167   9.197  1.00  0.00     0.146 C 
HETATM   26  N   UNL     1      42.358  -8.330   8.707  1.00  0.00    -0.345 N 
HETATM   27  C   UNL     1      43.127  -7.455   9.470  1.00  0.00     0.253 C 
HETATM   28  C   UNL     1      42.900  -8.717   7.402  1.00  0.00     0.146 C 
HETATM   29  O   UNL     1      44.030  -6.768   8.991  1.00  0.00    -0.267 OA
HETATM   30  C   UNL     1      41.818  -8.974   6.347  1.00  0.00     0.143 C 
BRANCH  27  31
HETATM   31  C   UNL     1      42.886  -7.312  10.923  1.00  0.00     0.032 A 
HETATM   32  C   UNL     1      41.987  -6.363  11.420  1.00  0.00     0.017 A 
HETATM   33  C   UNL     1      41.710  -6.323  12.788  1.00  0.00     0.001 A 
HETATM   34  C   UNL     1      42.311  -7.240  13.651  1.00  0.00     0.000 A 
HETATM   35  C   UNL     1      43.184  -8.206  13.151  1.00  0.00     0.001 A 
HETATM   36  C   UNL     1      43.468  -8.248  11.786  1.00  0.00     0.017 A 
ENDBRANCH  27  31
ENDBRANCH   4  23
TORSDOF 7
ENDMDL
MODEL 6
REMARK VINA RESULT:      -8.6      5.211      9.377
REMARK  7 active torsions:
REMARK  status: ('A' for Active; 'I' for Inactive)
REMARK    1  A    between atoms: O_2  and  C_3 
REMARK    2  A    between atoms: C_6  and  C_7 
REMARK       I    between atoms: C_7  and  N_8 
REMARK    3  A    between atoms: N_8  and  C_9 
REMARK    4  A    between atoms: C_9  and  N_10 
REMARK    5  A    between atoms: N_10  and  C_11 
REMARK    6  A    between atoms: C_14  and  N_15 
REMARK       I    between atoms: N_18  and  C_19 
REMARK    7  A    between atoms: C_19  and  C_20 
ROOT
HETATM    1  C   UNL     1      43.035 -16.951   2.467  1.00  0.00     0.034 C 
HETATM    2  C   UNL     1      41.664 -17.067   2.676  1.00  0.00     0.032 C 
HETATM    3  C   UNL     1      40.791 -16.088   2.189  1.00  0.00     0.031 C 
HETATM    4  C   UNL     1      41.256 -14.967   1.485  1.00  0.00     0.030 C 
HETATM    5  C   UNL     1      42.648 -14.783   1.458  1.00  0.00     0.031 C 
HETATM    6  C   UNL     1      43.536 -15.756   1.955  1.00  0.00     0.032 C 
ENDROOT
BRANCH   1   7
HETATM    7  N   UNL     1      43.904 -18.066   2.650  1.00  0.00    -0.333 N 
HETATM    8  H   UNL     1      43.844 -18.757   1.916  1.00  0.00     0.168 HD
BRANCH   7   9
HETATM    9  C   UNL     1      44.111 -18.627   3.896  1.00  0.00     0.179 C 
HETATM   10  S   UNL     1      43.948 -20.239   4.356  1.00  0.00    -0.040 SA
BRANCH   9  11
HETATM   11  N   UNL     1      44.579 -17.809   4.914  1.00  0.00    -0.299 N 
HETATM   12  C   UNL     1      44.285 -16.689   5.681  1.00  0.00     0.257 C 
HETATM   13  O   UNL     1      45.108 -16.309   6.516  1.00  0.00    -0.267 OA
HETATM   14  H   UNL     1      45.450 -18.193   5.268  1.00  0.00     0.171 HD
BRANCH  12  15
HETATM   15  C   UNL     1      43.006 -15.978   5.623  1.00  0.00     0.032 A 
HETATM   16  C   UNL     1      41.908 -16.608   6.226  1.00  0.00     0.020 A 
HETATM   17  C   UNL     1      40.755 -15.880   6.516  1.00  0.00     0.038 A 
HETATM   18  C   UNL     1      40.710 -14.518   6.223  1.00  0.00     0.068 A 
HETATM   19  C   UNL     1      41.782 -13.903   5.566  1.00  0.00     0.038 A 
HETATM   20  C   UNL     1      42.949 -14.624   5.291  1.00  0.00     0.020 A 
BRANCH  18  21
HETATM   21  O   UNL     1      39.652 -13.716   6.554  1.00  0.00    -0.356 OA
HETATM   22  C   UNL     1      39.519 -12.587   5.687  1.00  0.00     0.210 C 
ENDBRANCH  18  21
ENDBRANCH  12  15
ENDBRANCH   9  11
ENDBRANCH   7   9
ENDBRANCH   1   7
BRANCH   4  23
HETATM   23  N   UNL     1      40.409 -14.162   0.732  1.00  0.00    -0.378 N 
HETATM   24  C   UNL     1      39.704 -13.017   1.334  1.00  0.00     0.143 C 
HETATM   25  C   UNL     1      39.421 -11.924   0.271  1.00  0.00     0.146 C 
HETATM   26  N   UNL     1      38.851 -12.446  -0.984  1.00  0.00    -0.345 N 
HETATM   27  C   UNL     1      38.020 -11.753  -1.861  1.00  0.00     0.253 C 
HETATM   28  C   UNL     1      39.493 -13.656  -1.502  1.00  0.00     0.146 C 
HETATM   29  O   UNL     1      37.562 -12.258  -2.886  1.00  0.00    -0.267 OA
HETATM   30  C   UNL     1      39.708 -14.735  -0.434  1.00  0.00     0.143 C 
BRANCH  27  31
HETATM   31  C   UNL     1      37.646 -10.347  -1.591  1.00  0.00     0.032 A 
HETATM   32  C   UNL     1      38.410  -9.285  -2.084  1.00  0.00     0.017 A 
HETATM   33  C   UNL     1      37.975  -7.972  -1.894  1.00  0.00     0.001 A 
HETATM   34  C   UNL     1      36.770  -7.723  -1.236  1.00  0.00     0.000 A 
HETATM   35  C   UNL     1      35.991  -8.784  -0.771  1.00  0.00     0.001 A 
HETATM   36  C   UNL     1      36.425 -10.097  -0.954  1.00  0.00     0.017 A 
ENDBRANCH  27  31
ENDBRANCH   4  23
TORSDOF 7
ENDMDL
MODEL 7
REMARK VINA RESULT:      -8.6      2.785     10.534
REMARK  7 active torsions:
REMARK  status: ('A' for Active; 'I' for Inactive)
REMARK    1  A    between atoms: O_2  and  C_3 
REMARK    2  A    between atoms: C_6  and  C_7 
REMARK       I    between atoms: C_7  and  N_8 
REMARK    3  A    between atoms: N_8  and  C_9 
REMARK    4  A    between atoms: C_9  and  N_10 
REMARK    5  A    between atoms: N_10  and  C_11 
REMARK    6  A    between atoms: C_14  and  N_15 
REMARK       I    between atoms: N_18  and  C_19 
REMARK    7  A    between atoms: C_19  and  C_20 
ROOT
HETATM    1  C   UNL     1      41.534  -9.612   7.480  1.00  0.00     0.034 C 
HETATM    2  C   UNL     1      40.515 -10.387   6.934  1.00  0.00     0.032 C 
HETATM    3  C   UNL     1      40.808 -11.360   5.973  1.00  0.00     0.031 C 
HETATM    4  C   UNL     1      42.117 -11.589   5.526  1.00  0.00     0.030 C 
HETATM    5  C   UNL     1      43.089 -10.667   5.951  1.00  0.00     0.031 C 
HETATM    6  C   UNL     1      42.804  -9.676   6.909  1.00  0.00     0.032 C 
ENDROOT
BRANCH   1   7
HETATM    7  N   UNL     1      41.328  -8.860   8.673  1.00  0.00    -0.333 N 
HETATM    8  H   UNL     1      41.915  -8.041   8.748  1.00  0.00     0.168 HD
BRANCH   7   9
HETATM    9  C   UNL     1      41.117  -9.478   9.891  1.00  0.00     0.179 C 
HETATM   10  S   UNL     1      39.700  -9.539  10.800  1.00  0.00    -0.040 SA
BRANCH   9  11
HETATM   11  N   UNL     1      42.156 -10.213  10.442  1.00  0.00    -0.299 N 
HETATM   12  C   UNL     1      43.023 -10.299  11.524  1.00  0.00     0.257 C 
HETATM   13  O   UNL     1      43.861 -11.201  11.543  1.00  0.00    -0.267 OA
HETATM   14  H   UNL     1      42.327 -11.027   9.858  1.00  0.00     0.171 HD
BRANCH  12  15
HETATM   15  C   UNL     1      42.942  -9.428  12.699  1.00  0.00     0.032 A 
HETATM   16  C   UNL     1      43.567  -8.176  12.599  1.00  0.00     0.020 A 
HETATM   17  C   UNL     1      43.264  -7.166  13.511  1.00  0.00     0.038 A 
HETATM   18  C   UNL     1      42.320  -7.402  14.508  1.00  0.00     0.068 A 
HETATM   19  C   UNL     1      41.741  -8.669  14.645  1.00  0.00     0.038 A 
HETATM   20  C   UNL     1      42.027  -9.680  13.721  1.00  0.00     0.020 A 
BRANCH  18  21
HETATM   21  O   UNL     1      41.903  -6.439  15.386  1.00  0.00    -0.356 OA
HETATM   22  C   UNL     1      40.493  -6.479  15.623  1.00  0.00     0.210 C 
ENDBRANCH  18  21
ENDBRANCH  12  15
ENDBRANCH   9  11
ENDBRANCH   7   9
ENDBRANCH   1   7
BRANCH   4  23
HETATM   23  N   UNL     1      42.471 -12.735   4.825  1.00  0.00    -0.378 N 
HETATM   24  C   UNL     1      43.090 -13.888   5.503  1.00  0.00     0.143 C 
HETATM   25  C   UNL     1      42.761 -15.208   4.756  1.00  0.00     0.146 C 
HETATM   26  N   UNL     1      42.960 -15.133   3.298  1.00  0.00    -0.345 N 
HETATM   27  C   UNL     1      43.280 -16.195   2.456  1.00  0.00     0.253 C 
HETATM   28  C   UNL     1      42.441 -13.920   2.661  1.00  0.00     0.146 C 
HETATM   29  O   UNL     1      43.452 -16.059   1.245  1.00  0.00    -0.267 OA
HETATM   30  C   UNL     1      42.831 -12.633   3.397  1.00  0.00     0.143 C 
BRANCH  27  31
HETATM   31  C   UNL     1      43.428 -17.565   2.996  1.00  0.00     0.032 A 
HETATM   32  C   UNL     1      43.138 -18.689   2.215  1.00  0.00     0.017 A 
HETATM   33  C   UNL     1      43.383 -19.966   2.723  1.00  0.00     0.001 A 
HETATM   34  C   UNL     1      43.936 -20.119   3.995  1.00  0.00     0.000 A 
HETATM   35  C   UNL     1      44.254 -18.998   4.762  1.00  0.00     0.001 A 
HETATM   36  C   UNL     1      44.007 -17.720   4.261  1.00  0.00     0.017 A 
ENDBRANCH  27  31
ENDBRANCH   4  23
TORSDOF 7
ENDMDL
MODEL 8
REMARK VINA RESULT:      -8.2      3.204      9.380
REMARK  7 active torsions:
REMARK  status: ('A' for Active; 'I' for Inactive)
REMARK    1  A    between atoms: O_2  and  C_3 
REMARK    2  A    between atoms: C_6  and  C_7 
REMARK       I    between atoms: C_7  and  N_8 
REMARK    3  A    between atoms: N_8  and  C_9 
REMARK    4  A    between atoms: C_9  and  N_10 
REMARK    5  A    between atoms: N_10  and  C_11 
REMARK    6  A    between atoms: C_14  and  N_15 
REMARK       I    between atoms: N_18  and  C_19 
REMARK    7  A    between atoms: C_19  and  C_20 
ROOT
HETATM    1  C   UNL     1      40.337  -8.012   7.085  1.00  0.00     0.034 C 
HETATM    2  C   UNL     1      39.576  -8.466   6.011  1.00  0.00     0.032 C 
HETATM    3  C   UNL     1      39.830  -9.721   5.448  1.00  0.00     0.031 C 
HETATM    4  C   UNL     1      40.846 -10.558   5.933  1.00  0.00     0.030 C 
HETATM    5  C   UNL     1      41.713  -9.996   6.886  1.00  0.00     0.031 C 
HETATM    6  C   UNL     1      41.474  -8.729   7.451  1.00  0.00     0.032 C 
ENDROOT
BRANCH   1   7
HETATM    7  N   UNL     1      39.903  -6.912   7.881  1.00  0.00    -0.333 N 
HETATM    8  H   UNL     1      40.064  -6.009   7.455  1.00  0.00     0.168 HD
BRANCH   7   9
HETATM    9  C   UNL     1      40.081  -6.894   9.251  1.00  0.00     0.179 C 
HETATM   10  S   UNL     1      39.323  -7.847  10.415  1.00  0.00    -0.040 SA
BRANCH   9  11
HETATM   11  N   UNL     1      41.047  -6.048   9.776  1.00  0.00    -0.299 N 
HETATM   12  C   UNL     1      42.360  -5.983  10.226  1.00  0.00     0.257 C 
HETATM   13  O   UNL     1      42.786  -4.911  10.658  1.00  0.00    -0.267 OA
HETATM   14  H   UNL     1      40.673  -5.104   9.807  1.00  0.00     0.171 HD
BRANCH  12  15
HETATM   15  C   UNL     1      43.306  -7.097  10.132  1.00  0.00     0.032 A 
HETATM   16  C   UNL     1      43.085  -8.184  10.991  1.00  0.00     0.020 A 
HETATM   17  C   UNL     1      43.709  -9.407  10.749  1.00  0.00     0.038 A 
HETATM   18  C   UNL     1      44.535  -9.547   9.635  1.00  0.00     0.068 A 
HETATM   19  C   UNL     1      44.803  -8.447   8.813  1.00  0.00     0.038 A 
HETATM   20  C   UNL     1      44.165  -7.223   9.040  1.00  0.00     0.020 A 
BRANCH  18  21
HETATM   21  O   UNL     1      45.114 -10.734   9.279  1.00  0.00    -0.356 OA
HETATM   22  C   UNL     1      45.618 -10.726   7.940  1.00  0.00     0.210 C 
ENDBRANCH  18  21
ENDBRANCH  12  15
ENDBRANCH   9  11
ENDBRANCH   7   9
ENDBRANCH   1   7
BRANCH   4  23
HETATM   23  N   UNL     1      40.911 -11.908   5.610  1.00  0.00    -0.378 N 
HETATM   24  C   UNL     1      41.781 -12.394   4.525  1.00  0.00     0.143 C 
HETATM   25  C   UNL     1      42.221 -13.859   4.787  1.00  0.00     0.146 C 
HETATM   26  N   UNL     1      41.117 -14.752   5.180  1.00  0.00    -0.345 N 
HETATM   27  C   UNL     1      41.052 -16.126   4.960  1.00  0.00     0.253 C 
HETATM   28  C   UNL     1      40.194 -14.200   6.175  1.00  0.00     0.146 C 
HETATM   29  O   UNL     1      40.087 -16.812   5.299  1.00  0.00    -0.267 OA
HETATM   30  C   UNL     1      39.739 -12.772   5.854  1.00  0.00     0.143 C 
BRANCH  27  31
HETATM   31  C   UNL     1      42.168 -16.835   4.297  1.00  0.00     0.032 A 
HETATM   32  C   UNL     1      43.211 -17.403   5.037  1.00  0.00     0.017 A 
HETATM   33  C   UNL     1      44.195 -18.149   4.387  1.00  0.00     0.001 A 
HETATM   34  C   UNL     1      44.126 -18.347   3.007  1.00  0.00     0.000 A 
HETATM   35  C   UNL     1      43.069 -17.808   2.273  1.00  0.00     0.001 A 
HETATM   36  C   UNL     1      42.086 -17.057   2.918  1.00  0.00     0.017 A 
ENDBRANCH  27  31
ENDBRANCH   4  23
TORSDOF 7
ENDMDL
MODEL 9
REMARK VINA RESULT:      -8.1      3.488      8.124
REMARK  7 active torsions:
REMARK  status: ('A' for Active; 'I' for Inactive)
REMARK    1  A    between atoms: O_2  and  C_3 
REMARK    2  A    between atoms: C_6  and  C_7 
REMARK       I    between atoms: C_7  and  N_8 
REMARK    3  A    between atoms: N_8  and  C_9 
REMARK    4  A    between atoms: C_9  and  N_10 
REMARK    5  A    between atoms: N_10  and  C_11 
REMARK    6  A    between atoms: C_14  and  N_15 
REMARK       I    between atoms: N_18  and  C_19 
REMARK    7  A    between atoms: C_19  and  C_20 
ROOT
HETATM    1  C   UNL     1      42.971  -9.985   6.820  1.00  0.00     0.034 C 
HETATM    2  C   UNL     1      43.046 -10.456   5.513  1.00  0.00     0.032 C 
HETATM    3  C   UNL     1      43.312 -11.807   5.265  1.00  0.00     0.031 C 
HETATM    4  C   UNL     1      43.511 -12.725   6.306  1.00  0.00     0.030 C 
HETATM    5  C   UNL     1      43.618 -12.186   7.599  1.00  0.00     0.031 C 
HETATM    6  C   UNL     1      43.364 -10.826   7.859  1.00  0.00     0.032 C 
ENDROOT
BRANCH   1   7
HETATM    7  N   UNL     1      42.387  -8.718   7.114  1.00  0.00    -0.333 N 
HETATM    8  H   UNL     1      42.658  -8.340   8.011  1.00  0.00     0.168 HD
BRANCH   7   9
HETATM    9  C   UNL     1      41.075  -8.432   6.788  1.00  0.00     0.179 C 
HETATM   10  S   UNL     1      40.481  -7.150   5.871  1.00  0.00    -0.040 SA
BRANCH   9  11
HETATM   11  N   UNL     1      40.091  -9.325   7.188  1.00  0.00    -0.299 N 
HETATM   12  C   UNL     1      39.398 -10.472   6.821  1.00  0.00     0.257 C 
HETATM   13  O   UNL     1      38.521 -10.901   7.573  1.00  0.00    -0.267 OA
HETATM   14  H   UNL     1      39.786  -9.078   8.125  1.00  0.00     0.171 HD
BRANCH  12  15
HETATM   15  C   UNL     1      39.709 -11.261   5.628  1.00  0.00     0.032 A 
HETATM   16  C   UNL     1      39.890 -12.639   5.814  1.00  0.00     0.020 A 
HETATM   17  C   UNL     1      39.852 -13.506   4.723  1.00  0.00     0.038 A 
HETATM   18  C   UNL     1      39.611 -12.995   3.448  1.00  0.00     0.068 A 
HETATM   19  C   UNL     1      39.490 -11.614   3.254  1.00  0.00     0.038 A 
HETATM   20  C   UNL     1      39.508 -10.743   4.348  1.00  0.00     0.020 A 
BRANCH  18  21
HETATM   21  O   UNL     1      39.472 -13.785   2.340  1.00  0.00    -0.356 OA
HETATM   22  C   UNL     1      39.788 -15.156   2.594  1.00  0.00     0.210 C 
ENDBRANCH  18  21
ENDBRANCH  12  15
ENDBRANCH   9  11
ENDBRANCH   7   9
ENDBRANCH   1   7
BRANCH   4  23
HETATM   23  N   UNL     1      43.461 -14.099   6.101  1.00  0.00    -0.378 N 
HETATM   24  C   UNL     1      43.044 -14.666   4.807  1.00  0.00     0.143 C 
HETATM   25  C   UNL     1      43.699 -16.054   4.577  1.00  0.00     0.146 C 
HETATM   26  N   UNL     1      43.606 -16.956   5.738  1.00  0.00    -0.345 N 
HETATM   27  C   UNL     1      43.583 -18.348   5.698  1.00  0.00     0.253 C 
HETATM   28  C   UNL     1      43.910 -16.339   7.031  1.00  0.00     0.146 C 
HETATM   29  O   UNL     1      43.484 -19.044   6.709  1.00  0.00    -0.267 OA
HETATM   30  C   UNL     1      43.203 -14.996   7.244  1.00  0.00     0.143 C 
BRANCH  27  31
HETATM   31  C   UNL     1      43.681 -19.066   4.408  1.00  0.00     0.032 A 
HETATM   32  C   UNL     1      44.068 -20.409   4.351  1.00  0.00     0.017 A 
HETATM   33  C   UNL     1      44.054 -21.081   3.127  1.00  0.00     0.001 A 
HETATM   34  C   UNL     1      43.634 -20.423   1.971  1.00  0.00     0.000 A 
HETATM   35  C   UNL     1      43.218 -19.092   2.033  1.00  0.00     0.001 A 
HETATM   36  C   UNL     1      43.235 -18.414   3.252  1.00  0.00     0.017 A 
ENDBRANCH  27  31
ENDBRANCH   4  23
TORSDOF 7
ENDMDL
MODEL 10
REMARK VINA RESULT:      -8.0      4.894      7.993
REMARK  7 active torsions:
REMARK  status: ('A' for Active; 'I' for Inactive)
REMARK    1  A    between atoms: O_2  and  C_3 
REMARK    2  A    between atoms: C_6  and  C_7 
REMARK       I    between atoms: C_7  and  N_8 
REMARK    3  A    between atoms: N_8  and  C_9 
REMARK    4  A    between atoms: C_9  and  N_10 
REMARK    5  A    between atoms: N_10  and  C_11 
REMARK    6  A    between atoms: C_14  and  N_15 
REMARK       I    between atoms: N_18  and  C_19 
REMARK    7  A    between atoms: C_19  and  C_20 
ROOT
HETATM    1  C   UNL     1      38.818 -10.717   2.724  1.00  0.00     0.034 C 
HETATM    2  C   UNL     1      38.445 -12.004   2.345  1.00  0.00     0.032 C 
HETATM    3  C   UNL     1      39.301 -13.084   2.582  1.00  0.00     0.031 C 
HETATM    4  C   UNL     1      40.550 -12.918   3.198  1.00  0.00     0.030 C 
HETATM    5  C   UNL     1      40.976 -11.593   3.394  1.00  0.00     0.031 C 
HETATM    6  C   UNL     1      40.127 -10.497   3.148  1.00  0.00     0.032 C 
ENDROOT
BRANCH   1   7
HETATM    7  N   UNL     1      37.859  -9.666   2.803  1.00  0.00    -0.333 N 
HETATM    8  H   UNL     1      37.047  -9.892   3.360  1.00  0.00     0.168 HD
BRANCH   7   9
HETATM    9  C   UNL     1      37.552  -8.882   1.707  1.00  0.00     0.179 C 
HETATM   10  S   UNL     1      36.044  -8.310   1.220  1.00  0.00    -0.040 SA
BRANCH   9  11
HETATM   11  N   UNL     1      38.595  -8.425   0.915  1.00  0.00    -0.299 N 
HETATM   12  C   UNL     1      39.521  -8.800  -0.052  1.00  0.00     0.257 C 
HETATM   13  O   UNL     1      40.326  -7.961  -0.458  1.00  0.00    -0.267 OA
HETATM   14  H   UNL     1      38.703  -7.426   1.060  1.00  0.00     0.171 HD
BRANCH  12  15
HETATM   15  C   UNL     1      39.539 -10.118  -0.689  1.00  0.00     0.032 A 
HETATM   16  C   UNL     1      40.714 -10.870  -0.547  1.00  0.00     0.020 A 
HETATM   17  C   UNL     1      40.709 -12.237  -0.818  1.00  0.00     0.038 A 
HETATM   18  C   UNL     1      39.523 -12.855  -1.209  1.00  0.00     0.068 A 
HETATM   19  C   UNL     1      38.365 -12.095  -1.409  1.00  0.00     0.038 A 
HETATM   20  C   UNL     1      38.360 -10.726  -1.120  1.00  0.00     0.020 A 
BRANCH  18  21
HETATM   21  O   UNL     1      39.413 -14.204  -1.409  1.00  0.00    -0.356 OA
HETATM   22  C   UNL     1      39.842 -14.968  -0.278  1.00  0.00     0.210 C 
ENDBRANCH  18  21
ENDBRANCH  12  15
ENDBRANCH   9  11
ENDBRANCH   7   9
ENDBRANCH   1   7
BRANCH   4  23
HETATM   23  N   UNL     1      41.266 -13.988   3.721  1.00  0.00    -0.378 N 
HETATM   24  C   UNL     1      40.906 -15.380   3.402  1.00  0.00     0.143 C 
HETATM   25  C   UNL     1      42.151 -16.303   3.482  1.00  0.00     0.146 C 
HETATM   26  N   UNL     1      42.961 -16.107   4.697  1.00  0.00    -0.345 N 
HETATM   27  C   UNL     1      43.758 -17.067   5.318  1.00  0.00     0.253 C 
HETATM   28  C   UNL     1      43.207 -14.711   5.063  1.00  0.00     0.146 C 
HETATM   29  O   UNL     1      44.395 -16.841   6.346  1.00  0.00    -0.267 OA
HETATM   30  C   UNL     1      41.945 -13.842   5.025  1.00  0.00     0.143 C 
BRANCH  27  31
HETATM   31  C   UNL     1      43.873 -18.429   4.753  1.00  0.00     0.032 A 
HETATM   32  C   UNL     1      43.877 -19.560   5.576  1.00  0.00     0.017 A 
HETATM   33  C   UNL     1      43.888 -20.833   5.004  1.00  0.00     0.001 A 
HETATM   34  C   UNL     1      43.872 -20.977   3.615  1.00  0.00     0.000 A 
HETATM   35  C   UNL     1      43.837 -19.850   2.794  1.00  0.00     0.001 A 
HETATM   36  C   UNL     1      43.831 -18.575   3.361  1.00  0.00     0.017 A 
ENDBRANCH  27  31
ENDBRANCH   4  23
TORSDOF 7
ENDMDL
