MODEL 1
REMARK VINA RESULT:      -9.8      0.000      0.000
REMARK  8 active torsions:
REMARK  status: ('A' for Active; 'I' for Inactive)
REMARK    1  A    between atoms: C_4  and  S_5 
REMARK    2  A    between atoms: S_5  and  C_6 
REMARK    3  A    between atoms: C_6  and  C_7 
REMARK       I    between atoms: C_7  and  N_8 
REMARK    4  A    between atoms: N_8  and  C_9 
REMARK    5  A    between atoms: C_11  and  C_12 
REMARK    6  A    between atoms: C_23  and  C_24 
REMARK    7  A    between atoms: C_30  and  C_31 
REMARK       I    between atoms: C_31  and  N_32 
REMARK    8  A    between atoms: N_32  and  C_33 
ROOT
HETATM    1  C   UNL     1      43.055 -15.823   1.495  1.00  0.00     0.069 C 
HETATM    2  C   UNL     1      42.271 -14.954   2.443  1.00  0.00     0.019 C 
HETATM    3  N   UNL     1      42.941 -14.562   3.593  1.00  0.00    -0.353 N 
HETATM    4  C   UNL     1      42.395 -13.843   4.645  1.00  0.00     0.087 C 
HETATM    5  C   UNL     1      41.131 -13.379   4.519  1.00  0.00     0.055 C 
HETATM    6  C   UNL     1      40.345 -12.726   5.644  1.00  0.00     0.019 C 
HETATM    7  N   UNL     1      39.692 -12.185   6.578  1.00  0.00    -0.096 N 
HETATM    8  C   UNL     1      40.416 -13.446   3.166  1.00  0.00     0.104 C 
HETATM    9  C   UNL     1      41.021 -14.485   2.219  1.00  0.00     0.046 C 
HETATM   10  H   UNL     1      43.909 -14.849   3.716  1.00  0.00     0.166 HD
ENDROOT
BRANCH   4  11
HETATM   11  S   UNL     1      43.440 -13.363   5.959  1.00  0.00    -0.102 SA
BRANCH  11  12
HETATM   12  C   UNL     1      43.406 -14.752   7.131  1.00  0.00     0.184 C 
BRANCH  12  13
HETATM   13  C   UNL     1      44.037 -16.009   6.513  1.00  0.00     0.231 C 
HETATM   14  N   UNL     1      43.120 -16.952   6.082  1.00  0.00    -0.327 N 
HETATM   15  H   UNL     1      42.151 -16.735   6.300  1.00  0.00     0.169 HD
HETATM   16  O   UNL     1      45.258 -16.091   6.396  1.00  0.00    -0.272 OA
BRANCH  14  17
HETATM   17  C   UNL     1      43.348 -18.210   5.494  1.00  0.00     0.035 A 
HETATM   18  C   UNL     1      43.317 -18.452   4.121  1.00  0.00     0.045 A 
HETATM   19  C   UNL     1      43.564 -19.742   3.614  1.00  0.00     0.050 A 
HETATM   20  C   UNL     1      43.856 -20.786   4.506  1.00  0.00     0.016 A 
HETATM   21  C   UNL     1      43.887 -20.551   5.877  1.00  0.00     0.003 A 
HETATM   22  C   UNL     1      43.629 -19.271   6.366  1.00  0.00     0.029 A 
BRANCH  19  23
HETATM   23  C   UNL     1      43.535 -20.015   2.131  1.00  0.00     0.417 C 
HETATM   24  F   UNL     1      43.706 -18.907   1.360  1.00  0.00    -0.166 F 
HETATM   25  F   UNL     1      44.507 -20.891   1.749  1.00  0.00    -0.166 F 
HETATM   26  F   UNL     1      42.358 -20.572   1.726  1.00  0.00    -0.166 F 
ENDBRANCH  19  23
ENDBRANCH  14  17
ENDBRANCH  12  13
ENDBRANCH  11  12
ENDBRANCH   4  11
BRANCH   8  27
HETATM   27  C   UNL     1      40.428 -12.033   2.557  1.00  0.00    -0.042 A 
HETATM   28  C   UNL     1      39.245 -11.296   2.384  1.00  0.00     0.027 A 
HETATM   29  C   UNL     1      39.313 -10.047   1.788  1.00  0.00     0.116 A 
HETATM   30  N   UNL     1      40.455  -9.489   1.344  1.00  0.00    -0.273 NA
HETATM   31  C   UNL     1      41.585 -10.208   1.520  1.00  0.00     0.116 A 
HETATM   32  C   UNL     1      41.624 -11.464   2.107  1.00  0.00     0.027 A 
ENDBRANCH   8  27
BRANCH   9  33
HETATM   33  C   UNL     1      40.146 -14.844   1.056  1.00  0.00     0.255 C 
HETATM   34  N   UNL     1      40.050 -13.864   0.092  1.00  0.00    -0.323 N 
HETATM   35  H   UNL     1      40.566 -13.008   0.243  1.00  0.00     0.169 HD
HETATM   36  O   UNL     1      39.660 -15.967   0.998  1.00  0.00    -0.268 OA
BRANCH  34  37
HETATM   37  C   UNL     1      39.281 -13.914  -1.094  1.00  0.00     0.035 A 
HETATM   38  C   UNL     1      39.428 -14.889  -2.083  1.00  0.00     0.029 A 
HETATM   39  C   UNL     1      38.621 -14.872  -3.226  1.00  0.00     0.002 A 
HETATM   40  C   UNL     1      37.654 -13.886  -3.387  1.00  0.00     0.000 A 
HETATM   41  C   UNL     1      37.497 -12.908  -2.408  1.00  0.00     0.002 A 
HETATM   42  C   UNL     1      38.309 -12.919  -1.269  1.00  0.00     0.029 A 
ENDBRANCH  34  37
ENDBRANCH   9  33
TORSDOF 8
ENDMDL
MODEL 2
REMARK VINA RESULT:      -9.6      5.257      8.738
REMARK  8 active torsions:
REMARK  status: ('A' for Active; 'I' for Inactive)
REMARK    1  A    between atoms: C_4  and  S_5 
REMARK    2  A    between atoms: S_5  and  C_6 
REMARK    3  A    between atoms: C_6  and  C_7 
REMARK       I    between atoms: C_7  and  N_8 
REMARK    4  A    between atoms: N_8  and  C_9 
REMARK    5  A    between atoms: C_11  and  C_12 
REMARK    6  A    between atoms: C_23  and  C_24 
REMARK    7  A    between atoms: C_30  and  C_31 
REMARK       I    between atoms: C_31  and  N_32 
REMARK    8  A    between atoms: N_32  and  C_33 
ROOT
HETATM    1  C   UNL     1      40.893 -14.189   0.932  1.00  0.00     0.069 C 
HETATM    2  C   UNL     1      41.679 -13.660   2.104  1.00  0.00     0.019 C 
HETATM    3  N   UNL     1      41.317 -12.398   2.550  1.00  0.00    -0.353 N 
HETATM    4  C   UNL     1      41.955 -11.675   3.546  1.00  0.00     0.087 C 
HETATM    5  C   UNL     1      42.956 -12.272   4.233  1.00  0.00     0.055 C 
HETATM    6  C   UNL     1      43.854 -11.556   5.229  1.00  0.00     0.019 C 
HETATM    7  N   UNL     1      44.599 -10.962   6.055  1.00  0.00    -0.096 N 
HETATM    8  C   UNL     1      43.214 -13.773   4.071  1.00  0.00     0.104 C 
HETATM    9  C   UNL     1      42.636 -14.345   2.774  1.00  0.00     0.046 C 
HETATM   10  H   UNL     1      40.541 -11.923   2.095  1.00  0.00     0.166 HD
ENDROOT
BRANCH   4  11
HETATM   11  S   UNL     1      41.277 -10.140   4.029  1.00  0.00    -0.102 SA
BRANCH  11  12
HETATM   12  C   UNL     1      39.997 -10.545   5.256  1.00  0.00     0.184 C 
BRANCH  12  13
HETATM   13  C   UNL     1      40.327  -9.925   6.622  1.00  0.00     0.231 C 
HETATM   14  N   UNL     1      41.537  -9.254   6.663  1.00  0.00    -0.327 N 
HETATM   15  H   UNL     1      42.092  -9.324   5.816  1.00  0.00     0.169 HD
HETATM   16  O   UNL     1      39.522 -10.011   7.546  1.00  0.00    -0.272 OA
BRANCH  14  17
HETATM   17  C   UNL     1      42.150  -8.595   7.744  1.00  0.00     0.035 A 
HETATM   18  C   UNL     1      42.818  -9.244   8.783  1.00  0.00     0.045 A 
HETATM   19  C   UNL     1      43.410  -8.507   9.827  1.00  0.00     0.050 A 
HETATM   20  C   UNL     1      43.335  -7.105   9.807  1.00  0.00     0.016 A 
HETATM   21  C   UNL     1      42.669  -6.453   8.774  1.00  0.00     0.003 A 
HETATM   22  C   UNL     1      42.076  -7.195   7.753  1.00  0.00     0.029 A 
BRANCH  19  23
HETATM   23  C   UNL     1      44.137  -9.199  10.954  1.00  0.00     0.417 C 
HETATM   24  F   UNL     1      44.148  -8.496  12.119  1.00  0.00    -0.166 F 
HETATM   25  F   UNL     1      43.592 -10.411  11.252  1.00  0.00    -0.166 F 
HETATM   26  F   UNL     1      45.444  -9.445  10.655  1.00  0.00    -0.166 F 
ENDBRANCH  19  23
ENDBRANCH  14  17
ENDBRANCH  12  13
ENDBRANCH  11  12
ENDBRANCH   4  11
BRANCH   8  27
HETATM   27  C   UNL     1      42.653 -14.483   5.315  1.00  0.00    -0.042 A 
HETATM   28  C   UNL     1      43.499 -15.067   6.273  1.00  0.00     0.027 A 
HETATM   29  C   UNL     1      42.936 -15.733   7.350  1.00  0.00     0.116 A 
HETATM   30  N   UNL     1      41.609 -15.872   7.535  1.00  0.00    -0.273 NA
HETATM   31  C   UNL     1      40.808 -15.303   6.608  1.00  0.00     0.116 A 
HETATM   32  C   UNL     1      41.272 -14.613   5.497  1.00  0.00     0.027 A 
ENDBRANCH   8  27
BRANCH   9  33
HETATM   33  C   UNL     1      43.174 -15.692   2.400  1.00  0.00     0.255 C 
HETATM   34  N   UNL     1      42.755 -16.720   3.217  1.00  0.00    -0.323 N 
HETATM   35  H   UNL     1      42.133 -16.486   3.979  1.00  0.00     0.169 HD
HETATM   36  O   UNL     1      43.854 -15.805   1.387  1.00  0.00    -0.268 OA
BRANCH  34  37
HETATM   37  C   UNL     1      43.119 -18.083   3.121  1.00  0.00     0.035 A 
HETATM   38  C   UNL     1      42.781 -18.910   2.046  1.00  0.00     0.029 A 
HETATM   39  C   UNL     1      43.188 -20.248   2.023  1.00  0.00     0.002 A 
HETATM   40  C   UNL     1      43.942 -20.771   3.069  1.00  0.00     0.000 A 
HETATM   41  C   UNL     1      44.286 -19.957   4.144  1.00  0.00     0.002 A 
HETATM   42  C   UNL     1      43.872 -18.621   4.173  1.00  0.00     0.029 A 
ENDBRANCH  34  37
ENDBRANCH   9  33
TORSDOF 8
ENDMDL
MODEL 3
REMARK VINA RESULT:      -9.5      3.722      7.196
REMARK  8 active torsions:
REMARK  status: ('A' for Active; 'I' for Inactive)
REMARK    1  A    between atoms: C_4  and  S_5 
REMARK    2  A    between atoms: S_5  and  C_6 
REMARK    3  A    between atoms: C_6  and  C_7 
REMARK       I    between atoms: C_7  and  N_8 
REMARK    4  A    between atoms: N_8  and  C_9 
REMARK    5  A    between atoms: C_11  and  C_12 
REMARK    6  A    between atoms: C_23  and  C_24 
REMARK    7  A    between atoms: C_30  and  C_31 
REMARK       I    between atoms: C_31  and  N_32 
REMARK    8  A    between atoms: N_32  and  C_33 
ROOT
HETATM    1  C   UNL     1      39.129  -8.908   4.392  1.00  0.00     0.069 C 
HETATM    2  C   UNL     1      39.636 -10.259   4.824  1.00  0.00     0.019 C 
HETATM    3  N   UNL     1      39.544 -11.267   3.875  1.00  0.00    -0.353 N 
HETATM    4  C   UNL     1      39.860 -12.601   4.076  1.00  0.00     0.087 C 
HETATM    5  C   UNL     1      40.408 -12.962   5.259  1.00  0.00     0.055 C 
HETATM    6  C   UNL     1      40.649 -14.401   5.685  1.00  0.00     0.019 C 
HETATM    7  N   UNL     1      40.849 -15.595   6.040  1.00  0.00    -0.096 N 
HETATM    8  C   UNL     1      40.878 -11.891   6.248  1.00  0.00     0.104 C 
HETATM    9  C   UNL     1      40.223 -10.528   6.014  1.00  0.00     0.046 C 
HETATM   10  H   UNL     1      39.178 -11.038   2.954  1.00  0.00     0.166 HD
ENDROOT
BRANCH   4  11
HETATM   11  S   UNL     1      39.769 -13.694   2.717  1.00  0.00    -0.102 SA
BRANCH  11  12
HETATM   12  C   UNL     1      41.272 -13.378   1.745  1.00  0.00     0.184 C 
BRANCH  12  13
HETATM   13  C   UNL     1      42.403 -14.336   2.150  1.00  0.00     0.231 C 
HETATM   14  N   UNL     1      41.966 -15.563   2.620  1.00  0.00    -0.327 N 
HETATM   15  H   UNL     1      40.958 -15.648   2.717  1.00  0.00     0.169 HD
HETATM   16  O   UNL     1      43.576 -14.001   2.000  1.00  0.00    -0.272 OA
BRANCH  14  17
HETATM   17  C   UNL     1      42.720 -16.654   3.088  1.00  0.00     0.035 A 
HETATM   18  C   UNL     1      42.736 -17.912   2.488  1.00  0.00     0.045 A 
HETATM   19  C   UNL     1      43.526 -18.951   3.018  1.00  0.00     0.050 A 
HETATM   20  C   UNL     1      44.312 -18.704   4.155  1.00  0.00     0.016 A 
HETATM   21  C   UNL     1      44.299 -17.451   4.759  1.00  0.00     0.003 A 
HETATM   22  C   UNL     1      43.503 -16.435   4.231  1.00  0.00     0.029 A 
BRANCH  19  23
HETATM   23  C   UNL     1      43.553 -20.315   2.375  1.00  0.00     0.417 C 
HETATM   24  F   UNL     1      44.527 -20.466   1.436  1.00  0.00    -0.166 F 
HETATM   25  F   UNL     1      43.751 -21.310   3.284  1.00  0.00    -0.166 F 
HETATM   26  F   UNL     1      42.382 -20.618   1.747  1.00  0.00    -0.166 F 
ENDBRANCH  19  23
ENDBRANCH  14  17
ENDBRANCH  12  13
ENDBRANCH  11  12
ENDBRANCH   4  11
BRANCH   8  27
HETATM   27  C   UNL     1      42.413 -11.817   6.166  1.00  0.00    -0.042 A 
HETATM   28  C   UNL     1      43.218 -11.942   7.310  1.00  0.00     0.027 A 
HETATM   29  C   UNL     1      44.592 -11.821   7.181  1.00  0.00     0.116 A 
HETATM   30  N   UNL     1      45.217 -11.573   6.014  1.00  0.00    -0.273 NA
HETATM   31  C   UNL     1      44.430 -11.458   4.922  1.00  0.00     0.116 A 
HETATM   32  C   UNL     1      43.047 -11.567   4.945  1.00  0.00     0.027 A 
ENDBRANCH   8  27
BRANCH   9  33
HETATM   33  C   UNL     1      40.362  -9.572   7.159  1.00  0.00     0.255 C 
HETATM   34  N   UNL     1      39.667  -9.937   8.293  1.00  0.00    -0.323 N 
HETATM   35  H   UNL     1      39.138 -10.797   8.260  1.00  0.00     0.169 HD
HETATM   36  O   UNL     1      41.116  -8.613   7.050  1.00  0.00    -0.268 OA
BRANCH  34  37
HETATM   37  C   UNL     1      39.593  -9.220   9.509  1.00  0.00     0.035 A 
HETATM   38  C   UNL     1      40.255  -9.595  10.681  1.00  0.00     0.029 A 
HETATM   39  C   UNL     1      40.137  -8.826  11.844  1.00  0.00     0.002 A 
HETATM   40  C   UNL     1      39.363  -7.670  11.844  1.00  0.00     0.000 A 
HETATM   41  C   UNL     1      38.699  -7.285  10.682  1.00  0.00     0.002 A 
HETATM   42  C   UNL     1      38.809  -8.058   9.522  1.00  0.00     0.029 A 
ENDBRANCH  34  37
ENDBRANCH   9  33
TORSDOF 8
ENDMDL
MODEL 4
REMARK VINA RESULT:      -9.5      3.364      6.990
REMARK  8 active torsions:
REMARK  status: ('A' for Active; 'I' for Inactive)
REMARK    1  A    between atoms: C_4  and  S_5 
REMARK    2  A    between atoms: S_5  and  C_6 
REMARK    3  A    between atoms: C_6  and  C_7 
REMARK       I    between atoms: C_7  and  N_8 
REMARK    4  A    between atoms: N_8  and  C_9 
REMARK    5  A    between atoms: C_11  and  C_12 
REMARK    6  A    between atoms: C_23  and  C_24 
REMARK    7  A    between atoms: C_30  and  C_31 
REMARK       I    between atoms: C_31  and  N_32 
REMARK    8  A    between atoms: N_32  and  C_33 
ROOT
HETATM    1  C   UNL     1      41.962 -13.782   6.236  1.00  0.00     0.069 C 
HETATM    2  C   UNL     1      41.851 -12.731   5.164  1.00  0.00     0.019 C 
HETATM    3  N   UNL     1      41.078 -13.072   4.064  1.00  0.00    -0.353 N 
HETATM    4  C   UNL     1      40.909 -12.306   2.921  1.00  0.00     0.087 C 
HETATM    5  C   UNL     1      41.450 -11.067   2.892  1.00  0.00     0.055 C 
HETATM    6  C   UNL     1      41.494 -10.184   1.655  1.00  0.00     0.019 C 
HETATM    7  N   UNL     1      41.531  -9.450   0.630  1.00  0.00    -0.096 N 
HETATM    8  C   UNL     1      42.026 -10.447   4.168  1.00  0.00     0.104 C 
HETATM    9  C   UNL     1      42.383 -11.487   5.233  1.00  0.00     0.046 C 
HETATM   10  H   UNL     1      40.613 -13.977   4.057  1.00  0.00     0.166 HD
ENDROOT
BRANCH   4  11
HETATM   11  S   UNL     1      39.808 -12.874   1.691  1.00  0.00    -0.102 SA
BRANCH  11  12
HETATM   12  C   UNL     1      40.777 -14.030   0.676  1.00  0.00     0.184 C 
BRANCH  12  13
HETATM   13  C   UNL     1      41.016 -15.351   1.423  1.00  0.00     0.231 C 
HETATM   14  N   UNL     1      42.303 -15.503   1.911  1.00  0.00    -0.327 N 
HETATM   15  H   UNL     1      42.948 -14.765   1.647  1.00  0.00     0.169 HD
HETATM   16  O   UNL     1      40.090 -16.145   1.581  1.00  0.00    -0.272 OA
BRANCH  14  17
HETATM   17  C   UNL     1      42.863 -16.584   2.616  1.00  0.00     0.035 A 
HETATM   18  C   UNL     1      42.909 -17.893   2.137  1.00  0.00     0.045 A 
HETATM   19  C   UNL     1      43.494 -18.918   2.905  1.00  0.00     0.050 A 
HETATM   20  C   UNL     1      44.047 -18.607   4.158  1.00  0.00     0.016 A 
HETATM   21  C   UNL     1      44.003 -17.303   4.641  1.00  0.00     0.003 A 
HETATM   22  C   UNL     1      43.409 -16.300   3.875  1.00  0.00     0.029 A 
BRANCH  19  23
HETATM   23  C   UNL     1      43.553 -20.337   2.397  1.00  0.00     0.417 C 
HETATM   24  F   UNL     1      44.588 -20.580   1.547  1.00  0.00    -0.166 F 
HETATM   25  F   UNL     1      43.677 -21.243   3.407  1.00  0.00    -0.166 F 
HETATM   26  F   UNL     1      42.425 -20.693   1.719  1.00  0.00    -0.166 F 
ENDBRANCH  19  23
ENDBRANCH  14  17
ENDBRANCH  12  13
ENDBRANCH  11  12
ENDBRANCH   4  11
BRANCH   8  27
HETATM   27  C   UNL     1      41.012  -9.413   4.687  1.00  0.00    -0.042 A 
HETATM   28  C   UNL     1      41.354  -8.060   4.842  1.00  0.00     0.027 A 
HETATM   29  C   UNL     1      40.413  -7.183   5.357  1.00  0.00     0.116 A 
HETATM   30  N   UNL     1      39.174  -7.551   5.739  1.00  0.00    -0.273 NA
HETATM   31  C   UNL     1      38.858  -8.855   5.581  1.00  0.00     0.116 A 
HETATM   32  C   UNL     1      39.726  -9.810   5.072  1.00  0.00     0.027 A 
ENDBRANCH   8  27
BRANCH   9  33
HETATM   33  C   UNL     1      43.275 -10.974   6.322  1.00  0.00     0.255 C 
HETATM   34  N   UNL     1      42.616 -10.617   7.478  1.00  0.00    -0.323 N 
HETATM   35  H   UNL     1      41.611 -10.729   7.496  1.00  0.00     0.169 HD
HETATM   36  O   UNL     1      44.489 -10.984   6.155  1.00  0.00    -0.268 OA
BRANCH  34  37
HETATM   37  C   UNL     1      43.192 -10.082   8.653  1.00  0.00     0.035 A 
HETATM   38  C   UNL     1      44.405 -10.513   9.197  1.00  0.00     0.029 A 
HETATM   39  C   UNL     1      44.912  -9.925  10.361  1.00  0.00     0.002 A 
HETATM   40  C   UNL     1      44.217  -8.895  10.987  1.00  0.00     0.000 A 
HETATM   41  C   UNL     1      43.009  -8.455  10.453  1.00  0.00     0.002 A 
HETATM   42  C   UNL     1      42.496  -9.049   9.295  1.00  0.00     0.029 A 
ENDBRANCH  34  37
ENDBRANCH   9  33
TORSDOF 8
ENDMDL
MODEL 5
REMARK VINA RESULT:      -9.5      2.931      7.892
REMARK  8 active torsions:
REMARK  status: ('A' for Active; 'I' for Inactive)
REMARK    1  A    between atoms: C_4  and  S_5 
REMARK    2  A    between atoms: S_5  and  C_6 
REMARK    3  A    between atoms: C_6  and  C_7 
REMARK       I    between atoms: C_7  and  N_8 
REMARK    4  A    between atoms: N_8  and  C_9 
REMARK    5  A    between atoms: C_11  and  C_12 
REMARK    6  A    between atoms: C_23  and  C_24 
REMARK    7  A    between atoms: C_30  and  C_31 
REMARK       I    between atoms: C_31  and  N_32 
REMARK    8  A    between atoms: N_32  and  C_33 
ROOT
HETATM    1  C   UNL     1      39.999 -15.420   1.009  1.00  0.00     0.069 C 
HETATM    2  C   UNL     1      40.731 -14.539   1.986  1.00  0.00     0.019 C 
HETATM    3  N   UNL     1      40.090 -13.358   2.329  1.00  0.00    -0.353 N 
HETATM    4  C   UNL     1      40.610 -12.355   3.132  1.00  0.00     0.087 C 
HETATM    5  C   UNL     1      41.803 -12.567   3.734  1.00  0.00     0.055 C 
HETATM    6  C   UNL     1      42.573 -11.504   4.500  1.00  0.00     0.019 C 
HETATM    7  N   UNL     1      43.213 -10.622   5.136  1.00  0.00    -0.096 N 
HETATM    8  C   UNL     1      42.440 -13.959   3.713  1.00  0.00     0.104 C 
HETATM    9  C   UNL     1      41.905 -14.848   2.588  1.00  0.00     0.046 C 
HETATM   10  H   UNL     1      39.170 -13.171   1.937  1.00  0.00     0.166 HD
ENDROOT
BRANCH   4  11
HETATM   11  S   UNL     1      39.595 -10.989   3.524  1.00  0.00    -0.102 SA
BRANCH  11  12
HETATM   12  C   UNL     1      40.004  -9.718   2.291  1.00  0.00     0.184 C 
BRANCH  12  13
HETATM   13  C   UNL     1      39.900 -10.280   0.865  1.00  0.00     0.231 C 
HETATM   14  N   UNL     1      38.688 -10.886   0.580  1.00  0.00    -0.327 N 
HETATM   15  H   UNL     1      38.052 -10.957   1.369  1.00  0.00     0.169 HD
HETATM   16  O   UNL     1      40.831 -10.131   0.076  1.00  0.00    -0.272 OA
BRANCH  14  17
HETATM   17  C   UNL     1      38.267 -11.515  -0.605  1.00  0.00     0.035 A 
HETATM   18  C   UNL     1      38.797 -12.711  -1.090  1.00  0.00     0.045 A 
HETATM   19  C   UNL     1      38.313 -13.277  -2.285  1.00  0.00     0.050 A 
HETATM   20  C   UNL     1      37.278 -12.632  -2.981  1.00  0.00     0.016 A 
HETATM   21  C   UNL     1      36.747 -11.439  -2.503  1.00  0.00     0.003 A 
HETATM   22  C   UNL     1      37.244 -10.882  -1.325  1.00  0.00     0.029 A 
BRANCH  19  23
HETATM   23  C   UNL     1      38.876 -14.571  -2.818  1.00  0.00     0.417 C 
HETATM   24  F   UNL     1      40.219 -14.543  -3.036  1.00  0.00    -0.166 F 
HETATM   25  F   UNL     1      38.655 -15.617  -1.973  1.00  0.00    -0.166 F 
HETATM   26  F   UNL     1      38.314 -14.933  -4.006  1.00  0.00    -0.166 F 
ENDBRANCH  19  23
ENDBRANCH  14  17
ENDBRANCH  12  13
ENDBRANCH  11  12
ENDBRANCH   4  11
BRANCH   8  27
HETATM   27  C   UNL     1      42.230 -14.593   5.099  1.00  0.00    -0.042 A 
HETATM   28  C   UNL     1      43.304 -14.821   5.975  1.00  0.00     0.027 A 
HETATM   29  C   UNL     1      43.060 -15.437   7.192  1.00  0.00     0.116 A 
HETATM   30  N   UNL     1      41.843 -15.850   7.593  1.00  0.00    -0.273 NA
HETATM   31  C   UNL     1      40.819 -15.622   6.742  1.00  0.00     0.116 A 
HETATM   32  C   UNL     1      40.957 -15.010   5.504  1.00  0.00     0.027 A 
ENDBRANCH   8  27
BRANCH   9  33
HETATM   33  C   UNL     1      42.746 -16.054   2.301  1.00  0.00     0.255 C 
HETATM   34  N   UNL     1      42.408 -17.171   3.034  1.00  0.00    -0.323 N 
HETATM   35  H   UNL     1      41.640 -17.088   3.685  1.00  0.00     0.169 HD
HETATM   36  O   UNL     1      43.588 -15.999   1.413  1.00  0.00    -0.268 OA
BRANCH  34  37
HETATM   37  C   UNL     1      43.039 -18.436   2.992  1.00  0.00     0.035 A 
HETATM   38  C   UNL     1      42.967 -19.312   1.906  1.00  0.00     0.029 A 
HETATM   39  C   UNL     1      43.629 -20.545   1.941  1.00  0.00     0.002 A 
HETATM   40  C   UNL     1      44.375 -20.909   3.057  1.00  0.00     0.000 A 
HETATM   41  C   UNL     1      44.456 -20.044   4.145  1.00  0.00     0.002 A 
HETATM   42  C   UNL     1      43.787 -18.816   4.115  1.00  0.00     0.029 A 
ENDBRANCH  34  37
ENDBRANCH   9  33
TORSDOF 8
ENDMDL
MODEL 6
REMARK VINA RESULT:      -9.2      3.762      7.149
REMARK  8 active torsions:
REMARK  status: ('A' for Active; 'I' for Inactive)
REMARK    1  A    between atoms: C_4  and  S_5 
REMARK    2  A    between atoms: S_5  and  C_6 
REMARK    3  A    between atoms: C_6  and  C_7 
REMARK       I    between atoms: C_7  and  N_8 
REMARK    4  A    between atoms: N_8  and  C_9 
REMARK    5  A    between atoms: C_11  and  C_12 
REMARK    6  A    between atoms: C_23  and  C_24 
REMARK    7  A    between atoms: C_30  and  C_31 
REMARK       I    between atoms: C_31  and  N_32 
REMARK    8  A    between atoms: N_32  and  C_33 
ROOT
HETATM    1  C   UNL     1      42.019 -13.842   6.425  1.00  0.00     0.069 C 
HETATM    2  C   UNL     1      41.921 -12.872   5.277  1.00  0.00     0.019 C 
HETATM    3  N   UNL     1      41.190 -13.308   4.182  1.00  0.00    -0.353 N 
HETATM    4  C   UNL     1      41.042 -12.630   2.982  1.00  0.00     0.087 C 
HETATM    5  C   UNL     1      41.558 -11.383   2.881  1.00  0.00     0.055 C 
HETATM    6  C   UNL     1      41.623 -10.589   1.586  1.00  0.00     0.019 C 
HETATM    7  N   UNL     1      41.677  -9.929   0.512  1.00  0.00    -0.096 N 
HETATM    8  C   UNL     1      42.079 -10.661   4.126  1.00  0.00     0.104 C 
HETATM    9  C   UNL     1      42.423 -11.615   5.273  1.00  0.00     0.046 C 
HETATM   10  H   UNL     1      40.745 -14.222   4.225  1.00  0.00     0.166 HD
ENDROOT
BRANCH   4  11
HETATM   11  S   UNL     1      39.993 -13.309   1.762  1.00  0.00    -0.102 SA
BRANCH  11  12
HETATM   12  C   UNL     1      41.071 -14.341   0.724  1.00  0.00     0.184 C 
BRANCH  12  13
HETATM   13  C   UNL     1      42.171 -15.007   1.564  1.00  0.00     0.231 C 
HETATM   14  N   UNL     1      41.772 -16.167   2.207  1.00  0.00    -0.327 N 
HETATM   15  H   UNL     1      40.785 -16.388   2.112  1.00  0.00     0.169 HD
HETATM   16  O   UNL     1      43.303 -14.529   1.584  1.00  0.00    -0.272 OA
BRANCH  14  17
HETATM   17  C   UNL     1      42.509 -17.007   3.060  1.00  0.00     0.035 A 
HETATM   18  C   UNL     1      42.570 -16.859   4.446  1.00  0.00     0.045 A 
HETATM   19  C   UNL     1      43.329 -17.750   5.230  1.00  0.00     0.050 A 
HETATM   20  C   UNL     1      44.016 -18.802   4.604  1.00  0.00     0.016 A 
HETATM   21  C   UNL     1      43.960 -18.953   3.222  1.00  0.00     0.003 A 
HETATM   22  C   UNL     1      43.215 -18.057   2.456  1.00  0.00     0.029 A 
BRANCH  19  23
HETATM   23  C   UNL     1      43.400 -17.601   6.730  1.00  0.00     0.417 C 
HETATM   24  F   UNL     1      42.354 -16.918   7.269  1.00  0.00    -0.166 F 
HETATM   25  F   UNL     1      43.430 -18.806   7.367  1.00  0.00    -0.166 F 
HETATM   26  F   UNL     1      44.523 -16.943   7.135  1.00  0.00    -0.166 F 
ENDBRANCH  19  23
ENDBRANCH  14  17
ENDBRANCH  12  13
ENDBRANCH  11  12
ENDBRANCH   4  11
BRANCH   8  27
HETATM   27  C   UNL     1      41.027  -9.617   4.539  1.00  0.00    -0.042 A 
HETATM   28  C   UNL     1      39.736  -9.993   4.943  1.00  0.00     0.027 A 
HETATM   29  C   UNL     1      38.816  -9.006   5.259  1.00  0.00     0.116 A 
HETATM   30  N   UNL     1      39.079  -7.686   5.191  1.00  0.00    -0.273 NA
HETATM   31  C   UNL     1      40.326  -7.340   4.804  1.00  0.00     0.116 A 
HETATM   32  C   UNL     1      41.318  -8.250   4.470  1.00  0.00     0.027 A 
ENDBRANCH   8  27
BRANCH   9  33
HETATM   33  C   UNL     1      43.270 -11.005   6.349  1.00  0.00     0.255 C 
HETATM   34  N   UNL     1      42.567 -10.591   7.460  1.00  0.00    -0.323 N 
HETATM   35  H   UNL     1      41.566 -10.731   7.458  1.00  0.00     0.169 HD
HETATM   36  O   UNL     1      44.487 -10.992   6.217  1.00  0.00    -0.268 OA
BRANCH  34  37
HETATM   37  C   UNL     1      43.095  -9.963   8.612  1.00  0.00     0.035 A 
HETATM   38  C   UNL     1      42.900  -8.616   8.928  1.00  0.00     0.029 A 
HETATM   39  C   UNL     1      43.451  -8.071  10.094  1.00  0.00     0.002 A 
HETATM   40  C   UNL     1      44.193  -8.869  10.958  1.00  0.00     0.000 A 
HETATM   41  C   UNL     1      44.393 -10.214  10.655  1.00  0.00     0.002 A 
HETATM   42  C   UNL     1      43.851 -10.756   9.485  1.00  0.00     0.029 A 
ENDBRANCH  34  37
ENDBRANCH   9  33
TORSDOF 8
ENDMDL
MODEL 7
REMARK VINA RESULT:      -9.2      3.761      7.532
REMARK  8 active torsions:
REMARK  status: ('A' for Active; 'I' for Inactive)
REMARK    1  A    between atoms: C_4  and  S_5 
REMARK    2  A    between atoms: S_5  and  C_6 
REMARK    3  A    between atoms: C_6  and  C_7 
REMARK       I    between atoms: C_7  and  N_8 
REMARK    4  A    between atoms: N_8  and  C_9 
REMARK    5  A    between atoms: C_11  and  C_12 
REMARK    6  A    between atoms: C_23  and  C_24 
REMARK    7  A    between atoms: C_30  and  C_31 
REMARK       I    between atoms: C_31  and  N_32 
REMARK    8  A    between atoms: N_32  and  C_33 
ROOT
HETATM    1  C   UNL     1      45.079 -12.151   6.809  1.00  0.00     0.069 C 
HETATM    2  C   UNL     1      44.042 -11.456   5.967  1.00  0.00     0.019 C 
HETATM    3  N   UNL     1      43.775 -12.039   4.737  1.00  0.00    -0.353 N 
HETATM    4  C   UNL     1      42.933 -11.529   3.762  1.00  0.00     0.087 C 
HETATM    5  C   UNL     1      42.213 -10.420   4.050  1.00  0.00     0.055 C 
HETATM    6  C   UNL     1      41.383  -9.653   3.033  1.00  0.00     0.019 C 
HETATM    7  N   UNL     1      40.695  -9.016   2.190  1.00  0.00    -0.096 N 
HETATM    8  C   UNL     1      42.158  -9.888   5.485  1.00  0.00     0.104 C 
HETATM    9  C   UNL     1      43.324 -10.374   6.350  1.00  0.00     0.046 C 
HETATM   10  H   UNL     1      44.259 -12.900   4.490  1.00  0.00     0.166 HD
ENDROOT
BRANCH   4  11
HETATM   11  S   UNL     1      42.656 -12.474   2.320  1.00  0.00    -0.102 SA
BRANCH  11  12
HETATM   12  C   UNL     1      41.085 -13.341   2.609  1.00  0.00     0.184 C 
BRANCH  12  13
HETATM   13  C   UNL     1      41.323 -14.712   3.259  1.00  0.00     0.231 C 
HETATM   14  N   UNL     1      42.558 -15.269   2.973  1.00  0.00    -0.327 N 
HETATM   15  H   UNL     1      43.118 -14.745   2.306  1.00  0.00     0.169 HD
HETATM   16  O   UNL     1      40.471 -15.199   3.998  1.00  0.00    -0.272 OA
BRANCH  14  17
HETATM   17  C   UNL     1      43.090 -16.505   3.381  1.00  0.00     0.035 A 
HETATM   18  C   UNL     1      43.006 -17.681   2.635  1.00  0.00     0.045 A 
HETATM   19  C   UNL     1      43.572 -18.878   3.115  1.00  0.00     0.050 A 
HETATM   20  C   UNL     1      44.238 -18.875   4.351  1.00  0.00     0.016 A 
HETATM   21  C   UNL     1      44.325 -17.706   5.100  1.00  0.00     0.003 A 
HETATM   22  C   UNL     1      43.748 -16.531   4.619  1.00  0.00     0.029 A 
BRANCH  19  23
HETATM   23  C   UNL     1      43.490 -20.155   2.316  1.00  0.00     0.417 C 
HETATM   24  F   UNL     1      44.244 -20.149   1.183  1.00  0.00    -0.166 F 
HETATM   25  F   UNL     1      43.897 -21.239   3.032  1.00  0.00    -0.166 F 
HETATM   26  F   UNL     1      42.218 -20.435   1.914  1.00  0.00    -0.166 F 
ENDBRANCH  19  23
ENDBRANCH  14  17
ENDBRANCH  12  13
ENDBRANCH  11  12
ENDBRANCH   4  11
BRANCH   8  27
HETATM   27  C   UNL     1      40.794 -10.280   6.079  1.00  0.00    -0.042 A 
HETATM   28  C   UNL     1      40.022  -9.366   6.815  1.00  0.00     0.027 A 
HETATM   29  C   UNL     1      38.823  -9.790   7.365  1.00  0.00     0.116 A 
HETATM   30  N   UNL     1      38.347 -11.045   7.251  1.00  0.00    -0.273 NA
HETATM   31  C   UNL     1      39.099 -11.911   6.538  1.00  0.00     0.116 A 
HETATM   32  C   UNL     1      40.310 -11.586   5.945  1.00  0.00     0.027 A 
ENDBRANCH   8  27
BRANCH   9  33
HETATM   33  C   UNL     1      43.515  -9.599   7.619  1.00  0.00     0.255 C 
HETATM   34  N   UNL     1      42.859 -10.125   8.711  1.00  0.00    -0.323 N 
HETATM   35  H   UNL     1      42.320 -10.968   8.571  1.00  0.00     0.169 HD
HETATM   36  O   UNL     1      44.275  -8.639   7.625  1.00  0.00    -0.268 OA
BRANCH  34  37
HETATM   37  C   UNL     1      42.838  -9.597  10.023  1.00  0.00     0.035 A 
HETATM   38  C   UNL     1      42.381  -8.316  10.345  1.00  0.00     0.029 A 
HETATM   39  C   UNL     1      42.386  -7.871  11.671  1.00  0.00     0.002 A 
HETATM   40  C   UNL     1      42.838  -8.704  12.689  1.00  0.00     0.000 A 
HETATM   41  C   UNL     1      43.294  -9.983  12.381  1.00  0.00     0.002 A 
HETATM   42  C   UNL     1      43.299 -10.426  11.054  1.00  0.00     0.029 A 
ENDBRANCH  34  37
ENDBRANCH   9  33
TORSDOF 8
ENDMDL
MODEL 8
REMARK VINA RESULT:      -9.0      6.758      9.407
REMARK  8 active torsions:
REMARK  status: ('A' for Active; 'I' for Inactive)
REMARK    1  A    between atoms: C_4  and  S_5 
REMARK    2  A    between atoms: S_5  and  C_6 
REMARK    3  A    between atoms: C_6  and  C_7 
REMARK       I    between atoms: C_7  and  N_8 
REMARK    4  A    between atoms: N_8  and  C_9 
REMARK    5  A    between atoms: C_11  and  C_12 
REMARK    6  A    between atoms: C_23  and  C_24 
REMARK    7  A    between atoms: C_30  and  C_31 
REMARK       I    between atoms: C_31  and  N_32 
REMARK    8  A    between atoms: N_32  and  C_33 
ROOT
HETATM    1  C   UNL     1      44.349 -13.332   6.796  1.00  0.00     0.069 C 
HETATM    2  C   UNL     1      42.995 -12.789   6.423  1.00  0.00     0.019 C 
HETATM    3  N   UNL     1      42.787 -11.447   6.706  1.00  0.00    -0.353 N 
HETATM    4  C   UNL     1      41.597 -10.757   6.538  1.00  0.00     0.087 C 
HETATM    5  C   UNL     1      40.560 -11.396   5.950  1.00  0.00     0.055 C 
HETATM    6  C   UNL     1      39.152 -10.831   5.852  1.00  0.00     0.019 C 
HETATM    7  N   UNL     1      37.984 -10.363   5.771  1.00  0.00    -0.096 N 
HETATM    8  C   UNL     1      40.773 -12.758   5.282  1.00  0.00     0.104 C 
HETATM    9  C   UNL     1      42.024 -13.484   5.785  1.00  0.00     0.046 C 
HETATM   10  H   UNL     1      43.551 -10.909   7.110  1.00  0.00     0.166 HD
ENDROOT
BRANCH   4  11
HETATM   11  S   UNL     1      41.574  -9.041   6.860  1.00  0.00    -0.102 SA
BRANCH  11  12
HETATM   12  C   UNL     1      43.112  -8.702   7.766  1.00  0.00     0.184 C 
BRANCH  12  13
HETATM   13  C   UNL     1      43.014  -9.187   9.221  1.00  0.00     0.231 C 
HETATM   14  N   UNL     1      42.088  -8.499   9.987  1.00  0.00    -0.327 N 
HETATM   15  H   UNL     1      41.651  -7.710   9.520  1.00  0.00     0.169 HD
HETATM   16  O   UNL     1      43.692 -10.140   9.598  1.00  0.00    -0.272 OA
BRANCH  14  17
HETATM   17  C   UNL     1      41.760  -8.667  11.344  1.00  0.00     0.035 A 
HETATM   18  C   UNL     1      42.230  -7.849  12.372  1.00  0.00     0.045 A 
HETATM   19  C   UNL     1      41.848  -8.083  13.707  1.00  0.00     0.050 A 
HETATM   20  C   UNL     1      40.973  -9.143  13.995  1.00  0.00     0.016 A 
HETATM   21  C   UNL     1      40.502  -9.962  12.975  1.00  0.00     0.003 A 
HETATM   22  C   UNL     1      40.899  -9.728  11.659  1.00  0.00     0.029 A 
BRANCH  19  23
HETATM   23  C   UNL     1      42.347  -7.203  14.827  1.00  0.00     0.417 C 
HETATM   24  F   UNL     1      41.747  -5.983  14.882  1.00  0.00    -0.166 F 
HETATM   25  F   UNL     1      42.158  -7.770  16.051  1.00  0.00    -0.166 F 
HETATM   26  F   UNL     1      43.685  -6.956  14.737  1.00  0.00    -0.166 F 
ENDBRANCH  19  23
ENDBRANCH  14  17
ENDBRANCH  12  13
ENDBRANCH  11  12
ENDBRANCH   4  11
BRANCH   8  27
HETATM   27  C   UNL     1      40.807 -12.536   3.761  1.00  0.00    -0.042 A 
HETATM   28  C   UNL     1      39.895 -13.173   2.903  1.00  0.00     0.027 A 
HETATM   29  C   UNL     1      40.003 -12.970   1.537  1.00  0.00     0.116 A 
HETATM   30  N   UNL     1      40.949 -12.199   0.965  1.00  0.00    -0.273 NA
HETATM   31  C   UNL     1      41.816 -11.590   1.802  1.00  0.00     0.116 A 
HETATM   32  C   UNL     1      41.791 -11.726   3.183  1.00  0.00     0.027 A 
ENDBRANCH   8  27
BRANCH   9  33
HETATM   33  C   UNL     1      42.068 -14.943   5.448  1.00  0.00     0.255 C 
HETATM   34  N   UNL     1      42.953 -15.269   4.443  1.00  0.00    -0.323 N 
HETATM   35  H   UNL     1      43.487 -14.517   4.029  1.00  0.00     0.169 HD
HETATM   36  O   UNL     1      41.407 -15.731   6.113  1.00  0.00    -0.268 OA
BRANCH  34  37
HETATM   37  C   UNL     1      43.187 -16.554   3.902  1.00  0.00     0.035 A 
HETATM   38  C   UNL     1      42.657 -17.002   2.689  1.00  0.00     0.029 A 
HETATM   39  C   UNL     1      42.944 -18.289   2.219  1.00  0.00     0.002 A 
HETATM   40  C   UNL     1      43.768 -19.136   2.952  1.00  0.00     0.000 A 
HETATM   41  C   UNL     1      44.303 -18.701   4.161  1.00  0.00     0.002 A 
HETATM   42  C   UNL     1      44.010 -17.419   4.637  1.00  0.00     0.029 A 
ENDBRANCH  34  37
ENDBRANCH   9  33
TORSDOF 8
ENDMDL
MODEL 9
REMARK VINA RESULT:      -8.8      1.870      2.479
REMARK  8 active torsions:
REMARK  status: ('A' for Active; 'I' for Inactive)
REMARK    1  A    between atoms: C_4  and  S_5 
REMARK    2  A    between atoms: S_5  and  C_6 
REMARK    3  A    between atoms: C_6  and  C_7 
REMARK       I    between atoms: C_7  and  N_8 
REMARK    4  A    between atoms: N_8  and  C_9 
REMARK    5  A    between atoms: C_11  and  C_12 
REMARK    6  A    between atoms: C_23  and  C_24 
REMARK    7  A    between atoms: C_30  and  C_31 
REMARK       I    between atoms: C_31  and  N_32 
REMARK    8  A    between atoms: N_32  and  C_33 
ROOT
HETATM    1  C   UNL     1      43.073 -13.616   2.044  1.00  0.00     0.069 C 
HETATM    2  C   UNL     1      42.072 -12.822   2.842  1.00  0.00     0.019 C 
HETATM    3  N   UNL     1      42.595 -12.064   3.880  1.00  0.00    -0.353 N 
HETATM    4  C   UNL     1      41.862 -11.332   4.800  1.00  0.00     0.087 C 
HETATM    5  C   UNL     1      40.522 -11.245   4.633  1.00  0.00     0.055 C 
HETATM    6  C   UNL     1      39.573 -10.625   5.645  1.00  0.00     0.019 C 
HETATM    7  N   UNL     1      38.785 -10.111   6.485  1.00  0.00    -0.096 N 
HETATM    8  C   UNL     1      39.874 -11.745   3.338  1.00  0.00     0.104 C 
HETATM    9  C   UNL     1      40.747 -12.746   2.577  1.00  0.00     0.046 C 
HETATM   10  H   UNL     1      43.603 -12.061   4.022  1.00  0.00     0.166 HD
ENDROOT
BRANCH   4  11
HETATM   11  S   UNL     1      42.721 -10.362   5.971  1.00  0.00    -0.102 SA
BRANCH  11  12
HETATM   12  C   UNL     1      43.151 -11.505   7.318  1.00  0.00     0.184 C 
BRANCH  12  13
HETATM   13  C   UNL     1      43.694 -12.831   6.763  1.00  0.00     0.231 C 
HETATM   14  N   UNL     1      42.783 -13.873   6.786  1.00  0.00    -0.327 N 
HETATM   15  H   UNL     1      41.900 -13.656   7.240  1.00  0.00     0.169 HD
HETATM   16  O   UNL     1      44.835 -12.885   6.307  1.00  0.00    -0.272 OA
BRANCH  14  17
HETATM   17  C   UNL     1      42.951 -15.208   6.379  1.00  0.00     0.035 A 
HETATM   18  C   UNL     1      42.876 -15.640   5.055  1.00  0.00     0.045 A 
HETATM   19  C   UNL     1      43.062 -16.998   4.731  1.00  0.00     0.050 A 
HETATM   20  C   UNL     1      43.339 -17.916   5.756  1.00  0.00     0.016 A 
HETATM   21  C   UNL     1      43.414 -17.492   7.078  1.00  0.00     0.003 A 
HETATM   22  C   UNL     1      43.215 -16.146   7.387  1.00  0.00     0.029 A 
BRANCH  19  23
HETATM   23  C   UNL     1      42.986 -17.476   3.302  1.00  0.00     0.417 C 
HETATM   24  F   UNL     1      43.872 -16.868   2.466  1.00  0.00    -0.166 F 
HETATM   25  F   UNL     1      43.223 -18.813   3.192  1.00  0.00    -0.166 F 
HETATM   26  F   UNL     1      41.756 -17.273   2.751  1.00  0.00    -0.166 F 
ENDBRANCH  19  23
ENDBRANCH  14  17
ENDBRANCH  12  13
ENDBRANCH  11  12
ENDBRANCH   4  11
BRANCH   8  27
HETATM   27  C   UNL     1      39.525 -10.515   2.482  1.00  0.00    -0.042 A 
HETATM   28  C   UNL     1      40.517  -9.636   2.018  1.00  0.00     0.027 A 
HETATM   29  C   UNL     1      40.139  -8.520   1.290  1.00  0.00     0.116 A 
HETATM   30  N   UNL     1      38.860  -8.209   1.004  1.00  0.00    -0.273 NA
HETATM   31  C   UNL     1      37.917  -9.065   1.454  1.00  0.00     0.116 A 
HETATM   32  C   UNL     1      38.192 -10.210   2.187  1.00  0.00     0.027 A 
ENDBRANCH   8  27
BRANCH   9  33
HETATM   33  C   UNL     1      40.016 -13.529   1.528  1.00  0.00     0.255 C 
HETATM   34  N   UNL     1      39.907 -12.888   0.313  1.00  0.00    -0.323 N 
HETATM   35  H   UNL     1      40.319 -11.969   0.231  1.00  0.00     0.169 HD
HETATM   36  O   UNL     1      39.653 -14.671   1.779  1.00  0.00    -0.268 OA
BRANCH  34  37
HETATM   37  C   UNL     1      39.254 -13.370  -0.844  1.00  0.00     0.035 A 
HETATM   38  C   UNL     1      39.603 -14.549  -1.508  1.00  0.00     0.029 A 
HETATM   39  C   UNL     1      38.900 -14.962  -2.644  1.00  0.00     0.002 A 
HETATM   40  C   UNL     1      37.836 -14.206  -3.124  1.00  0.00     0.000 A 
HETATM   41  C   UNL     1      37.476 -13.030  -2.471  1.00  0.00     0.002 A 
HETATM   42  C   UNL     1      38.185 -12.611  -1.340  1.00  0.00     0.029 A 
ENDBRANCH  34  37
ENDBRANCH   9  33
TORSDOF 8
ENDMDL
MODEL 10
REMARK VINA RESULT:      -8.8      3.172      7.861
REMARK  8 active torsions:
REMARK  status: ('A' for Active; 'I' for Inactive)
REMARK    1  A    between atoms: C_4  and  S_5 
REMARK    2  A    between atoms: S_5  and  C_6 
REMARK    3  A    between atoms: C_6  and  C_7 
REMARK       I    between atoms: C_7  and  N_8 
REMARK    4  A    between atoms: N_8  and  C_9 
REMARK    5  A    between atoms: C_11  and  C_12 
REMARK    6  A    between atoms: C_23  and  C_24 
REMARK    7  A    between atoms: C_30  and  C_31 
REMARK       I    between atoms: C_31  and  N_32 
REMARK    8  A    between atoms: N_32  and  C_33 
ROOT
HETATM    1  C   UNL     1      40.350 -14.782   1.442  1.00  0.00     0.069 C 
HETATM    2  C   UNL     1      41.245 -14.129   2.462  1.00  0.00     0.019 C 
HETATM    3  N   UNL     1      40.808 -12.908   2.953  1.00  0.00    -0.353 N 
HETATM    4  C   UNL     1      41.506 -12.086   3.823  1.00  0.00     0.087 C 
HETATM    5  C   UNL     1      42.672 -12.537   4.339  1.00  0.00     0.055 C 
HETATM    6  C   UNL     1      43.626 -11.689   5.165  1.00  0.00     0.019 C 
HETATM    7  N   UNL     1      44.417 -10.987   5.851  1.00  0.00    -0.096 N 
HETATM    8  C   UNL     1      43.084 -14.000   4.147  1.00  0.00     0.104 C 
HETATM    9  C   UNL     1      42.377 -14.674   2.969  1.00  0.00     0.046 C 
HETATM   10  H   UNL     1      39.915 -12.543   2.629  1.00  0.00     0.166 HD
ENDROOT
BRANCH   4  11
HETATM   11  S   UNL     1      40.731 -10.631   4.400  1.00  0.00    -0.102 SA
BRANCH  11  12
HETATM   12  C   UNL     1      41.210  -9.332   3.222  1.00  0.00     0.184 C 
BRANCH  12  13
HETATM   13  C   UNL     1      40.567  -9.571   1.848  1.00  0.00     0.231 C 
HETATM   14  N   UNL     1      41.394 -10.202   0.934  1.00  0.00    -0.327 N 
HETATM   15  H   UNL     1      42.345 -10.354   1.257  1.00  0.00     0.169 HD
HETATM   16  O   UNL     1      39.396  -9.248   1.652  1.00  0.00    -0.272 OA
BRANCH  14  17
HETATM   17  C   UNL     1      41.137 -10.551  -0.403  1.00  0.00     0.035 A 
HETATM   18  C   UNL     1      40.693 -11.808  -0.815  1.00  0.00     0.045 A 
HETATM   19  C   UNL     1      40.453 -12.074  -2.177  1.00  0.00     0.050 A 
HETATM   20  C   UNL     1      40.652 -11.054  -3.121  1.00  0.00     0.016 A 
HETATM   21  C   UNL     1      41.096  -9.799  -2.717  1.00  0.00     0.003 A 
HETATM   22  C   UNL     1      41.342  -9.553  -1.366  1.00  0.00     0.029 A 
BRANCH  19  23
HETATM   23  C   UNL     1      39.970 -13.428  -2.633  1.00  0.00     0.417 C 
HETATM   24  F   UNL     1      40.954 -14.232  -3.120  1.00  0.00    -0.166 F 
HETATM   25  F   UNL     1      39.376 -14.130  -1.628  1.00  0.00    -0.166 F 
HETATM   26  F   UNL     1      39.037 -13.341  -3.623  1.00  0.00    -0.166 F 
ENDBRANCH  19  23
ENDBRANCH  14  17
ENDBRANCH  12  13
ENDBRANCH  11  12
ENDBRANCH   4  11
BRANCH   8  27
HETATM   27  C   UNL     1      42.828 -14.737   5.473  1.00  0.00    -0.042 A 
HETATM   28  C   UNL     1      41.526 -14.968   5.947  1.00  0.00     0.027 A 
HETATM   29  C   UNL     1      41.358 -15.597   7.170  1.00  0.00     0.116 A 
HETATM   30  N   UNL     1      42.378 -15.997   7.955  1.00  0.00    -0.273 NA
HETATM   31  C   UNL     1      43.624 -15.771   7.485  1.00  0.00     0.116 A 
HETATM   32  C   UNL     1      43.898 -15.153   6.273  1.00  0.00     0.027 A 
ENDBRANCH   8  27
BRANCH   9  33
HETATM   33  C   UNL     1      43.010 -15.956   2.521  1.00  0.00     0.255 C 
HETATM   34  N   UNL     1      42.744 -17.036   3.334  1.00  0.00    -0.323 N 
HETATM   35  H   UNL     1      42.157 -16.880   4.142  1.00  0.00     0.169 HD
HETATM   36  O   UNL     1      43.626 -15.981   1.463  1.00  0.00    -0.268 OA
BRANCH  34  37
HETATM   37  C   UNL     1      43.224 -18.357   3.174  1.00  0.00     0.035 A 
HETATM   38  C   UNL     1      43.967 -19.043   4.138  1.00  0.00     0.029 A 
HETATM   39  C   UNL     1      44.398 -20.353   3.906  1.00  0.00     0.002 A 
HETATM   40  C   UNL     1      44.085 -20.993   2.711  1.00  0.00     0.000 A 
HETATM   41  C   UNL     1      43.344 -20.321   1.743  1.00  0.00     0.002 A 
HETATM   42  C   UNL     1      42.920 -19.007   1.971  1.00  0.00     0.029 A 
ENDBRANCH  34  37
ENDBRANCH   9  33
TORSDOF 8
ENDMDL
