MODEL 1
REMARK VINA RESULT:      -9.2      0.000      0.000
REMARK  3 active torsions:
REMARK  status: ('A' for Active; 'I' for Inactive)
REMARK    1  A    between atoms: C_5  and  C_6 
REMARK    2  A    between atoms: C_10  and  C_11 
REMARK    3  A    between atoms: C_24  and  N_25 
ROOT
HETATM    1  C   UNL     1      42.452 -15.119   4.101  1.00  0.00     0.070 A 
HETATM    2  N   UNL     1      41.291 -14.650   3.597  1.00  0.00    -0.228 NA
HETATM    3  C   UNL     1      40.882 -13.411   3.848  1.00  0.00     0.165 A 
HETATM    4  C   UNL     1      41.627 -12.525   4.634  1.00  0.00     0.063 A 
HETATM    5  C   UNL     1      42.841 -13.022   5.218  1.00  0.00    -0.006 A 
HETATM    6  C   UNL     1      43.233 -14.336   4.932  1.00  0.00     0.046 A 
HETATM    7  N   UNL     1      39.731 -13.082   3.284  1.00  0.00    -0.222 NA
HETATM    8  C   UNL     1      39.277 -11.848   3.474  1.00  0.00     0.237 A 
HETATM    9  N   UNL     1      39.892 -10.893   4.164  1.00  0.00    -0.229 NA
HETATM   10  C   UNL     1      41.059 -11.234   4.724  1.00  0.00     0.117 A 
ENDROOT
BRANCH   5  11
HETATM   11  C   UNL     1      43.714 -12.229   6.102  1.00  0.00    -0.022 A 
HETATM   12  C   UNL     1      43.411 -12.071   7.467  1.00  0.00     0.052 A 
HETATM   13  C   UNL     1      44.254 -11.304   8.244  1.00  0.00     0.105 A 
HETATM   14  C   UNL     1      45.385 -10.719   7.726  1.00  0.00     0.105 A 
HETATM   15  O   UNL     1      44.086 -11.026   9.565  1.00  0.00    -0.323 OA
HETATM   16  O   UNL     1      46.070 -10.001   8.655  1.00  0.00    -0.323 OA
HETATM   17  C   UNL     1      45.738 -10.869   6.405  1.00  0.00     0.040 A 
HETATM   18  C   UNL     1      45.220 -10.170   9.809  1.00  0.00     0.352 A 
HETATM   19  C   UNL     1      44.892 -11.630   5.589  1.00  0.00     0.015 A 
ENDBRANCH   5  11
BRANCH  10  20
HETATM   20  N   UNL     1      41.645 -10.185   5.428  1.00  0.00    -0.286 NA
HETATM   21  H   UNL     1      40.900  -9.570   5.747  1.00  0.00     0.125 HD
HETATM   22  H   UNL     1      42.341  -9.690   4.886  1.00  0.00     0.125 HD
ENDBRANCH  10  20
BRANCH   1  23
HETATM   23  C   UNL     1      42.822 -16.490   3.685  1.00  0.00    -0.007 A 
HETATM   24  C   UNL     1      43.737 -17.274   4.410  1.00  0.00     0.014 A 
HETATM   25  C   UNL     1      44.107 -18.555   3.979  1.00  0.00     0.007 A 
HETATM   26  C   UNL     1      43.579 -19.086   2.800  1.00  0.00    -0.062 A 
HETATM   27  C   UNL     1      43.968 -20.454   2.327  1.00  0.00     0.048 C 
HETATM   28  C   UNL     1      42.658 -18.328   2.074  1.00  0.00     0.007 A 
HETATM   29  C   UNL     1      42.292 -17.049   2.508  1.00  0.00     0.014 A 
ENDBRANCH   1  23
TORSDOF 3
ENDMDL
MODEL 2
REMARK VINA RESULT:      -9.0      4.958      6.939
REMARK  3 active torsions:
REMARK  status: ('A' for Active; 'I' for Inactive)
REMARK    1  A    between atoms: C_5  and  C_6 
REMARK    2  A    between atoms: C_10  and  C_11 
REMARK    3  A    between atoms: C_24  and  N_25 
ROOT
HETATM    1  C   UNL     1      41.914 -15.818   3.366  1.00  0.00     0.070 A 
HETATM    2  N   UNL     1      41.548 -15.034   4.402  1.00  0.00    -0.228 NA
HETATM    3  C   UNL     1      40.797 -13.952   4.215  1.00  0.00     0.165 A 
HETATM    4  C   UNL     1      40.341 -13.572   2.948  1.00  0.00     0.063 A 
HETATM    5  C   UNL     1      40.760 -14.367   1.829  1.00  0.00    -0.006 A 
HETATM    6  C   UNL     1      41.555 -15.496   2.069  1.00  0.00     0.046 A 
HETATM    7  N   UNL     1      40.508 -13.282   5.318  1.00  0.00    -0.222 NA
HETATM    8  C   UNL     1      39.738 -12.204   5.205  1.00  0.00     0.237 A 
HETATM    9  N   UNL     1      39.206 -11.746   4.077  1.00  0.00    -0.229 NA
HETATM   10  C   UNL     1      39.500 -12.436   2.969  1.00  0.00     0.117 A 
ENDROOT
BRANCH   5  11
HETATM   11  C   UNL     1      40.401 -14.075   0.430  1.00  0.00    -0.022 A 
HETATM   12  C   UNL     1      39.520 -14.911  -0.281  1.00  0.00     0.052 A 
HETATM   13  C   UNL     1      39.233 -14.598  -1.593  1.00  0.00     0.105 A 
HETATM   14  C   UNL     1      39.761 -13.488  -2.207  1.00  0.00     0.105 A 
HETATM   15  O   UNL     1      38.433 -15.318  -2.426  1.00  0.00    -0.323 OA
HETATM   16  O   UNL     1      39.359 -13.369  -3.500  1.00  0.00    -0.323 OA
HETATM   17  C   UNL     1      40.603 -12.626  -1.543  1.00  0.00     0.040 A 
HETATM   18  C   UNL     1      38.546 -14.553  -3.643  1.00  0.00     0.352 A 
HETATM   19  C   UNL     1      40.925 -12.926  -0.215  1.00  0.00     0.015 A 
ENDBRANCH   5  11
BRANCH  10  20
HETATM   20  N   UNL     1      38.907 -11.900   1.828  1.00  0.00    -0.286 NA
HETATM   21  H   UNL     1      38.694 -12.669   1.198  1.00  0.00     0.125 HD
HETATM   22  H   UNL     1      39.480 -11.193   1.385  1.00  0.00     0.125 HD
ENDBRANCH  10  20
BRANCH   1  23
HETATM   23  C   UNL     1      42.687 -17.027   3.723  1.00  0.00    -0.007 A 
HETATM   24  C   UNL     1      43.075 -17.981   2.765  1.00  0.00     0.014 A 
HETATM   25  C   UNL     1      43.772 -19.142   3.127  1.00  0.00     0.007 A 
HETATM   26  C   UNL     1      44.092 -19.388   4.465  1.00  0.00    -0.062 A 
HETATM   27  C   UNL     1      44.835 -20.627   4.865  1.00  0.00     0.048 C 
HETATM   28  C   UNL     1      43.727 -18.446   5.428  1.00  0.00     0.007 A 
HETATM   29  C   UNL     1      43.032 -17.289   5.062  1.00  0.00     0.014 A 
ENDBRANCH   1  23
TORSDOF 3
ENDMDL
MODEL 3
REMARK VINA RESULT:      -8.8      2.949      7.028
REMARK  3 active torsions:
REMARK  status: ('A' for Active; 'I' for Inactive)
REMARK    1  A    between atoms: C_5  and  C_6 
REMARK    2  A    between atoms: C_10  and  C_11 
REMARK    3  A    between atoms: C_24  and  N_25 
ROOT
HETATM    1  C   UNL     1      43.032 -12.662   5.433  1.00  0.00     0.070 A 
HETATM    2  N   UNL     1      41.964 -12.146   4.789  1.00  0.00    -0.228 NA
HETATM    3  C   UNL     1      41.199 -12.903   4.008  1.00  0.00     0.165 A 
HETATM    4  C   UNL     1      41.448 -14.266   3.817  1.00  0.00     0.063 A 
HETATM    5  C   UNL     1      42.608 -14.821   4.455  1.00  0.00    -0.006 A 
HETATM    6  C   UNL     1      43.390 -13.988   5.265  1.00  0.00     0.046 A 
HETATM    7  N   UNL     1      40.183 -12.268   3.446  1.00  0.00    -0.222 NA
HETATM    8  C   UNL     1      39.362 -12.973   2.674  1.00  0.00     0.237 A 
HETATM    9  N   UNL     1      39.455 -14.277   2.431  1.00  0.00    -0.229 NA
HETATM   10  C   UNL     1      40.482 -14.909   3.010  1.00  0.00     0.117 A 
ENDROOT
BRANCH   5  11
HETATM   11  C   UNL     1      43.030 -16.227   4.318  1.00  0.00    -0.022 A 
HETATM   12  C   UNL     1      43.000 -17.102   5.419  1.00  0.00     0.052 A 
HETATM   13  C   UNL     1      43.423 -18.402   5.237  1.00  0.00     0.105 A 
HETATM   14  C   UNL     1      43.845 -18.864   4.013  1.00  0.00     0.105 A 
HETATM   15  O   UNL     1      43.489 -19.360   6.201  1.00  0.00    -0.323 OA
HETATM   16  O   UNL     1      44.226 -20.167   4.052  1.00  0.00    -0.323 OA
HETATM   17  C   UNL     1      43.863 -18.053   2.901  1.00  0.00     0.040 A 
HETATM   18  C   UNL     1      44.033 -20.465   5.451  1.00  0.00     0.352 A 
HETATM   19  C   UNL     1      43.454 -16.724   3.059  1.00  0.00     0.015 A 
ENDBRANCH   5  11
BRANCH  10  20
HETATM   20  N   UNL     1      40.514 -16.269   2.712  1.00  0.00    -0.286 NA
HETATM   21  H   UNL     1      41.404 -16.468   2.263  1.00  0.00     0.125 HD
HETATM   22  H   UNL     1      39.728 -16.564   2.146  1.00  0.00     0.125 HD
ENDBRANCH  10  20
BRANCH   1  23
HETATM   23  C   UNL     1      43.753 -11.727   6.324  1.00  0.00    -0.007 A 
HETATM   24  C   UNL     1      45.148 -11.780   6.498  1.00  0.00     0.014 A 
HETATM   25  C   UNL     1      45.810 -10.914   7.378  1.00  0.00     0.007 A 
HETATM   26  C   UNL     1      45.092  -9.973   8.121  1.00  0.00    -0.062 A 
HETATM   27  C   UNL     1      45.789  -9.042   9.067  1.00  0.00     0.048 C 
HETATM   28  C   UNL     1      43.708  -9.896   7.951  1.00  0.00     0.007 A 
HETATM   29  C   UNL     1      43.052 -10.764   7.072  1.00  0.00     0.014 A 
ENDBRANCH   1  23
TORSDOF 3
ENDMDL
MODEL 4
REMARK VINA RESULT:      -8.6      3.327      5.242
REMARK  3 active torsions:
REMARK  status: ('A' for Active; 'I' for Inactive)
REMARK    1  A    between atoms: C_5  and  C_6 
REMARK    2  A    between atoms: C_10  and  C_11 
REMARK    3  A    between atoms: C_24  and  N_25 
ROOT
HETATM    1  C   UNL     1      43.206 -14.929   5.369  1.00  0.00     0.070 A 
HETATM    2  N   UNL     1      43.735 -14.290   6.434  1.00  0.00    -0.228 NA
HETATM    3  C   UNL     1      43.583 -12.979   6.595  1.00  0.00     0.165 A 
HETATM    4  C   UNL     1      42.868 -12.194   5.684  1.00  0.00     0.063 A 
HETATM    5  C   UNL     1      42.340 -12.849   4.521  1.00  0.00    -0.006 A 
HETATM    6  C   UNL     1      42.526 -14.231   4.387  1.00  0.00     0.046 A 
HETATM    7  N   UNL     1      44.146 -12.486   7.687  1.00  0.00    -0.222 NA
HETATM    8  C   UNL     1      44.009 -11.185   7.922  1.00  0.00     0.237 A 
HETATM    9  N   UNL     1      43.331 -10.328   7.166  1.00  0.00    -0.229 NA
HETATM   10  C   UNL     1      42.760 -10.839   6.069  1.00  0.00     0.117 A 
ENDROOT
BRANCH   5  11
HETATM   11  C   UNL     1      41.602 -12.156   3.449  1.00  0.00    -0.022 A 
HETATM   12  C   UNL     1      42.282 -11.431   2.454  1.00  0.00     0.052 A 
HETATM   13  C   UNL     1      41.539 -10.788   1.485  1.00  0.00     0.105 A 
HETATM   14  C   UNL     1      40.167 -10.860   1.457  1.00  0.00     0.105 A 
HETATM   15  O   UNL     1      42.038 -10.021   0.478  1.00  0.00    -0.323 OA
HETATM   16  O   UNL     1      39.631 -10.150   0.429  1.00  0.00    -0.323 OA
HETATM   17  C   UNL     1      39.460 -11.581   2.392  1.00  0.00     0.040 A 
HETATM   18  C   UNL     1      40.821  -9.591  -0.165  1.00  0.00     0.352 A 
HETATM   19  C   UNL     1      40.187 -12.231   3.396  1.00  0.00     0.015 A 
ENDBRANCH   5  11
BRANCH  10  20
HETATM   20  N   UNL     1      42.067  -9.884   5.329  1.00  0.00    -0.286 NA
HETATM   21  H   UNL     1      41.999 -10.221   4.372  1.00  0.00     0.125 HD
HETATM   22  H   UNL     1      42.491  -8.966   5.379  1.00  0.00     0.125 HD
ENDBRANCH  10  20
BRANCH   1  23
HETATM   23  C   UNL     1      43.388 -16.397   5.351  1.00  0.00    -0.007 A 
HETATM   24  C   UNL     1      43.219 -17.189   6.500  1.00  0.00     0.014 A 
HETATM   25  C   UNL     1      43.437 -18.573   6.475  1.00  0.00     0.007 A 
HETATM   26  C   UNL     1      43.841 -19.206   5.296  1.00  0.00    -0.062 A 
HETATM   27  C   UNL     1      44.079 -20.685   5.257  1.00  0.00     0.048 C 
HETATM   28  C   UNL     1      44.001 -18.438   4.142  1.00  0.00     0.007 A 
HETATM   29  C   UNL     1      43.783 -17.056   4.172  1.00  0.00     0.014 A 
ENDBRANCH   1  23
TORSDOF 3
ENDMDL
MODEL 5
REMARK VINA RESULT:      -8.1      5.419      7.075
REMARK  3 active torsions:
REMARK  status: ('A' for Active; 'I' for Inactive)
REMARK    1  A    between atoms: C_5  and  C_6 
REMARK    2  A    between atoms: C_10  and  C_11 
REMARK    3  A    between atoms: C_24  and  N_25 
ROOT
HETATM    1  C   UNL     1      40.821 -14.391   0.818  1.00  0.00     0.070 A 
HETATM    2  N   UNL     1      40.121 -15.059  -0.123  1.00  0.00    -0.228 NA
HETATM    3  C   UNL     1      39.629 -14.434  -1.189  1.00  0.00     0.165 A 
HETATM    4  C   UNL     1      39.813 -13.062  -1.398  1.00  0.00     0.063 A 
HETATM    5  C   UNL     1      40.512 -12.328  -0.383  1.00  0.00    -0.006 A 
HETATM    6  C   UNL     1      41.010 -13.024   0.726  1.00  0.00     0.046 A 
HETATM    7  N   UNL     1      38.972 -15.212  -2.034  1.00  0.00    -0.222 NA
HETATM    8  C   UNL     1      38.478 -14.654  -3.134  1.00  0.00     0.237 A 
HETATM    9  N   UNL     1      38.604 -13.376  -3.479  1.00  0.00    -0.229 NA
HETATM   10  C   UNL     1      39.276 -12.601  -2.621  1.00  0.00     0.117 A 
ENDROOT
BRANCH   5  11
HETATM   11  C   UNL     1      40.750 -10.874  -0.434  1.00  0.00    -0.022 A 
HETATM   12  C   UNL     1      41.939 -10.353  -0.976  1.00  0.00     0.052 A 
HETATM   13  C   UNL     1      42.116  -8.985  -0.983  1.00  0.00     0.105 A 
HETATM   14  C   UNL     1      41.156  -8.128  -0.500  1.00  0.00     0.105 A 
HETATM   15  O   UNL     1      43.216  -8.327  -1.436  1.00  0.00    -0.323 OA
HETATM   16  O   UNL     1      41.531  -6.824  -0.590  1.00  0.00    -0.323 OA
HETATM   17  C   UNL     1      39.966  -8.589   0.013  1.00  0.00     0.040 A 
HETATM   18  C   UNL     1      42.854  -6.961  -1.152  1.00  0.00     0.352 A 
HETATM   19  C   UNL     1      39.765  -9.974   0.046  1.00  0.00     0.015 A 
ENDBRANCH   5  11
BRANCH  10  20
HETATM   20  N   UNL     1      39.369 -11.279  -3.049  1.00  0.00    -0.286 NA
HETATM   21  H   UNL     1      39.234 -11.269  -4.057  1.00  0.00     0.125 HD
HETATM   22  H   UNL     1      40.240 -10.840  -2.778  1.00  0.00     0.125 HD
ENDBRANCH  10  20
BRANCH   1  23
HETATM   23  C   UNL     1      41.371 -15.221   1.912  1.00  0.00    -0.007 A 
HETATM   24  C   UNL     1      40.719 -15.359   3.151  1.00  0.00     0.014 A 
HETATM   25  C   UNL     1      41.276 -16.115   4.191  1.00  0.00     0.007 A 
HETATM   26  C   UNL     1      42.510 -16.750   4.026  1.00  0.00    -0.062 A 
HETATM   27  C   UNL     1      43.116 -17.560   5.132  1.00  0.00     0.048 C 
HETATM   28  C   UNL     1      43.165 -16.635   2.798  1.00  0.00     0.007 A 
HETATM   29  C   UNL     1      42.606 -15.878   1.762  1.00  0.00     0.014 A 
ENDBRANCH   1  23
TORSDOF 3
ENDMDL
MODEL 6
REMARK VINA RESULT:      -8.0      9.663     13.698
REMARK  3 active torsions:
REMARK  status: ('A' for Active; 'I' for Inactive)
REMARK    1  A    between atoms: C_5  and  C_6 
REMARK    2  A    between atoms: C_10  and  C_11 
REMARK    3  A    between atoms: C_24  and  N_25 
ROOT
HETATM    1  C   UNL     1      41.869  -7.438  14.782  1.00  0.00     0.070 A 
HETATM    2  N   UNL     1      41.717  -6.116  14.551  1.00  0.00    -0.228 NA
HETATM    3  C   UNL     1      41.334  -5.288  15.518  1.00  0.00     0.165 A 
HETATM    4  C   UNL     1      41.077  -5.731  16.821  1.00  0.00     0.063 A 
HETATM    5  C   UNL     1      41.187  -7.139  17.072  1.00  0.00    -0.006 A 
HETATM    6  C   UNL     1      41.588  -7.979  16.025  1.00  0.00     0.046 A 
HETATM    7  N   UNL     1      41.234  -4.020  15.154  1.00  0.00    -0.222 NA
HETATM    8  C   UNL     1      40.881  -3.134  16.080  1.00  0.00     0.237 A 
HETATM    9  N   UNL     1      40.641  -3.404  17.359  1.00  0.00    -0.229 NA
HETATM   10  C   UNL     1      40.753  -4.688  17.718  1.00  0.00     0.117 A 
ENDROOT
BRANCH   5  11
HETATM   11  C   UNL     1      40.909  -7.768  18.377  1.00  0.00    -0.022 A 
HETATM   12  C   UNL     1      41.947  -8.026  19.291  1.00  0.00     0.052 A 
HETATM   13  C   UNL     1      41.631  -8.631  20.490  1.00  0.00     0.105 A 
HETATM   14  C   UNL     1      40.337  -8.961  20.817  1.00  0.00     0.105 A 
HETATM   15  O   UNL     1      42.515  -8.979  21.463  1.00  0.00    -0.323 OA
HETATM   16  O   UNL     1      40.245  -9.556  22.036  1.00  0.00    -0.323 OA
HETATM   17  C   UNL     1      39.287  -8.702  19.967  1.00  0.00     0.040 A 
HETATM   18  C   UNL     1      41.635  -9.597  22.424  1.00  0.00     0.352 A 
HETATM   19  C   UNL     1      39.579  -8.102  18.737  1.00  0.00     0.015 A 
ENDBRANCH   5  11
BRANCH  10  20
HETATM   20  N   UNL     1      40.489  -4.894  19.070  1.00  0.00    -0.286 NA
HETATM   21  H   UNL     1      39.948  -5.751  19.154  1.00  0.00     0.125 HD
HETATM   22  H   UNL     1      40.023  -4.107  19.503  1.00  0.00     0.125 HD
ENDBRANCH  10  20
BRANCH   1  23
HETATM   23  C   UNL     1      42.368  -8.232  13.639  1.00  0.00    -0.007 A 
HETATM   24  C   UNL     1      42.174  -9.622  13.548  1.00  0.00     0.014 A 
HETATM   25  C   UNL     1      42.689 -10.365  12.478  1.00  0.00     0.007 A 
HETATM   26  C   UNL     1      43.425  -9.739  11.469  1.00  0.00    -0.062 A 
HETATM   27  C   UNL     1      43.983 -10.524  10.320  1.00  0.00     0.048 C 
HETATM   28  C   UNL     1      43.616  -8.358  11.534  1.00  0.00     0.007 A 
HETATM   29  C   UNL     1      43.100  -7.620  12.605  1.00  0.00     0.014 A 
ENDBRANCH   1  23
TORSDOF 3
ENDMDL
MODEL 7
REMARK VINA RESULT:      -7.9      3.997      8.039
REMARK  3 active torsions:
REMARK  status: ('A' for Active; 'I' for Inactive)
REMARK    1  A    between atoms: C_5  and  C_6 
REMARK    2  A    between atoms: C_10  and  C_11 
REMARK    3  A    between atoms: C_24  and  N_25 
ROOT
HETATM    1  C   UNL     1      43.176 -13.467   5.640  1.00  0.00     0.070 A 
HETATM    2  N   UNL     1      43.765 -14.580   6.128  1.00  0.00    -0.228 NA
HETATM    3  C   UNL     1      43.688 -15.739   5.481  1.00  0.00     0.165 A 
HETATM    4  C   UNL     1      43.007 -15.870   4.266  1.00  0.00     0.063 A 
HETATM    5  C   UNL     1      42.334 -14.709   3.757  1.00  0.00    -0.006 A 
HETATM    6  C   UNL     1      42.436 -13.508   4.472  1.00  0.00     0.046 A 
HETATM    7  N   UNL     1      44.317 -16.744   6.069  1.00  0.00    -0.222 NA
HETATM    8  C   UNL     1      44.302 -17.925   5.461  1.00  0.00     0.237 A 
HETATM    9  N   UNL     1      43.727 -18.189   4.292  1.00  0.00    -0.229 NA
HETATM   10  C   UNL     1      43.100 -17.163   3.704  1.00  0.00     0.117 A 
ENDROOT
BRANCH   5  11
HETATM   11  C   UNL     1      41.540 -14.695   2.515  1.00  0.00    -0.022 A 
HETATM   12  C   UNL     1      41.800 -13.755   1.501  1.00  0.00     0.052 A 
HETATM   13  C   UNL     1      41.014 -13.777   0.368  1.00  0.00     0.105 A 
HETATM   14  C   UNL     1      40.011 -14.701   0.198  1.00  0.00     0.105 A 
HETATM   15  O   UNL     1      41.112 -12.920  -0.685  1.00  0.00    -0.323 OA
HETATM   16  O   UNL     1      39.354 -14.543  -0.981  1.00  0.00    -0.323 OA
HETATM   17  C   UNL     1      39.740 -15.657   1.149  1.00  0.00     0.040 A 
HETATM   18  C   UNL     1      40.033 -13.389  -1.519  1.00  0.00     0.352 A 
HETATM   19  C   UNL     1      40.511 -15.649   2.317  1.00  0.00     0.015 A 
ENDBRANCH   5  11
BRANCH  10  20
HETATM   20  N   UNL     1      42.525 -17.513   2.484  1.00  0.00    -0.286 NA
HETATM   21  H   UNL     1      43.225 -18.010   1.941  1.00  0.00     0.125 HD
HETATM   22  H   UNL     1      42.151 -16.716   1.984  1.00  0.00     0.125 HD
ENDBRANCH  10  20
BRANCH   1  23
HETATM   23  C   UNL     1      43.401 -12.232   6.422  1.00  0.00    -0.007 A 
HETATM   24  C   UNL     1      42.455 -11.192   6.472  1.00  0.00     0.014 A 
HETATM   25  C   UNL     1      42.702 -10.010   7.184  1.00  0.00     0.007 A 
HETATM   26  C   UNL     1      43.911  -9.830   7.861  1.00  0.00    -0.062 A 
HETATM   27  C   UNL     1      44.187  -8.570   8.625  1.00  0.00     0.048 C 
HETATM   28  C   UNL     1      44.856 -10.857   7.834  1.00  0.00     0.007 A 
HETATM   29  C   UNL     1      44.606 -12.034   7.121  1.00  0.00     0.014 A 
ENDBRANCH   1  23
TORSDOF 3
ENDMDL
MODEL 8
REMARK VINA RESULT:      -7.9      3.712      6.382
REMARK  3 active torsions:
REMARK  status: ('A' for Active; 'I' for Inactive)
REMARK    1  A    between atoms: C_5  and  C_6 
REMARK    2  A    between atoms: C_10  and  C_11 
REMARK    3  A    between atoms: C_24  and  N_25 
ROOT
HETATM    1  C   UNL     1      40.828 -13.198   2.129  1.00  0.00     0.070 A 
HETATM    2  N   UNL     1      41.161 -12.000   2.655  1.00  0.00    -0.228 NA
HETATM    3  C   UNL     1      41.926 -11.912   3.738  1.00  0.00     0.165 A 
HETATM    4  C   UNL     1      42.433 -13.044   4.386  1.00  0.00     0.063 A 
HETATM    5  C   UNL     1      42.049 -14.327   3.870  1.00  0.00    -0.006 A 
HETATM    6  C   UNL     1      41.237 -14.375   2.729  1.00  0.00     0.046 A 
HETATM    7  N   UNL     1      42.180 -10.676   4.138  1.00  0.00    -0.222 NA
HETATM    8  C   UNL     1      42.961 -10.517   5.201  1.00  0.00     0.237 A 
HETATM    9  N   UNL     1      43.539 -11.494   5.893  1.00  0.00    -0.229 NA
HETATM   10  C   UNL     1      43.281 -12.739   5.474  1.00  0.00     0.117 A 
ENDROOT
BRANCH   5  11
HETATM   11  C   UNL     1      42.463 -15.611   4.464  1.00  0.00    -0.022 A 
HETATM   12  C   UNL     1      43.372 -16.456   3.800  1.00  0.00     0.052 A 
HETATM   13  C   UNL     1      43.710 -17.654   4.394  1.00  0.00     0.105 A 
HETATM   14  C   UNL     1      43.206 -18.025   5.618  1.00  0.00     0.105 A 
HETATM   15  O   UNL     1      44.543 -18.594   3.872  1.00  0.00    -0.323 OA
HETATM   16  O   UNL     1      43.658 -19.242   6.019  1.00  0.00    -0.323 OA
HETATM   17  C   UNL     1      42.338 -17.218   6.317  1.00  0.00     0.040 A 
HETATM   18  C   UNL     1      44.477 -19.613   4.890  1.00  0.00     0.352 A 
HETATM   19  C   UNL     1      41.964 -16.003   5.732  1.00  0.00     0.015 A 
ENDBRANCH   5  11
BRANCH  10  20
HETATM   20  N   UNL     1      43.920 -13.708   6.244  1.00  0.00    -0.286 NA
HETATM   21  H   UNL     1      44.769 -13.983   5.756  1.00  0.00     0.125 HD
HETATM   22  H   UNL     1      43.325 -14.501   6.449  1.00  0.00     0.125 HD
ENDBRANCH  10  20
BRANCH   1  23
HETATM   23  C   UNL     1      40.032 -13.149   0.883  1.00  0.00    -0.007 A 
HETATM   24  C   UNL     1      39.161 -12.085   0.590  1.00  0.00     0.014 A 
HETATM   25  C   UNL     1      38.383 -12.076  -0.576  1.00  0.00     0.007 A 
HETATM   26  C   UNL     1      38.446 -13.139  -1.480  1.00  0.00    -0.062 A 
HETATM   27  C   UNL     1      37.617 -13.141  -2.729  1.00  0.00     0.048 C 
HETATM   28  C   UNL     1      39.315 -14.198  -1.212  1.00  0.00     0.007 A 
HETATM   29  C   UNL     1      40.090 -14.204  -0.046  1.00  0.00     0.014 A 
ENDBRANCH   1  23
TORSDOF 3
ENDMDL
MODEL 9
REMARK VINA RESULT:      -7.9      4.154      5.690
REMARK  3 active torsions:
REMARK  status: ('A' for Active; 'I' for Inactive)
REMARK    1  A    between atoms: C_5  and  C_6 
REMARK    2  A    between atoms: C_10  and  C_11 
REMARK    3  A    between atoms: C_24  and  N_25 
ROOT
HETATM    1  C   UNL     1      41.449 -14.567   3.531  1.00  0.00     0.070 A 
HETATM    2  N   UNL     1      40.905 -14.208   4.713  1.00  0.00    -0.228 NA
HETATM    3  C   UNL     1      40.242 -13.063   4.847  1.00  0.00     0.165 A 
HETATM    4  C   UNL     1      40.064 -12.176   3.779  1.00  0.00     0.063 A 
HETATM    5  C   UNL     1      40.677 -12.519   2.528  1.00  0.00    -0.006 A 
HETATM    6  C   UNL     1      41.372 -13.732   2.430  1.00  0.00     0.046 A 
HETATM    7  N   UNL     1      39.755 -12.843   6.057  1.00  0.00    -0.222 NA
HETATM    8  C   UNL     1      39.058 -11.729   6.252  1.00  0.00     0.237 A 
HETATM    9  N   UNL     1      38.781 -10.816   5.327  1.00  0.00    -0.229 NA
HETATM   10  C   UNL     1      39.272 -11.052   4.105  1.00  0.00     0.117 A 
ENDROOT
BRANCH   5  11
HETATM   11  C   UNL     1      40.619 -11.671   1.323  1.00  0.00    -0.022 A 
HETATM   12  C   UNL     1      41.632 -10.735   1.047  1.00  0.00     0.052 A 
HETATM   13  C   UNL     1      41.516  -9.956  -0.086  1.00  0.00     0.105 A 
HETATM   14  C   UNL     1      40.459 -10.092  -0.955  1.00  0.00     0.105 A 
HETATM   15  O   UNL     1      42.386  -8.986  -0.477  1.00  0.00    -0.323 OA
HETATM   16  O   UNL     1      40.532  -9.226  -2.000  1.00  0.00    -0.323 OA
HETATM   17  C   UNL     1      39.461 -11.014  -0.742  1.00  0.00     0.040 A 
HETATM   18  C   UNL     1      41.737  -8.503  -1.671  1.00  0.00     0.352 A 
HETATM   19  C   UNL     1      39.544 -11.807   0.408  1.00  0.00     0.015 A 
ENDBRANCH   5  11
BRANCH  10  20
HETATM   20  N   UNL     1      38.941 -10.056   3.190  1.00  0.00    -0.286 NA
HETATM   21  H   UNL     1      39.724  -9.948   2.551  1.00  0.00     0.125 HD
HETATM   22  H   UNL     1      38.690  -9.182   3.636  1.00  0.00     0.125 HD
ENDBRANCH  10  20
BRANCH   1  23
HETATM   23  C   UNL     1      42.096 -15.897   3.504  1.00  0.00    -0.007 A 
HETATM   24  C   UNL     1      42.806 -16.409   4.604  1.00  0.00     0.014 A 
HETATM   25  C   UNL     1      43.449 -17.653   4.546  1.00  0.00     0.007 A 
HETATM   26  C   UNL     1      43.408 -18.419   3.379  1.00  0.00    -0.062 A 
HETATM   27  C   UNL     1      44.093 -19.750   3.305  1.00  0.00     0.048 C 
HETATM   28  C   UNL     1      42.696 -17.933   2.280  1.00  0.00     0.007 A 
HETATM   29  C   UNL     1      42.057 -16.690   2.342  1.00  0.00     0.014 A 
ENDBRANCH   1  23
TORSDOF 3
ENDMDL
MODEL 10
REMARK VINA RESULT:      -7.8     16.686     19.053
REMARK  3 active torsions:
REMARK  status: ('A' for Active; 'I' for Inactive)
REMARK    1  A    between atoms: C_5  and  C_6 
REMARK    2  A    between atoms: C_10  and  C_11 
REMARK    3  A    between atoms: C_24  and  N_25 
ROOT
HETATM    1  C   UNL     1      43.681 -30.293   0.947  1.00  0.00     0.070 A 
HETATM    2  N   UNL     1      44.642 -29.567   1.558  1.00  0.00    -0.228 NA
HETATM    3  C   UNL     1      45.645 -29.033   0.867  1.00  0.00     0.165 A 
HETATM    4  C   UNL     1      45.758 -29.184  -0.519  1.00  0.00     0.063 A 
HETATM    5  C   UNL     1      44.772 -29.992  -1.178  1.00  0.00    -0.006 A 
HETATM    6  C   UNL     1      43.735 -30.541  -0.413  1.00  0.00     0.046 A 
HETATM    7  N   UNL     1      46.509 -28.341   1.592  1.00  0.00    -0.222 NA
HETATM    8  C   UNL     1      47.522 -27.758   0.958  1.00  0.00     0.237 A 
HETATM    9  N   UNL     1      47.736 -27.786  -0.353  1.00  0.00    -0.229 NA
HETATM   10  C   UNL     1      46.852 -28.483  -1.076  1.00  0.00     0.117 A 
ENDROOT
BRANCH   5  11
HETATM   11  C   UNL     1      44.776 -30.282  -2.623  1.00  0.00    -0.022 A 
HETATM   12  C   UNL     1      45.611 -31.279  -3.159  1.00  0.00     0.052 A 
HETATM   13  C   UNL     1      45.586 -31.495  -4.522  1.00  0.00     0.105 A 
HETATM   14  C   UNL     1      44.754 -30.784  -5.354  1.00  0.00     0.105 A 
HETATM   15  O   UNL     1      46.352 -32.392  -5.199  1.00  0.00    -0.323 OA
HETATM   16  O   UNL     1      44.891 -31.145  -6.657  1.00  0.00    -0.323 OA
HETATM   17  C   UNL     1      43.899 -29.820  -4.871  1.00  0.00     0.040 A 
HETATM   18  C   UNL     1      45.932 -32.139  -6.556  1.00  0.00     0.352 A 
HETATM   19  C   UNL     1      43.914 -29.568  -3.495  1.00  0.00     0.015 A 
ENDBRANCH   5  11
BRANCH  10  20
HETATM   20  N   UNL     1      47.138 -28.466  -2.439  1.00  0.00    -0.286 NA
HETATM   21  H   UNL     1      46.786 -27.592  -2.820  1.00  0.00     0.125 HD
HETATM   22  H   UNL     1      46.767 -29.271  -2.927  1.00  0.00     0.125 HD
ENDBRANCH  10  20
BRANCH   1  23
HETATM   23  C   UNL     1      42.587 -30.767   1.823  1.00  0.00    -0.007 A 
HETATM   24  C   UNL     1      42.369 -30.237   3.107  1.00  0.00     0.014 A 
HETATM   25  C   UNL     1      41.353 -30.727   3.939  1.00  0.00     0.007 A 
HETATM   26  C   UNL     1      40.531 -31.773   3.513  1.00  0.00    -0.062 A 
HETATM   27  C   UNL     1      39.443 -32.307   4.395  1.00  0.00     0.048 C 
HETATM   28  C   UNL     1      40.724 -32.303   2.236  1.00  0.00     0.007 A 
HETATM   29  C   UNL     1      41.739 -31.811   1.409  1.00  0.00     0.014 A 
ENDBRANCH   1  23
TORSDOF 3
ENDMDL
