MODEL 1
REMARK VINA RESULT:      -8.4      0.000      0.000
REMARK  5 active torsions:
REMARK  status: ('A' for Active; 'I' for Inactive)
REMARK    1  A    between atoms: C_4  and  O_5 
REMARK    2  A    between atoms: O_5  and  C_6 
REMARK    3  A    between atoms: C_6  and  C_7 
REMARK       I    between atoms: C_7  and  N_8 
REMARK    4  A    between atoms: N_8  and  N_9 
REMARK    5  A    between atoms: C_10  and  C_11 
ROOT
HETATM    1  C   UNL     1      40.279 -13.483   2.272  1.00  0.00     0.261 C 
HETATM    2  N   UNL     1      41.516 -14.119   2.329  1.00  0.00    -0.246 N 
HETATM    3  O   UNL     1      39.297 -13.739   2.965  1.00  0.00    -0.269 OA
HETATM    4  H   UNL     1      42.140 -13.973   1.537  1.00  0.00     0.192 HD
ENDROOT
BRANCH   2   5
HETATM    5  N   UNL     1      41.856 -15.188   3.125  1.00  0.00    -0.184 NA
HETATM    6  C   UNL     1      43.072 -15.632   3.094  1.00  0.00     0.153 C 
BRANCH   6   7
HETATM    7  C   UNL     1      43.482 -16.737   3.944  1.00  0.00     0.018 A 
HETATM    8  C   UNL     1      43.536 -18.114   3.539  1.00  0.00     0.004 A 
HETATM    9  C   UNL     1      43.962 -18.859   4.637  1.00  0.00     0.043 A 
HETATM   10  C   UNL     1      43.272 -18.794   2.330  1.00  0.00     0.014 A 
HETATM   11  C   UNL     1      44.127 -20.249   4.593  1.00  0.00     0.030 A 
HETATM   12  N   UNL     1      44.162 -17.974   5.669  1.00  0.00    -0.358 N 
HETATM   13  C   UNL     1      43.855 -20.898   3.386  1.00  0.00     0.002 A 
HETATM   14  C   UNL     1      43.435 -20.182   2.268  1.00  0.00     0.001 A 
HETATM   15  H   UNL     1      44.475 -18.242   6.592  1.00  0.00     0.166 HD
HETATM   16  C   UNL     1      43.877 -16.690   5.274  1.00  0.00     0.018 A 
HETATM   17  C   UNL     1      44.003 -15.549   6.220  1.00  0.00     0.069 C 
ENDBRANCH   6   7
ENDBRANCH   2   5
BRANCH   1  18
HETATM   18  C   UNL     1      40.264 -12.311   1.297  1.00  0.00     0.280 C 
BRANCH  18  19
HETATM   19  O   UNL     1      40.750 -12.693   0.013  1.00  0.00    -0.342 OA
BRANCH  19  20
HETATM   20  C   UNL     1      39.771 -12.968  -0.905  1.00  0.00     0.069 A 
HETATM   21  C   UNL     1      38.801 -12.057  -1.337  1.00  0.00     0.043 A 
HETATM   22  C   UNL     1      37.830 -12.439  -2.273  1.00  0.00    -0.059 A 
HETATM   23  C   UNL     1      36.802 -11.455  -2.751  1.00  0.00     0.048 C 
HETATM   24  C   UNL     1      37.862 -13.735  -2.800  1.00  0.00     0.007 A 
HETATM   25  C   UNL     1      38.841 -14.638  -2.389  1.00  0.00     0.003 A 
HETATM   26  C   UNL     1      39.796 -14.252  -1.448  1.00  0.00     0.037 A 
ENDBRANCH  19  20
ENDBRANCH  18  19
ENDBRANCH   1  18
TORSDOF 5
ENDMDL
MODEL 2
REMARK VINA RESULT:      -8.3      1.926      8.445
REMARK  5 active torsions:
REMARK  status: ('A' for Active; 'I' for Inactive)
REMARK    1  A    between atoms: C_4  and  O_5 
REMARK    2  A    between atoms: O_5  and  C_6 
REMARK    3  A    between atoms: C_6  and  C_7 
REMARK       I    between atoms: C_7  and  N_8 
REMARK    4  A    between atoms: N_8  and  N_9 
REMARK    5  A    between atoms: C_10  and  C_11 
ROOT
HETATM    1  C   UNL     1      41.313 -15.612   3.997  1.00  0.00     0.261 C 
HETATM    2  N   UNL     1      41.366 -14.675   2.969  1.00  0.00    -0.246 N 
HETATM    3  O   UNL     1      40.314 -16.214   4.382  1.00  0.00    -0.269 OA
HETATM    4  H   UNL     1      42.196 -14.087   2.930  1.00  0.00     0.192 HD
ENDROOT
BRANCH   2   5
HETATM    5  N   UNL     1      40.305 -14.203   2.231  1.00  0.00    -0.184 NA
HETATM    6  C   UNL     1      40.540 -13.444   1.209  1.00  0.00     0.153 C 
BRANCH   6   7
HETATM    7  C   UNL     1      39.451 -12.951   0.382  1.00  0.00     0.018 A 
HETATM    8  C   UNL     1      39.063 -13.501  -0.886  1.00  0.00     0.004 A 
HETATM    9  C   UNL     1      37.993 -12.746  -1.363  1.00  0.00     0.043 A 
HETATM   10  C   UNL     1      39.519 -14.585  -1.669  1.00  0.00     0.014 A 
HETATM   11  C   UNL     1      37.362 -13.010  -2.585  1.00  0.00     0.030 A 
HETATM   12  N   UNL     1      37.736 -11.776  -0.424  1.00  0.00    -0.358 N 
HETATM   13  C   UNL     1      37.836 -14.085  -3.341  1.00  0.00     0.002 A 
HETATM   14  C   UNL     1      38.898 -14.865  -2.891  1.00  0.00     0.001 A 
HETATM   15  H   UNL     1      37.007 -11.082  -0.511  1.00  0.00     0.166 HD
HETATM   16  C   UNL     1      38.605 -11.880   0.636  1.00  0.00     0.018 A 
HETATM   17  C   UNL     1      38.539 -10.931   1.779  1.00  0.00     0.069 C 
ENDBRANCH   6   7
ENDBRANCH   2   5
BRANCH   1  18
HETATM   18  C   UNL     1      42.688 -15.927   4.577  1.00  0.00     0.280 C 
BRANCH  18  19
HETATM   19  O   UNL     1      43.578 -16.412   3.575  1.00  0.00    -0.342 OA
BRANCH  19  20
HETATM   20  C   UNL     1      43.624 -17.778   3.470  1.00  0.00     0.069 A 
HETATM   21  C   UNL     1      44.001 -18.647   4.499  1.00  0.00     0.043 A 
HETATM   22  C   UNL     1      44.030 -20.033   4.289  1.00  0.00    -0.059 A 
HETATM   23  C   UNL     1      44.416 -20.965   5.399  1.00  0.00     0.048 C 
HETATM   24  C   UNL     1      43.640 -20.542   3.045  1.00  0.00     0.007 A 
HETATM   25  C   UNL     1      43.241 -19.680   2.024  1.00  0.00     0.003 A 
HETATM   26  C   UNL     1      43.228 -18.301   2.240  1.00  0.00     0.037 A 
ENDBRANCH  19  20
ENDBRANCH  18  19
ENDBRANCH   1  18
TORSDOF 5
ENDMDL
MODEL 3
REMARK VINA RESULT:      -8.1      4.265      8.283
REMARK  5 active torsions:
REMARK  status: ('A' for Active; 'I' for Inactive)
REMARK    1  A    between atoms: C_4  and  O_5 
REMARK    2  A    between atoms: O_5  and  C_6 
REMARK    3  A    between atoms: C_6  and  C_7 
REMARK       I    between atoms: C_7  and  N_8 
REMARK    4  A    between atoms: N_8  and  N_9 
REMARK    5  A    between atoms: C_10  and  C_11 
ROOT
HETATM    1  C   UNL     1      40.767 -14.350   4.272  1.00  0.00     0.261 C 
HETATM    2  N   UNL     1      41.622 -14.232   5.363  1.00  0.00    -0.246 N 
HETATM    3  O   UNL     1      40.042 -13.468   3.817  1.00  0.00    -0.269 OA
HETATM    4  H   UNL     1      41.964 -15.101   5.770  1.00  0.00     0.192 HD
ENDROOT
BRANCH   2   5
HETATM    5  N   UNL     1      41.775 -13.131   6.174  1.00  0.00    -0.184 NA
HETATM    6  C   UNL     1      42.548 -12.168   5.784  1.00  0.00     0.153 C 
BRANCH   6   7
HETATM    7  C   UNL     1      42.711 -10.972   6.594  1.00  0.00     0.018 A 
HETATM    8  C   UNL     1      43.952 -10.520   7.159  1.00  0.00     0.004 A 
HETATM    9  C   UNL     1      43.688  -9.352   7.873  1.00  0.00     0.043 A 
HETATM   10  C   UNL     1      45.282 -10.994   7.117  1.00  0.00     0.014 A 
HETATM   11  C   UNL     1      44.682  -8.640   8.556  1.00  0.00     0.030 A 
HETATM   12  N   UNL     1      42.343  -9.100   7.748  1.00  0.00    -0.358 N 
HETATM   13  C   UNL     1      45.988  -9.133   8.501  1.00  0.00     0.002 A 
HETATM   14  C   UNL     1      46.287 -10.293   7.791  1.00  0.00     0.001 A 
HETATM   15  H   UNL     1      41.874  -8.310   8.168  1.00  0.00     0.166 HD
HETATM   16  C   UNL     1      41.734 -10.065   6.983  1.00  0.00     0.018 A 
HETATM   17  C   UNL     1      40.272 -10.021   6.712  1.00  0.00     0.069 C 
ENDBRANCH   6   7
ENDBRANCH   2   5
BRANCH   1  18
HETATM   18  C   UNL     1      40.877 -15.705   3.581  1.00  0.00     0.280 C 
BRANCH  18  19
HETATM   19  O   UNL     1      42.108 -15.831   2.874  1.00  0.00    -0.342 OA
BRANCH  19  20
HETATM   20  C   UNL     1      42.800 -16.984   3.140  1.00  0.00     0.069 A 
HETATM   21  C   UNL     1      42.835 -18.106   2.306  1.00  0.00     0.043 A 
HETATM   22  C   UNL     1      43.563 -19.247   2.674  1.00  0.00    -0.059 A 
HETATM   23  C   UNL     1      43.617 -20.443   1.769  1.00  0.00     0.048 C 
HETATM   24  C   UNL     1      44.286 -19.238   3.872  1.00  0.00     0.007 A 
HETATM   25  C   UNL     1      44.271 -18.112   4.695  1.00  0.00     0.003 A 
HETATM   26  C   UNL     1      43.534 -16.987   4.326  1.00  0.00     0.037 A 
ENDBRANCH  19  20
ENDBRANCH  18  19
ENDBRANCH   1  18
TORSDOF 5
ENDMDL
MODEL 4
REMARK VINA RESULT:      -8.0      5.617      9.090
REMARK  5 active torsions:
REMARK  status: ('A' for Active; 'I' for Inactive)
REMARK    1  A    between atoms: C_4  and  O_5 
REMARK    2  A    between atoms: O_5  and  C_6 
REMARK    3  A    between atoms: C_6  and  C_7 
REMARK       I    between atoms: C_7  and  N_8 
REMARK    4  A    between atoms: N_8  and  N_9 
REMARK    5  A    between atoms: C_10  and  C_11 
ROOT
HETATM    1  C   UNL     1      45.384 -11.273   6.577  1.00  0.00     0.261 C 
HETATM    2  N   UNL     1      44.161 -11.922   6.714  1.00  0.00    -0.246 N 
HETATM    3  O   UNL     1      45.999 -11.095   5.528  1.00  0.00    -0.269 OA
HETATM    4  H   UNL     1      43.901 -12.209   7.657  1.00  0.00     0.192 HD
ENDROOT
BRANCH   2   5
HETATM    5  N   UNL     1      43.439 -12.537   5.718  1.00  0.00    -0.184 NA
HETATM    6  C   UNL     1      42.556 -13.428   6.041  1.00  0.00     0.153 C 
BRANCH   6   7
HETATM    7  C   UNL     1      41.747 -14.077   5.023  1.00  0.00     0.018 A 
HETATM    8  C   UNL     1      42.154 -15.215   4.248  1.00  0.00     0.004 A 
HETATM    9  C   UNL     1      41.111 -15.526   3.378  1.00  0.00     0.043 A 
HETATM   10  C   UNL     1      43.315 -16.020   4.216  1.00  0.00     0.014 A 
HETATM   11  C   UNL     1      41.171 -16.591   2.470  1.00  0.00     0.030 A 
HETATM   12  N   UNL     1      40.107 -14.618   3.613  1.00  0.00    -0.358 N 
HETATM   13  C   UNL     1      42.333 -17.368   2.456  1.00  0.00     0.002 A 
HETATM   14  C   UNL     1      43.391 -17.089   3.318  1.00  0.00     0.001 A 
HETATM   15  H   UNL     1      39.226 -14.607   3.120  1.00  0.00     0.166 HD
HETATM   16  C   UNL     1      40.471 -13.733   4.600  1.00  0.00     0.018 A 
HETATM   17  C   UNL     1      39.556 -12.641   5.027  1.00  0.00     0.069 C 
ENDBRANCH   6   7
ENDBRANCH   2   5
BRANCH   1  18
HETATM   18  C   UNL     1      45.885 -10.677   7.888  1.00  0.00     0.280 C 
BRANCH  18  19
HETATM   19  O   UNL     1      44.985 -10.943   8.960  1.00  0.00    -0.342 OA
BRANCH  19  20
HETATM   20  C   UNL     1      44.413  -9.825   9.511  1.00  0.00     0.069 A 
HETATM   21  C   UNL     1      44.106  -9.670  10.866  1.00  0.00     0.043 A 
HETATM   22  C   UNL     1      43.507  -8.491  11.333  1.00  0.00    -0.059 A 
HETATM   23  C   UNL     1      43.197  -8.318  12.791  1.00  0.00     0.048 C 
HETATM   24  C   UNL     1      43.252  -7.453  10.430  1.00  0.00     0.007 A 
HETATM   25  C   UNL     1      43.578  -7.595   9.082  1.00  0.00     0.003 A 
HETATM   26  C   UNL     1      44.162  -8.777   8.626  1.00  0.00     0.037 A 
ENDBRANCH  19  20
ENDBRANCH  18  19
ENDBRANCH   1  18
TORSDOF 5
ENDMDL
MODEL 5
REMARK VINA RESULT:      -7.9      5.842      9.193
REMARK  5 active torsions:
REMARK  status: ('A' for Active; 'I' for Inactive)
REMARK    1  A    between atoms: C_4  and  O_5 
REMARK    2  A    between atoms: O_5  and  C_6 
REMARK    3  A    between atoms: C_6  and  C_7 
REMARK       I    between atoms: C_7  and  N_8 
REMARK    4  A    between atoms: N_8  and  N_9 
REMARK    5  A    between atoms: C_10  and  C_11 
ROOT
HETATM    1  C   UNL     1      44.700 -11.358   7.664  1.00  0.00     0.261 C 
HETATM    2  N   UNL     1      43.791 -12.387   7.434  1.00  0.00    -0.246 N 
HETATM    3  O   UNL     1      45.807 -11.236   7.144  1.00  0.00    -0.269 OA
HETATM    4  H   UNL     1      43.037 -12.488   8.111  1.00  0.00     0.192 HD
ENDROOT
BRANCH   2   5
HETATM    5  N   UNL     1      43.981 -13.489   6.633  1.00  0.00    -0.184 NA
HETATM    6  C   UNL     1      42.988 -14.294   6.428  1.00  0.00     0.153 C 
BRANCH   6   7
HETATM    7  C   UNL     1      43.135 -15.451   5.560  1.00  0.00     0.018 A 
HETATM    8  C   UNL     1      43.116 -15.414   4.125  1.00  0.00     0.004 A 
HETATM    9  C   UNL     1      43.274 -16.722   3.668  1.00  0.00     0.043 A 
HETATM   10  C   UNL     1      42.989 -14.382   3.169  1.00  0.00     0.014 A 
HETATM   11  C   UNL     1      43.302 -17.053   2.308  1.00  0.00     0.030 A 
HETATM   12  N   UNL     1      43.388 -17.524   4.779  1.00  0.00    -0.358 N 
HETATM   13  C   UNL     1      43.170 -16.014   1.384  1.00  0.00     0.002 A 
HETATM   14  C   UNL     1      43.017 -14.695   1.806  1.00  0.00     0.001 A 
HETATM   15  H   UNL     1      43.514 -18.525   4.743  1.00  0.00     0.166 HD
HETATM   16  C   UNL     1      43.305 -16.778   5.930  1.00  0.00     0.018 A 
HETATM   17  C   UNL     1      43.388 -17.421   7.269  1.00  0.00     0.069 C 
ENDBRANCH   6   7
ENDBRANCH   2   5
BRANCH   1  18
HETATM   18  C   UNL     1      44.145 -10.278   8.587  1.00  0.00     0.280 C 
BRANCH  18  19
HETATM   19  O   UNL     1      43.802 -10.808   9.864  1.00  0.00    -0.342 OA
BRANCH  19  20
HETATM   20  C   UNL     1      43.171  -9.920  10.696  1.00  0.00     0.069 A 
HETATM   21  C   UNL     1      41.784  -9.757  10.787  1.00  0.00     0.043 A 
HETATM   22  C   UNL     1      41.233  -8.809  11.661  1.00  0.00    -0.059 A 
HETATM   23  C   UNL     1      39.745  -8.649  11.773  1.00  0.00     0.048 C 
HETATM   24  C   UNL     1      42.086  -8.051  12.471  1.00  0.00     0.007 A 
HETATM   25  C   UNL     1      43.467  -8.228  12.399  1.00  0.00     0.003 A 
HETATM   26  C   UNL     1      44.007  -9.165  11.517  1.00  0.00     0.037 A 
ENDBRANCH  19  20
ENDBRANCH  18  19
ENDBRANCH   1  18
TORSDOF 5
ENDMDL
MODEL 6
REMARK VINA RESULT:      -7.8      2.653      9.174
REMARK  5 active torsions:
REMARK  status: ('A' for Active; 'I' for Inactive)
REMARK    1  A    between atoms: C_4  and  O_5 
REMARK    2  A    between atoms: O_5  and  C_6 
REMARK    3  A    between atoms: C_6  and  C_7 
REMARK       I    between atoms: C_7  and  N_8 
REMARK    4  A    between atoms: N_8  and  N_9 
REMARK    5  A    between atoms: C_10  and  C_11 
ROOT
HETATM    1  C   UNL     1      40.052 -15.304   1.794  1.00  0.00     0.261 C 
HETATM    2  N   UNL     1      40.097 -13.915   1.723  1.00  0.00    -0.246 N 
HETATM    3  O   UNL     1      39.659 -16.065   0.912  1.00  0.00    -0.269 OA
HETATM    4  H   UNL     1      40.206 -13.418   2.606  1.00  0.00     0.192 HD
ENDROOT
BRANCH   2   5
HETATM    5  N   UNL     1      39.657 -13.129   0.684  1.00  0.00    -0.184 NA
HETATM    6  C   UNL     1      40.375 -13.052  -0.391  1.00  0.00     0.153 C 
BRANCH   6   7
HETATM    7  C   UNL     1      39.931 -12.260  -1.527  1.00  0.00     0.018 A 
HETATM    8  C   UNL     1      40.474 -10.986  -1.907  1.00  0.00     0.004 A 
HETATM    9  C   UNL     1      39.775 -10.550  -3.032  1.00  0.00     0.043 A 
HETATM   10  C   UNL     1      41.507 -10.166  -1.401  1.00  0.00     0.014 A 
HETATM   11  C   UNL     1      40.048  -9.334  -3.671  1.00  0.00     0.030 A 
HETATM   12  N   UNL     1      38.847 -11.519  -3.328  1.00  0.00    -0.358 N 
HETATM   13  C   UNL     1      41.072  -8.541  -3.148  1.00  0.00     0.002 A 
HETATM   14  C   UNL     1      41.795  -8.950  -2.030  1.00  0.00     0.001 A 
HETATM   15  H   UNL     1      38.198 -11.465  -4.101  1.00  0.00     0.166 HD
HETATM   16  C   UNL     1      38.922 -12.558  -2.432  1.00  0.00     0.018 A 
HETATM   17  C   UNL     1      38.008 -13.727  -2.532  1.00  0.00     0.069 C 
ENDBRANCH   6   7
ENDBRANCH   2   5
BRANCH   1  18
HETATM   18  C   UNL     1      40.655 -15.848   3.085  1.00  0.00     0.280 C 
BRANCH  18  19
HETATM   19  O   UNL     1      42.069 -15.678   3.112  1.00  0.00    -0.342 OA
BRANCH  19  20
HETATM   20  C   UNL     1      42.777 -16.835   3.313  1.00  0.00     0.069 A 
HETATM   21  C   UNL     1      42.766 -17.938   2.453  1.00  0.00     0.043 A 
HETATM   22  C   UNL     1      43.514 -19.085   2.754  1.00  0.00    -0.059 A 
HETATM   23  C   UNL     1      43.519 -20.260   1.821  1.00  0.00     0.048 C 
HETATM   24  C   UNL     1      44.304 -19.101   3.910  1.00  0.00     0.007 A 
HETATM   25  C   UNL     1      44.335 -17.993   4.757  1.00  0.00     0.003 A 
HETATM   26  C   UNL     1      43.577 -16.862   4.455  1.00  0.00     0.037 A 
ENDBRANCH  19  20
ENDBRANCH  18  19
ENDBRANCH   1  18
TORSDOF 5
ENDMDL
MODEL 7
REMARK VINA RESULT:      -7.5      2.193      8.817
REMARK  5 active torsions:
REMARK  status: ('A' for Active; 'I' for Inactive)
REMARK    1  A    between atoms: C_4  and  O_5 
REMARK    2  A    between atoms: O_5  and  C_6 
REMARK    3  A    between atoms: C_6  and  C_7 
REMARK       I    between atoms: C_7  and  N_8 
REMARK    4  A    between atoms: N_8  and  N_9 
REMARK    5  A    between atoms: C_10  and  C_11 
ROOT
HETATM    1  C   UNL     1      41.550 -15.018   4.374  1.00  0.00     0.261 C 
HETATM    2  N   UNL     1      41.299 -15.072   3.006  1.00  0.00    -0.246 N 
HETATM    3  O   UNL     1      40.880 -14.421   5.213  1.00  0.00    -0.269 OA
HETATM    4  H   UNL     1      42.066 -15.390   2.415  1.00  0.00     0.192 HD
ENDROOT
BRANCH   2   5
HETATM    5  N   UNL     1      40.295 -14.422   2.327  1.00  0.00    -0.184 NA
HETATM    6  C   UNL     1      40.589 -13.767   1.249  1.00  0.00     0.153 C 
BRANCH   6   7
HETATM    7  C   UNL     1      39.554 -13.093   0.482  1.00  0.00     0.018 A 
HETATM    8  C   UNL     1      38.842 -11.921   0.908  1.00  0.00     0.004 A 
HETATM    9  C   UNL     1      37.930 -11.595  -0.095  1.00  0.00     0.043 A 
HETATM   10  C   UNL     1      38.899 -11.099   2.055  1.00  0.00     0.014 A 
HETATM   11  C   UNL     1      37.066 -10.497  -0.007  1.00  0.00     0.030 A 
HETATM   12  N   UNL     1      38.081 -12.528  -1.093  1.00  0.00    -0.358 N 
HETATM   13  C   UNL     1      37.139  -9.703   1.140  1.00  0.00     0.002 A 
HETATM   14  C   UNL     1      38.044  -9.996   2.158  1.00  0.00     0.001 A 
HETATM   15  H   UNL     1      37.543 -12.534  -1.948  1.00  0.00     0.166 HD
HETATM   16  C   UNL     1      39.054 -13.441  -0.765  1.00  0.00     0.018 A 
HETATM   17  C   UNL     1      39.394 -14.562  -1.681  1.00  0.00     0.069 C 
ENDBRANCH   6   7
ENDBRANCH   2   5
BRANCH   1  18
HETATM   18  C   UNL     1      42.729 -15.891   4.791  1.00  0.00     0.280 C 
BRANCH  18  19
HETATM   19  O   UNL     1      43.482 -16.325   3.662  1.00  0.00    -0.342 OA
BRANCH  19  20
HETATM   20  C   UNL     1      43.557 -17.686   3.520  1.00  0.00     0.069 A 
HETATM   21  C   UNL     1      43.972 -18.573   4.519  1.00  0.00     0.043 A 
HETATM   22  C   UNL     1      44.028 -19.952   4.271  1.00  0.00    -0.059 A 
HETATM   23  C   UNL     1      44.454 -20.904   5.350  1.00  0.00     0.048 C 
HETATM   24  C   UNL     1      43.629 -20.438   3.021  1.00  0.00     0.007 A 
HETATM   25  C   UNL     1      43.193 -19.558   2.030  1.00  0.00     0.003 A 
HETATM   26  C   UNL     1      43.152 -18.187   2.283  1.00  0.00     0.037 A 
ENDBRANCH  19  20
ENDBRANCH  18  19
ENDBRANCH   1  18
TORSDOF 5
ENDMDL
MODEL 8
REMARK VINA RESULT:      -7.5      2.049      9.113
REMARK  5 active torsions:
REMARK  status: ('A' for Active; 'I' for Inactive)
REMARK    1  A    between atoms: C_4  and  O_5 
REMARK    2  A    between atoms: O_5  and  C_6 
REMARK    3  A    between atoms: C_6  and  C_7 
REMARK       I    between atoms: C_7  and  N_8 
REMARK    4  A    between atoms: N_8  and  N_9 
REMARK    5  A    between atoms: C_10  and  C_11 
ROOT
HETATM    1  C   UNL     1      40.861 -13.930   2.828  1.00  0.00     0.261 C 
HETATM    2  N   UNL     1      41.058 -13.972   1.451  1.00  0.00    -0.246 N 
HETATM    3  O   UNL     1      39.965 -13.330   3.417  1.00  0.00    -0.269 OA
HETATM    4  H   UNL     1      41.969 -14.295   1.131  1.00  0.00     0.192 HD
ENDROOT
BRANCH   2   5
HETATM    5  N   UNL     1      40.329 -13.303   0.495  1.00  0.00    -0.184 NA
HETATM    6  C   UNL     1      39.464 -13.962  -0.209  1.00  0.00     0.153 C 
BRANCH   6   7
HETATM    7  C   UNL     1      38.648 -13.288  -1.206  1.00  0.00     0.018 A 
HETATM    8  C   UNL     1      37.967 -12.040  -1.008  1.00  0.00     0.004 A 
HETATM    9  C   UNL     1      37.288 -11.740  -2.187  1.00  0.00     0.043 A 
HETATM   10  C   UNL     1      37.875 -11.129   0.068  1.00  0.00     0.014 A 
HETATM   11  C   UNL     1      36.514 -10.583  -2.345  1.00  0.00     0.030 A 
HETATM   12  N   UNL     1      37.546 -12.761  -3.070  1.00  0.00    -0.358 N 
HETATM   13  C   UNL     1      36.437  -9.701  -1.264  1.00  0.00     0.002 A 
HETATM   14  C   UNL     1      37.109  -9.968  -0.073  1.00  0.00     0.001 A 
HETATM   15  H   UNL     1      37.179 -12.803  -4.010  1.00  0.00     0.166 HD
HETATM   16  C   UNL     1      38.363 -13.706  -2.498  1.00  0.00     0.018 A 
HETATM   17  C   UNL     1      38.776 -14.921  -3.251  1.00  0.00     0.069 C 
ENDBRANCH   6   7
ENDBRANCH   2   5
BRANCH   1  18
HETATM   18  C   UNL     1      41.837 -14.821   3.589  1.00  0.00     0.280 C 
BRANCH  18  19
HETATM   19  O   UNL     1      42.785 -15.424   2.713  1.00  0.00    -0.342 OA
BRANCH  19  20
HETATM   20  C   UNL     1      43.195 -16.675   3.095  1.00  0.00     0.069 A 
HETATM   21  C   UNL     1      43.142 -17.815   2.287  1.00  0.00     0.043 A 
HETATM   22  C   UNL     1      43.573 -19.057   2.775  1.00  0.00    -0.059 A 
HETATM   23  C   UNL     1      43.534 -20.276   1.900  1.00  0.00     0.048 C 
HETATM   24  C   UNL     1      44.094 -19.137   4.071  1.00  0.00     0.007 A 
HETATM   25  C   UNL     1      44.170 -17.998   4.871  1.00  0.00     0.003 A 
HETATM   26  C   UNL     1      43.726 -16.769   4.381  1.00  0.00     0.037 A 
ENDBRANCH  19  20
ENDBRANCH  18  19
ENDBRANCH   1  18
TORSDOF 5
ENDMDL
MODEL 9
REMARK VINA RESULT:      -7.3      5.007      9.110
REMARK  5 active torsions:
REMARK  status: ('A' for Active; 'I' for Inactive)
REMARK    1  A    between atoms: C_4  and  O_5 
REMARK    2  A    between atoms: O_5  and  C_6 
REMARK    3  A    between atoms: C_6  and  C_7 
REMARK       I    between atoms: C_7  and  N_8 
REMARK    4  A    between atoms: N_8  and  N_9 
REMARK    5  A    between atoms: C_10  and  C_11 
ROOT
HETATM    1  C   UNL     1      43.620 -15.598   7.000  1.00  0.00     0.261 C 
HETATM    2  N   UNL     1      43.811 -14.328   6.463  1.00  0.00    -0.246 N 
HETATM    3  O   UNL     1      42.760 -15.921   7.816  1.00  0.00    -0.269 OA
HETATM    4  H   UNL     1      44.703 -14.158   6.001  1.00  0.00     0.192 HD
ENDROOT
BRANCH   2   5
HETATM    5  N   UNL     1      43.117 -13.185   6.786  1.00  0.00    -0.184 NA
HETATM    6  C   UNL     1      43.617 -12.035   6.465  1.00  0.00     0.153 C 
BRANCH   6   7
HETATM    7  C   UNL     1      42.900 -10.804   6.757  1.00  0.00     0.018 A 
HETATM    8  C   UNL     1      43.416  -9.714   7.536  1.00  0.00     0.004 A 
HETATM    9  C   UNL     1      42.427  -8.734   7.595  1.00  0.00     0.043 A 
HETATM   10  C   UNL     1      44.644  -9.466   8.189  1.00  0.00     0.014 A 
HETATM   11  C   UNL     1      42.596  -7.525   8.281  1.00  0.00     0.030 A 
HETATM   12  N   UNL     1      41.352  -9.205   6.879  1.00  0.00    -0.358 N 
HETATM   13  C   UNL     1      43.818  -7.307   8.922  1.00  0.00     0.002 A 
HETATM   14  C   UNL     1      44.831  -8.262   8.876  1.00  0.00     0.001 A 
HETATM   15  H   UNL     1      40.488  -8.697   6.755  1.00  0.00     0.166 HD
HETATM   16  C   UNL     1      41.616 -10.452   6.367  1.00  0.00     0.018 A 
HETATM   17  C   UNL     1      40.599 -11.183   5.563  1.00  0.00     0.069 C 
ENDBRANCH   6   7
ENDBRANCH   2   5
BRANCH   1  18
HETATM   18  C   UNL     1      44.549 -16.641   6.388  1.00  0.00     0.280 C 
BRANCH  18  19
HETATM   19  O   UNL     1      43.855 -17.850   6.096  1.00  0.00    -0.342 OA
BRANCH  19  20
HETATM   20  C   UNL     1      43.576 -18.038   4.767  1.00  0.00     0.069 A 
HETATM   21  C   UNL     1      43.897 -19.187   4.037  1.00  0.00     0.043 A 
HETATM   22  C   UNL     1      43.582 -19.278   2.673  1.00  0.00    -0.059 A 
HETATM   23  C   UNL     1      43.908 -20.519   1.896  1.00  0.00     0.048 C 
HETATM   24  C   UNL     1      42.907 -18.218   2.057  1.00  0.00     0.007 A 
HETATM   25  C   UNL     1      42.565 -17.080   2.788  1.00  0.00     0.003 A 
HETATM   26  C   UNL     1      42.895 -16.994   4.140  1.00  0.00     0.037 A 
ENDBRANCH  19  20
ENDBRANCH  18  19
ENDBRANCH   1  18
TORSDOF 5
ENDMDL
MODEL 10
REMARK VINA RESULT:      -7.2      5.075      8.934
REMARK  5 active torsions:
REMARK  status: ('A' for Active; 'I' for Inactive)
REMARK    1  A    between atoms: C_4  and  O_5 
REMARK    2  A    between atoms: O_5  and  C_6 
REMARK    3  A    between atoms: C_6  and  C_7 
REMARK       I    between atoms: C_7  and  N_8 
REMARK    4  A    between atoms: N_8  and  N_9 
REMARK    5  A    between atoms: C_10  and  C_11 
ROOT
HETATM    1  C   UNL     1      43.770 -15.373   7.064  1.00  0.00     0.261 C 
HETATM    2  N   UNL     1      44.183 -14.085   6.734  1.00  0.00    -0.246 N 
HETATM    3  O   UNL     1      42.822 -15.670   7.788  1.00  0.00    -0.269 OA
HETATM    4  H   UNL     1      45.116 -13.994   6.337  1.00  0.00     0.192 HD
ENDROOT
BRANCH   2   5
HETATM    5  N   UNL     1      43.651 -12.906   7.201  1.00  0.00    -0.184 NA
HETATM    6  C   UNL     1      44.381 -11.836   7.180  1.00  0.00     0.153 C 
BRANCH   6   7
HETATM    7  C   UNL     1      43.847 -10.562   7.632  1.00  0.00     0.018 A 
HETATM    8  C   UNL     1      42.840  -9.800   6.948  1.00  0.00     0.004 A 
HETATM    9  C   UNL     1      42.612  -8.643   7.690  1.00  0.00     0.043 A 
HETATM   10  C   UNL     1      42.090  -9.997   5.767  1.00  0.00     0.014 A 
HETATM   11  C   UNL     1      41.683  -7.667   7.308  1.00  0.00     0.030 A 
HETATM   12  N   UNL     1      43.443  -8.696   8.783  1.00  0.00    -0.358 N 
HETATM   13  C   UNL     1      40.959  -7.884   6.133  1.00  0.00     0.002 A 
HETATM   14  C   UNL     1      41.156  -9.034   5.372  1.00  0.00     0.001 A 
HETATM   15  H   UNL     1      43.489  -7.982   9.495  1.00  0.00     0.166 HD
HETATM   16  C   UNL     1      44.198  -9.844   8.767  1.00  0.00     0.018 A 
HETATM   17  C   UNL     1      45.188 -10.128   9.840  1.00  0.00     0.069 C 
ENDBRANCH   6   7
ENDBRANCH   2   5
BRANCH   1  18
HETATM   18  C   UNL     1      44.566 -16.451   6.336  1.00  0.00     0.280 C 
BRANCH  18  19
HETATM   19  O   UNL     1      43.768 -17.603   6.076  1.00  0.00    -0.342 OA
BRANCH  19  20
HETATM   20  C   UNL     1      43.519 -17.833   4.748  1.00  0.00     0.069 A 
HETATM   21  C   UNL     1      43.832 -19.015   4.069  1.00  0.00     0.043 A 
HETATM   22  C   UNL     1      43.549 -19.149   2.702  1.00  0.00    -0.059 A 
HETATM   23  C   UNL     1      43.867 -20.425   1.979  1.00  0.00     0.048 C 
HETATM   24  C   UNL     1      42.915 -18.098   2.030  1.00  0.00     0.007 A 
HETATM   25  C   UNL     1      42.581 -16.927   2.710  1.00  0.00     0.003 A 
HETATM   26  C   UNL     1      42.877 -16.798   4.067  1.00  0.00     0.037 A 
ENDBRANCH  19  20
ENDBRANCH  18  19
ENDBRANCH   1  18
TORSDOF 5
ENDMDL
