MODEL 1
REMARK VINA RESULT:      -8.6      0.000      0.000
REMARK  4 active torsions:
REMARK  status: ('A' for Active; 'I' for Inactive)
REMARK    1  A    between atoms: C_6  and  C_7 
REMARK    2  A    between atoms: C_8  and  C_9 
REMARK       I    between atoms: C_9  and  N_10 
REMARK    3  A    between atoms: N_10  and  C_11 
REMARK    4  A    between atoms: C_18  and  C_19 
REMARK       I    between atoms: C_19  and  N_20 
ROOT
HETATM    1  C   UNL     1      40.688 -14.856   1.348  1.00  0.00     0.035 A 
HETATM    2  C   UNL     1      40.292 -14.624   0.020  1.00  0.00     0.046 A 
HETATM    3  C   UNL     1      39.458 -13.527  -0.279  1.00  0.00     0.030 A 
HETATM    4  C   UNL     1      39.026 -12.713   0.758  1.00  0.00     0.063 A 
HETATM    5  N   UNL     1      38.246 -11.757   0.171  1.00  0.00    -0.277 N 
HETATM    6  H   UNL     1      37.760 -10.994   0.630  1.00  0.00     0.189 HD
HETATM    7  N   UNL     1      38.141 -11.869  -1.165  1.00  0.00    -0.168 NA
HETATM    8  C   UNL     1      38.885 -12.960  -1.456  1.00  0.00     0.156 A 
HETATM    9  C   UNL     1      39.382 -12.927   2.090  1.00  0.00     0.034 A 
HETATM   10  C   UNL     1      40.225 -14.014   2.362  1.00  0.00     0.032 A 
ENDROOT
BRANCH   1  11
HETATM   11  N   UNL     1      41.537 -15.959   1.579  1.00  0.00    -0.327 N 
HETATM   12  C   UNL     1      42.879 -15.923   1.890  1.00  0.00     0.227 C 
HETATM   13  O   UNL     1      43.606 -14.940   1.915  1.00  0.00    -0.273 OA
HETATM   14  H   UNL     1      41.128 -16.874   1.447  1.00  0.00     0.169 HD
BRANCH  12  15
HETATM   15  C   UNL     1      43.493 -17.262   2.108  1.00  0.00     0.087 A 
HETATM   16  C   UNL     1      43.805 -17.786   3.500  1.00  0.00     0.032 A 
HETATM   17  C   UNL     1      42.740 -18.445   2.652  1.00  0.00     0.025 A 
BRANCH  16  18
HETATM   18  C   UNL     1      43.385 -17.098   4.782  1.00  0.00    -0.051 A 
HETATM   19  C   UNL     1      42.037 -16.835   5.079  1.00  0.00     0.031 A 
HETATM   20  C   UNL     1      41.668 -16.188   6.260  1.00  0.00     0.034 A 
HETATM   21  C   UNL     1      42.635 -15.761   7.164  1.00  0.00     0.024 A 
HETATM   22 CL   UNL     1      40.003 -15.912   6.601  1.00  0.00    -0.084 Cl
HETATM   23  C   UNL     1      43.980 -15.981   6.880  1.00  0.00     0.002 A 
HETATM   24  C   UNL     1      44.345 -16.639   5.702  1.00  0.00     0.007 A 
ENDBRANCH  16  18
ENDBRANCH  12  15
ENDBRANCH   1  11
BRANCH   8  25
HETATM   25  C   UNL     1      39.045 -13.431  -2.838  1.00  0.00     0.270 C 
HETATM   26  N   UNL     1      37.867 -13.714  -3.472  1.00  0.00    -0.365 N 
HETATM   27  H   UNL     1      36.999 -13.574  -2.968  1.00  0.00     0.159 HD
HETATM   28  H   UNL     1      37.872 -14.024  -4.431  1.00  0.00     0.159 HD
HETATM   29  O   UNL     1      40.125 -13.564  -3.406  1.00  0.00    -0.266 OA
ENDBRANCH   8  25
TORSDOF 4
ENDMDL
MODEL 2
REMARK VINA RESULT:      -8.5      5.886      8.286
REMARK  4 active torsions:
REMARK  status: ('A' for Active; 'I' for Inactive)
REMARK    1  A    between atoms: C_6  and  C_7 
REMARK    2  A    between atoms: C_8  and  C_9 
REMARK       I    between atoms: C_9  and  N_10 
REMARK    3  A    between atoms: N_10  and  C_11 
REMARK    4  A    between atoms: C_18  and  C_19 
REMARK       I    between atoms: C_19  and  N_20 
ROOT
HETATM    1  C   UNL     1      43.441 -11.961   6.816  1.00  0.00     0.035 A 
HETATM    2  C   UNL     1      43.259 -10.735   7.478  1.00  0.00     0.046 A 
HETATM    3  C   UNL     1      44.371  -9.904   7.729  1.00  0.00     0.030 A 
HETATM    4  C   UNL     1      45.630 -10.334   7.334  1.00  0.00     0.063 A 
HETATM    5  N   UNL     1      46.488  -9.339   7.706  1.00  0.00    -0.277 N 
HETATM    6  H   UNL     1      47.494  -9.316   7.576  1.00  0.00     0.189 HD
HETATM    7  N   UNL     1      45.896  -8.288   8.301  1.00  0.00    -0.168 NA
HETATM    8  C   UNL     1      44.588  -8.625   8.321  1.00  0.00     0.156 A 
HETATM    9  C   UNL     1      45.849 -11.554   6.693  1.00  0.00     0.034 A 
HETATM   10  C   UNL     1      44.727 -12.356   6.440  1.00  0.00     0.032 A 
ENDROOT
BRANCH   1  11
HETATM   11  N   UNL     1      42.287 -12.738   6.579  1.00  0.00    -0.327 N 
HETATM   12  C   UNL     1      41.753 -13.079   5.356  1.00  0.00     0.227 C 
HETATM   13  O   UNL     1      42.112 -12.685   4.256  1.00  0.00    -0.273 OA
HETATM   14  H   UNL     1      41.766 -13.026   7.396  1.00  0.00     0.169 HD
BRANCH  12  15
HETATM   15  C   UNL     1      40.541 -13.941   5.436  1.00  0.00     0.087 A 
HETATM   16  C   UNL     1      40.618 -15.452   5.291  1.00  0.00     0.032 A 
HETATM   17  C   UNL     1      40.225 -14.826   6.611  1.00  0.00     0.025 A 
BRANCH  16  18
HETATM   18  C   UNL     1      41.912 -16.234   5.220  1.00  0.00    -0.051 A 
HETATM   19  C   UNL     1      42.316 -16.904   4.052  1.00  0.00     0.031 A 
HETATM   20  C   UNL     1      43.507 -17.631   4.009  1.00  0.00     0.034 A 
HETATM   21  C   UNL     1      44.313 -17.735   5.138  1.00  0.00     0.024 A 
HETATM   22 CL   UNL     1      43.981 -18.413   2.550  1.00  0.00    -0.084 Cl
HETATM   23  C   UNL     1      43.922 -17.108   6.317  1.00  0.00     0.002 A 
HETATM   24  C   UNL     1      42.735 -16.370   6.353  1.00  0.00     0.007 A 
ENDBRANCH  16  18
ENDBRANCH  12  15
ENDBRANCH   1  11
BRANCH   8  25
HETATM   25  C   UNL     1      43.574  -7.725   8.890  1.00  0.00     0.270 C 
HETATM   26  N   UNL     1      43.152  -8.079  10.141  1.00  0.00    -0.365 N 
HETATM   27  H   UNL     1      43.559  -8.899  10.576  1.00  0.00     0.159 HD
HETATM   28  H   UNL     1      42.473  -7.512  10.624  1.00  0.00     0.159 HD
HETATM   29  O   UNL     1      43.130  -6.733   8.321  1.00  0.00    -0.266 OA
ENDBRANCH   8  25
TORSDOF 4
ENDMDL
MODEL 3
REMARK VINA RESULT:      -8.3      2.606      4.028
REMARK  4 active torsions:
REMARK  status: ('A' for Active; 'I' for Inactive)
REMARK    1  A    between atoms: C_6  and  C_7 
REMARK    2  A    between atoms: C_8  and  C_9 
REMARK       I    between atoms: C_9  and  N_10 
REMARK    3  A    between atoms: N_10  and  C_11 
REMARK    4  A    between atoms: C_18  and  C_19 
REMARK       I    between atoms: C_19  and  N_20 
ROOT
HETATM    1  C   UNL     1      41.170 -13.772   5.140  1.00  0.00     0.035 A 
HETATM    2  C   UNL     1      41.008 -14.076   3.778  1.00  0.00     0.046 A 
HETATM    3  C   UNL     1      40.136 -13.298   2.987  1.00  0.00     0.030 A 
HETATM    4  C   UNL     1      39.437 -12.260   3.586  1.00  0.00     0.063 A 
HETATM    5  N   UNL     1      38.687 -11.703   2.588  1.00  0.00    -0.277 N 
HETATM    6  H   UNL     1      38.049 -10.918   2.666  1.00  0.00     0.189 HD
HETATM    7  N   UNL     1      38.847 -12.280   1.385  1.00  0.00    -0.168 NA
HETATM    8  C   UNL     1      39.739 -13.268   1.617  1.00  0.00     0.156 A 
HETATM    9  C   UNL     1      39.558 -11.944   4.940  1.00  0.00     0.034 A 
HETATM   10  C   UNL     1      40.442 -12.720   5.703  1.00  0.00     0.032 A 
ENDROOT
BRANCH   1  11
HETATM   11  N   UNL     1      42.069 -14.575   5.873  1.00  0.00    -0.327 N 
HETATM   12  C   UNL     1      41.824 -15.824   6.403  1.00  0.00     0.227 C 
HETATM   13  O   UNL     1      40.756 -16.418   6.432  1.00  0.00    -0.273 OA
HETATM   14  H   UNL     1      42.970 -14.166   6.079  1.00  0.00     0.169 HD
BRANCH  12  15
HETATM   15  C   UNL     1      42.991 -16.433   7.099  1.00  0.00     0.087 A 
HETATM   16  C   UNL     1      43.874 -17.472   6.428  1.00  0.00     0.032 A 
HETATM   17  C   UNL     1      44.421 -16.103   6.771  1.00  0.00     0.025 A 
BRANCH  16  18
HETATM   18  C   UNL     1      43.770 -17.863   4.970  1.00  0.00    -0.051 A 
HETATM   19  C   UNL     1      43.527 -16.917   3.960  1.00  0.00     0.031 A 
HETATM   20  C   UNL     1      43.422 -17.297   2.620  1.00  0.00     0.034 A 
HETATM   21  C   UNL     1      43.527 -18.635   2.255  1.00  0.00     0.024 A 
HETATM   22 CL   UNL     1      43.153 -16.103   1.409  1.00  0.00    -0.084 Cl
HETATM   23  C   UNL     1      43.737 -19.597   3.239  1.00  0.00     0.002 A 
HETATM   24  C   UNL     1      43.854 -19.211   4.577  1.00  0.00     0.007 A 
ENDBRANCH  16  18
ENDBRANCH  12  15
ENDBRANCH   1  11
BRANCH   8  25
HETATM   25  C   UNL     1      40.203 -14.151   0.538  1.00  0.00     0.270 C 
HETATM   26  N   UNL     1      41.042 -13.547  -0.356  1.00  0.00    -0.365 N 
HETATM   27  H   UNL     1      41.285 -12.574  -0.212  1.00  0.00     0.159 HD
HETATM   28  H   UNL     1      41.430 -14.076  -1.122  1.00  0.00     0.159 HD
HETATM   29  O   UNL     1      39.888 -15.332   0.425  1.00  0.00    -0.266 OA
ENDBRANCH   8  25
TORSDOF 4
ENDMDL
MODEL 4
REMARK VINA RESULT:      -8.3      3.146      7.256
REMARK  4 active torsions:
REMARK  status: ('A' for Active; 'I' for Inactive)
REMARK    1  A    between atoms: C_6  and  C_7 
REMARK    2  A    between atoms: C_8  and  C_9 
REMARK       I    between atoms: C_9  and  N_10 
REMARK    3  A    between atoms: N_10  and  C_11 
REMARK    4  A    between atoms: C_18  and  C_19 
REMARK       I    between atoms: C_19  and  N_20 
ROOT
HETATM    1  C   UNL     1      42.366 -16.184   2.451  1.00  0.00     0.035 A 
HETATM    2  C   UNL     1      42.159 -16.038   3.833  1.00  0.00     0.046 A 
HETATM    3  C   UNL     1      42.764 -16.943   4.729  1.00  0.00     0.030 A 
HETATM    4  C   UNL     1      43.534 -17.977   4.218  1.00  0.00     0.063 A 
HETATM    5  N   UNL     1      43.976 -18.675   5.306  1.00  0.00    -0.277 N 
HETATM    6  H   UNL     1      44.566 -19.500   5.307  1.00  0.00     0.189 HD
HETATM    7  N   UNL     1      43.571 -18.178   6.488  1.00  0.00    -0.168 NA
HETATM    8  C   UNL     1      42.820 -17.107   6.145  1.00  0.00     0.156 A 
HETATM    9  C   UNL     1      43.744 -18.164   2.851  1.00  0.00     0.034 A 
HETATM   10  C   UNL     1      43.146 -17.243   1.979  1.00  0.00     0.032 A 
ENDROOT
BRANCH   1  11
HETATM   11  N   UNL     1      41.748 -15.237   1.607  1.00  0.00    -0.327 N 
HETATM   12  C   UNL     1      40.449 -15.259   1.145  1.00  0.00     0.227 C 
HETATM   13  O   UNL     1      39.629 -16.153   1.288  1.00  0.00    -0.273 OA
HETATM   14  H   UNL     1      42.338 -14.493   1.260  1.00  0.00     0.169 HD
BRANCH  12  15
HETATM   15  C   UNL     1      40.083 -14.093   0.293  1.00  0.00     0.087 A 
HETATM   16  C   UNL     1      39.849 -12.711   0.880  1.00  0.00     0.032 A 
HETATM   17  C   UNL     1      41.029 -12.970  -0.031  1.00  0.00     0.025 A 
BRANCH  16  18
HETATM   18  C   UNL     1      40.119 -12.343   2.324  1.00  0.00    -0.051 A 
HETATM   19  C   UNL     1      41.359 -11.835   2.744  1.00  0.00     0.031 A 
HETATM   20  C   UNL     1      41.595 -11.513   4.082  1.00  0.00     0.034 A 
HETATM   21  C   UNL     1      40.610 -11.716   5.042  1.00  0.00     0.024 A 
HETATM   22 CL   UNL     1      43.120 -10.863   4.551  1.00  0.00    -0.084 Cl
HETATM   23  C   UNL     1      39.382 -12.247   4.659  1.00  0.00     0.002 A 
HETATM   24  C   UNL     1      39.145 -12.558   3.316  1.00  0.00     0.007 A 
ENDBRANCH  16  18
ENDBRANCH  12  15
ENDBRANCH   1  11
BRANCH   8  25
HETATM   25  C   UNL     1      42.184 -16.260   7.164  1.00  0.00     0.270 C 
HETATM   26  N   UNL     1      43.026 -15.867   8.167  1.00  0.00    -0.365 N 
HETATM   27  H   UNL     1      43.994 -16.166   8.134  1.00  0.00     0.159 HD
HETATM   28  H   UNL     1      42.688 -15.266   8.903  1.00  0.00     0.159 HD
HETATM   29  O   UNL     1      41.008 -15.914   7.143  1.00  0.00    -0.266 OA
ENDBRANCH   8  25
TORSDOF 4
ENDMDL
MODEL 5
REMARK VINA RESULT:      -7.9      3.220      8.107
REMARK  4 active torsions:
REMARK  status: ('A' for Active; 'I' for Inactive)
REMARK    1  A    between atoms: C_6  and  C_7 
REMARK    2  A    between atoms: C_8  and  C_9 
REMARK       I    between atoms: C_9  and  N_10 
REMARK    3  A    between atoms: N_10  and  C_11 
REMARK    4  A    between atoms: C_18  and  C_19 
REMARK       I    between atoms: C_19  and  N_20 
ROOT
HETATM    1  C   UNL     1      41.564 -14.817   2.698  1.00  0.00     0.035 A 
HETATM    2  C   UNL     1      41.731 -15.221   4.033  1.00  0.00     0.046 A 
HETATM    3  C   UNL     1      42.563 -16.320   4.332  1.00  0.00     0.030 A 
HETATM    4  C   UNL     1      43.181 -16.994   3.289  1.00  0.00     0.063 A 
HETATM    5  N   UNL     1      43.904 -17.992   3.878  1.00  0.00    -0.277 N 
HETATM    6  H   UNL     1      44.482 -18.686   3.415  1.00  0.00     0.189 HD
HETATM    7  N   UNL     1      43.822 -18.021   5.220  1.00  0.00    -0.168 NA
HETATM    8  C   UNL     1      42.996 -16.992   5.513  1.00  0.00     0.156 A 
HETATM    9  C   UNL     1      43.021 -16.633   1.950  1.00  0.00     0.034 A 
HETATM   10  C   UNL     1      42.203 -15.528   1.678  1.00  0.00     0.032 A 
ENDROOT
BRANCH   1  11
HETATM   11  N   UNL     1      40.734 -13.700   2.466  1.00  0.00    -0.327 N 
HETATM   12  C   UNL     1      41.134 -12.416   2.166  1.00  0.00     0.227 C 
HETATM   13  O   UNL     1      42.276 -11.981   2.154  1.00  0.00    -0.273 OA
HETATM   14  H   UNL     1      39.741 -13.847   2.588  1.00  0.00     0.169 HD
BRANCH  12  15
HETATM   15  C   UNL     1      40.012 -11.461   1.944  1.00  0.00     0.087 A 
HETATM   16  C   UNL     1      39.444 -11.198   0.559  1.00  0.00     0.032 A 
HETATM   17  C   UNL     1      38.608 -11.889   1.615  1.00  0.00     0.025 A 
BRANCH  16  18
HETATM   18  C   UNL     1      39.829 -11.977  -0.680  1.00  0.00    -0.051 A 
HETATM   19  C   UNL     1      39.196 -13.182  -1.030  1.00  0.00     0.031 A 
HETATM   20  C   UNL     1      39.573 -13.894  -2.171  1.00  0.00     0.034 A 
HETATM   21  C   UNL     1      40.610 -13.438  -2.978  1.00  0.00     0.024 A 
HETATM   22 CL   UNL     1      38.752 -15.351  -2.581  1.00  0.00    -0.084 Cl
HETATM   23  C   UNL     1      41.275 -12.264  -2.638  1.00  0.00     0.002 A 
HETATM   24  C   UNL     1      40.887 -11.547  -1.502  1.00  0.00     0.007 A 
ENDBRANCH  16  18
ENDBRANCH  12  15
ENDBRANCH   1  11
BRANCH   8  25
HETATM   25  C   UNL     1      42.645 -16.664   6.902  1.00  0.00     0.270 C 
HETATM   26  N   UNL     1      43.649 -16.895   7.801  1.00  0.00    -0.365 N 
HETATM   27  H   UNL     1      44.534 -17.251   7.459  1.00  0.00     0.159 HD
HETATM   28  H   UNL     1      43.512 -16.682   8.777  1.00  0.00     0.159 HD
HETATM   29  O   UNL     1      41.559 -16.216   7.256  1.00  0.00    -0.266 OA
ENDBRANCH   8  25
TORSDOF 4
ENDMDL
MODEL 6
REMARK VINA RESULT:      -7.8      2.760      4.063
REMARK  4 active torsions:
REMARK  status: ('A' for Active; 'I' for Inactive)
REMARK    1  A    between atoms: C_6  and  C_7 
REMARK    2  A    between atoms: C_8  and  C_9 
REMARK       I    between atoms: C_9  and  N_10 
REMARK    3  A    between atoms: N_10  and  C_11 
REMARK    4  A    between atoms: C_18  and  C_19 
REMARK       I    between atoms: C_19  and  N_20 
ROOT
HETATM    1  C   UNL     1      41.299 -14.957   3.384  1.00  0.00     0.035 A 
HETATM    2  C   UNL     1      41.287 -13.649   2.871  1.00  0.00     0.046 A 
HETATM    3  C   UNL     1      40.641 -13.385   1.645  1.00  0.00     0.030 A 
HETATM    4  C   UNL     1      40.050 -14.438   0.960  1.00  0.00     0.063 A 
HETATM    5  N   UNL     1      39.517 -13.884  -0.170  1.00  0.00    -0.277 N 
HETATM    6  H   UNL     1      39.011 -14.362  -0.907  1.00  0.00     0.189 HD
HETATM    7  N   UNL     1      39.699 -12.556  -0.276  1.00  0.00    -0.168 NA
HETATM    8  C   UNL     1      40.392 -12.235   0.839  1.00  0.00     0.156 A 
HETATM    9  C   UNL     1      40.061 -15.752   1.430  1.00  0.00     0.034 A 
HETATM   10  C   UNL     1      40.695 -15.987   2.659  1.00  0.00     0.032 A 
ENDROOT
BRANCH   1  11
HETATM   11  N   UNL     1      41.946 -15.152   4.622  1.00  0.00    -0.327 N 
HETATM   12  C   UNL     1      41.511 -15.931   5.673  1.00  0.00     0.227 C 
HETATM   13  O   UNL     1      40.438 -16.507   5.771  1.00  0.00    -0.273 OA
HETATM   14  H   UNL     1      42.791 -14.619   4.775  1.00  0.00     0.169 HD
BRANCH  12  15
HETATM   15  C   UNL     1      42.438 -15.960   6.838  1.00  0.00     0.087 A 
HETATM   16  C   UNL     1      43.381 -17.126   7.086  1.00  0.00     0.032 A 
HETATM   17  C   UNL     1      43.924 -15.760   6.725  1.00  0.00     0.025 A 
BRANCH  16  18
HETATM   18  C   UNL     1      43.596 -18.267   6.116  1.00  0.00    -0.051 A 
HETATM   19  C   UNL     1      43.850 -18.049   4.752  1.00  0.00     0.031 A 
HETATM   20  C   UNL     1      44.033 -19.115   3.868  1.00  0.00     0.034 A 
HETATM   21  C   UNL     1      43.939 -20.428   4.317  1.00  0.00     0.024 A 
HETATM   22 CL   UNL     1      44.372 -18.804   2.209  1.00  0.00    -0.084 Cl
HETATM   23  C   UNL     1      43.658 -20.674   5.657  1.00  0.00     0.002 A 
HETATM   24  C   UNL     1      43.487 -19.604   6.541  1.00  0.00     0.007 A 
ENDBRANCH  16  18
ENDBRANCH  12  15
ENDBRANCH   1  11
BRANCH   8  25
HETATM   25  C   UNL     1      40.792 -10.850   1.119  1.00  0.00     0.270 C 
HETATM   26  N   UNL     1      39.779 -10.059   1.587  1.00  0.00    -0.365 N 
HETATM   27  H   UNL     1      38.861 -10.471   1.713  1.00  0.00     0.159 HD
HETATM   28  H   UNL     1      39.959  -9.097   1.828  1.00  0.00     0.159 HD
HETATM   29  O   UNL     1      41.928 -10.410   0.965  1.00  0.00    -0.266 OA
ENDBRANCH   8  25
TORSDOF 4
ENDMDL
MODEL 7
REMARK VINA RESULT:      -7.7      8.415     10.871
REMARK  4 active torsions:
REMARK  status: ('A' for Active; 'I' for Inactive)
REMARK    1  A    between atoms: C_6  and  C_7 
REMARK    2  A    between atoms: C_8  and  C_9 
REMARK       I    between atoms: C_9  and  N_10 
REMARK    3  A    between atoms: N_10  and  C_11 
REMARK    4  A    between atoms: C_18  and  C_19 
REMARK       I    between atoms: C_19  and  N_20 
ROOT
HETATM    1  C   UNL     1      43.356  -8.548  11.274  1.00  0.00     0.035 A 
HETATM    2  C   UNL     1      42.072  -8.812  10.770  1.00  0.00     0.046 A 
HETATM    3  C   UNL     1      40.940  -8.563  11.574  1.00  0.00     0.030 A 
HETATM    4  C   UNL     1      41.128  -8.082  12.862  1.00  0.00     0.063 A 
HETATM    5  N   UNL     1      39.873  -7.945  13.386  1.00  0.00    -0.277 N 
HETATM    6  H   UNL     1      39.629  -7.617  14.314  1.00  0.00     0.189 HD
HETATM    7  N   UNL     1      38.880  -8.282  12.545  1.00  0.00    -0.168 NA
HETATM    8  C   UNL     1      39.526  -8.667  11.421  1.00  0.00     0.156 A 
HETATM    9  C   UNL     1      42.389  -7.829  13.402  1.00  0.00     0.034 A 
HETATM   10  C   UNL     1      43.499  -8.069  12.579  1.00  0.00     0.032 A 
ENDROOT
BRANCH   1  11
HETATM   11  N   UNL     1      44.446  -8.802  10.415  1.00  0.00    -0.327 N 
HETATM   12  C   UNL     1      45.084 -10.008  10.216  1.00  0.00     0.227 C 
HETATM   13  O   UNL     1      44.898 -11.051  10.825  1.00  0.00    -0.273 OA
HETATM   14  H   UNL     1      44.836  -8.001   9.937  1.00  0.00     0.169 HD
BRANCH  12  15
HETATM   15  C   UNL     1      46.185  -9.960   9.215  1.00  0.00     0.087 A 
HETATM   16  C   UNL     1      46.037 -10.560   7.827  1.00  0.00     0.032 A 
HETATM   17  C   UNL     1      46.174  -9.064   8.007  1.00  0.00     0.025 A 
BRANCH  16  18
HETATM   18  C   UNL     1      44.738 -11.103   7.270  1.00  0.00    -0.051 A 
HETATM   19  C   UNL     1      44.596 -12.447   6.886  1.00  0.00     0.031 A 
HETATM   20  C   UNL     1      43.394 -12.928   6.363  1.00  0.00     0.034 A 
HETATM   21  C   UNL     1      42.310 -12.075   6.182  1.00  0.00     0.024 A 
HETATM   22 CL   UNL     1      43.251 -14.589   5.932  1.00  0.00    -0.084 Cl
HETATM   23  C   UNL     1      42.433 -10.732   6.525  1.00  0.00     0.002 A 
HETATM   24  C   UNL     1      43.634 -10.257   7.060  1.00  0.00     0.007 A 
ENDBRANCH  16  18
ENDBRANCH  12  15
ENDBRANCH   1  11
BRANCH   8  25
HETATM   25  C   UNL     1      38.790  -9.111  10.230  1.00  0.00     0.270 C 
HETATM   26  N   UNL     1      38.732 -10.470  10.084  1.00  0.00    -0.365 N 
HETATM   27  H   UNL     1      39.174 -11.052  10.786  1.00  0.00     0.159 HD
HETATM   28  H   UNL     1      38.231 -10.873   9.308  1.00  0.00     0.159 HD
HETATM   29  O   UNL     1      38.258  -8.357   9.421  1.00  0.00    -0.266 OA
ENDBRANCH   8  25
TORSDOF 4
ENDMDL
MODEL 8
REMARK VINA RESULT:      -7.6      2.820      3.991
REMARK  4 active torsions:
REMARK  status: ('A' for Active; 'I' for Inactive)
REMARK    1  A    between atoms: C_6  and  C_7 
REMARK    2  A    between atoms: C_8  and  C_9 
REMARK       I    between atoms: C_9  and  N_10 
REMARK    3  A    between atoms: N_10  and  C_11 
REMARK    4  A    between atoms: C_18  and  C_19 
REMARK       I    between atoms: C_19  and  N_20 
ROOT
HETATM    1  C   UNL     1      40.235 -14.964   2.285  1.00  0.00     0.035 A 
HETATM    2  C   UNL     1      40.526 -13.606   2.069  1.00  0.00     0.046 A 
HETATM    3  C   UNL     1      40.420 -13.067   0.770  1.00  0.00     0.030 A 
HETATM    4  C   UNL     1      40.052 -13.904  -0.273  1.00  0.00     0.063 A 
HETATM    5  N   UNL     1      40.039 -13.112  -1.387  1.00  0.00    -0.277 N 
HETATM    6  H   UNL     1      39.815 -13.393  -2.336  1.00  0.00     0.189 HD
HETATM    7  N   UNL     1      40.354 -11.825  -1.159  1.00  0.00    -0.168 NA
HETATM    8  C   UNL     1      40.592 -11.784   0.171  1.00  0.00     0.156 A 
HETATM    9  C   UNL     1      39.777 -15.261  -0.098  1.00  0.00     0.034 A 
HETATM   10  C   UNL     1      39.873 -15.771   1.204  1.00  0.00     0.032 A 
ENDROOT
BRANCH   1  11
HETATM   11  N   UNL     1      40.342 -15.438   3.610  1.00  0.00    -0.327 N 
HETATM   12  C   UNL     1      41.407 -16.115   4.166  1.00  0.00     0.227 C 
HETATM   13  O   UNL     1      42.405 -16.523   3.590  1.00  0.00    -0.273 OA
HETATM   14  H   UNL     1      39.527 -15.319   4.196  1.00  0.00     0.169 HD
BRANCH  12  15
HETATM   15  C   UNL     1      41.231 -16.456   5.605  1.00  0.00     0.087 A 
HETATM   16  C   UNL     1      41.620 -15.491   6.713  1.00  0.00     0.032 A 
HETATM   17  C   UNL     1      40.169 -15.850   6.480  1.00  0.00     0.025 A 
BRANCH  16  18
HETATM   18  C   UNL     1      42.055 -14.060   6.480  1.00  0.00    -0.051 A 
HETATM   19  C   UNL     1      43.382 -13.643   6.677  1.00  0.00     0.031 A 
HETATM   20  C   UNL     1      43.763 -12.315   6.469  1.00  0.00     0.034 A 
HETATM   21  C   UNL     1      42.825 -11.362   6.087  1.00  0.00     0.024 A 
HETATM   22 CL   UNL     1      45.406 -11.850   6.693  1.00  0.00    -0.084 Cl
HETATM   23  C   UNL     1      41.497 -11.741   5.915  1.00  0.00     0.002 A 
HETATM   24  C   UNL     1      41.121 -13.073   6.112  1.00  0.00     0.007 A 
ENDBRANCH  16  18
ENDBRANCH  12  15
ENDBRANCH   1  11
BRANCH   8  25
HETATM   25  C   UNL     1      40.966 -10.532   0.843  1.00  0.00     0.270 C 
HETATM   26  N   UNL     1      39.912  -9.859   1.396  1.00  0.00    -0.365 N 
HETATM   27  H   UNL     1      38.984 -10.260   1.317  1.00  0.00     0.159 HD
HETATM   28  H   UNL     1      40.069  -8.998   1.897  1.00  0.00     0.159 HD
HETATM   29  O   UNL     1      42.112 -10.103   0.924  1.00  0.00    -0.266 OA
ENDBRANCH   8  25
TORSDOF 4
ENDMDL
MODEL 9
REMARK VINA RESULT:      -7.5      4.697      6.393
REMARK  4 active torsions:
REMARK  status: ('A' for Active; 'I' for Inactive)
REMARK    1  A    between atoms: C_6  and  C_7 
REMARK    2  A    between atoms: C_8  and  C_9 
REMARK       I    between atoms: C_9  and  N_10 
REMARK    3  A    between atoms: N_10  and  C_11 
REMARK    4  A    between atoms: C_18  and  C_19 
REMARK       I    between atoms: C_19  and  N_20 
ROOT
HETATM    1  C   UNL     1      41.866 -12.124   5.499  1.00  0.00     0.035 A 
HETATM    2  C   UNL     1      41.212 -11.038   6.105  1.00  0.00     0.046 A 
HETATM    3  C   UNL     1      41.162  -9.794   5.443  1.00  0.00     0.030 A 
HETATM    4  C   UNL     1      41.787  -9.667   4.211  1.00  0.00     0.063 A 
HETATM    5  N   UNL     1      41.574  -8.372   3.827  1.00  0.00    -0.277 N 
HETATM    6  H   UNL     1      41.893  -7.926   2.974  1.00  0.00     0.189 HD
HETATM    7  N   UNL     1      40.853  -7.646   4.698  1.00  0.00    -0.168 NA
HETATM    8  C   UNL     1      40.592  -8.512   5.702  1.00  0.00     0.156 A 
HETATM    9  C   UNL     1      42.462 -10.717   3.589  1.00  0.00     0.034 A 
HETATM   10  C   UNL     1      42.485 -11.950   4.258  1.00  0.00     0.032 A 
ENDROOT
BRANCH   1  11
HETATM   11  N   UNL     1      41.866 -13.346   6.203  1.00  0.00    -0.327 N 
HETATM   12  C   UNL     1      42.959 -14.004   6.724  1.00  0.00     0.227 C 
HETATM   13  O   UNL     1      44.136 -13.711   6.580  1.00  0.00    -0.273 OA
HETATM   14  H   UNL     1      40.974 -13.816   6.285  1.00  0.00     0.169 HD
BRANCH  12  15
HETATM   15  C   UNL     1      42.628 -15.264   7.447  1.00  0.00     0.087 A 
HETATM   16  C   UNL     1      42.220 -16.529   6.710  1.00  0.00     0.032 A 
HETATM   17  C   UNL     1      43.526 -16.470   7.472  1.00  0.00     0.025 A 
BRANCH  16  18
HETATM   18  C   UNL     1      42.268 -16.691   5.206  1.00  0.00    -0.051 A 
HETATM   19  C   UNL     1      41.220 -16.259   4.376  1.00  0.00     0.031 A 
HETATM   20  C   UNL     1      41.276 -16.427   2.990  1.00  0.00     0.034 A 
HETATM   21  C   UNL     1      42.366 -17.057   2.399  1.00  0.00     0.024 A 
HETATM   22 CL   UNL     1      39.984 -15.857   2.005  1.00  0.00    -0.084 Cl
HETATM   23  C   UNL     1      43.404 -17.522   3.200  1.00  0.00     0.002 A 
HETATM   24  C   UNL     1      43.350 -17.341   4.585  1.00  0.00     0.007 A 
ENDBRANCH  16  18
ENDBRANCH  12  15
ENDBRANCH   1  11
BRANCH   8  25
HETATM   25  C   UNL     1      39.802  -8.111   6.873  1.00  0.00     0.270 C 
HETATM   26  N   UNL     1      40.371  -7.113   7.616  1.00  0.00    -0.365 N 
HETATM   27  H   UNL     1      41.258  -6.728   7.312  1.00  0.00     0.159 HD
HETATM   28  H   UNL     1      39.895  -6.755   8.429  1.00  0.00     0.159 HD
HETATM   29  O   UNL     1      38.720  -8.602   7.183  1.00  0.00    -0.266 OA
ENDBRANCH   8  25
TORSDOF 4
ENDMDL
MODEL 10
REMARK VINA RESULT:      -7.4      5.374      8.183
REMARK  4 active torsions:
REMARK  status: ('A' for Active; 'I' for Inactive)
REMARK    1  A    between atoms: C_6  and  C_7 
REMARK    2  A    between atoms: C_8  and  C_9 
REMARK       I    between atoms: C_9  and  N_10 
REMARK    3  A    between atoms: N_10  and  C_11 
REMARK    4  A    between atoms: C_18  and  C_19 
REMARK       I    between atoms: C_19  and  N_20 
ROOT
HETATM    1  C   UNL     1      43.465 -11.765   5.747  1.00  0.00     0.035 A 
HETATM    2  C   UNL     1      43.100 -11.296   7.020  1.00  0.00     0.046 A 
HETATM    3  C   UNL     1      44.090 -10.794   7.890  1.00  0.00     0.030 A 
HETATM    4  C   UNL     1      45.413 -10.799   7.472  1.00  0.00     0.063 A 
HETATM    5  N   UNL     1      46.125 -10.266   8.509  1.00  0.00    -0.277 N 
HETATM    6  H   UNL     1      47.128 -10.119   8.553  1.00  0.00     0.189 HD
HETATM    7  N   UNL     1      45.379  -9.900   9.566  1.00  0.00    -0.168 NA
HETATM    8  C   UNL     1      44.119 -10.221   9.196  1.00  0.00     0.156 A 
HETATM    9  C   UNL     1      45.813 -11.277   6.223  1.00  0.00     0.034 A 
HETATM   10  C   UNL     1      44.810 -11.757   5.369  1.00  0.00     0.032 A 
ENDROOT
BRANCH   1  11
HETATM   11  N   UNL     1      42.426 -12.239   4.918  1.00  0.00    -0.327 N 
HETATM   12  C   UNL     1      42.545 -12.725   3.634  1.00  0.00     0.227 C 
HETATM   13  O   UNL     1      43.550 -12.735   2.938  1.00  0.00    -0.273 OA
HETATM   14  H   UNL     1      41.488 -12.159   5.285  1.00  0.00     0.169 HD
BRANCH  12  15
HETATM   15  C   UNL     1      41.262 -13.181   3.030  1.00  0.00     0.087 A 
HETATM   16  C   UNL     1      40.987 -14.646   2.738  1.00  0.00     0.032 A 
HETATM   17  C   UNL     1      40.195 -13.911   3.797  1.00  0.00     0.025 A 
BRANCH  16  18
HETATM   18  C   UNL     1      41.888 -15.783   3.170  1.00  0.00    -0.051 A 
HETATM   19  C   UNL     1      42.067 -16.120   4.522  1.00  0.00     0.031 A 
HETATM   20  C   UNL     1      42.913 -17.164   4.904  1.00  0.00     0.034 A 
HETATM   21  C   UNL     1      43.624 -17.882   3.948  1.00  0.00     0.024 A 
HETATM   22 CL   UNL     1      43.082 -17.565   6.570  1.00  0.00    -0.084 Cl
HETATM   23  C   UNL     1      43.490 -17.550   2.604  1.00  0.00     0.002 A 
HETATM   24  C   UNL     1      42.633 -16.512   2.225  1.00  0.00     0.007 A 
ENDBRANCH  16  18
ENDBRANCH  12  15
ENDBRANCH   1  11
BRANCH   8  25
HETATM   25  C   UNL     1      42.974  -9.969  10.082  1.00  0.00     0.270 C 
HETATM   26  N   UNL     1      42.963 -10.736  11.214  1.00  0.00    -0.365 N 
HETATM   27  H   UNL     1      43.722 -11.392  11.362  1.00  0.00     0.159 HD
HETATM   28  H   UNL     1      42.229 -10.622  11.894  1.00  0.00     0.159 HD
HETATM   29  O   UNL     1      42.091  -9.146   9.858  1.00  0.00    -0.266 OA
ENDBRANCH   8  25
TORSDOF 4
ENDMDL
