MODEL 1
REMARK VINA RESULT:      -9.3      0.000      0.000
REMARK  6 active torsions:
REMARK  status: ('A' for Active; 'I' for Inactive)
REMARK    1  A    between atoms: C_4  and  N_5 
REMARK    2  A    between atoms: N_8  and  C_10 
REMARK    3  A    between atoms: C_10  and  C_11 
REMARK    4  A    between atoms: C_14  and  C_15 
REMARK    5  A    between atoms: C_15  and  N_16 
REMARK       I    between atoms: N_16  and  C_17 
REMARK    6  A    between atoms: C_17  and  C_18 
ROOT
HETATM    1  C   UNL     1      43.601 -11.153   4.968  1.00  0.00     0.041 C 
HETATM    2  C   UNL     1      44.851 -11.649   5.746  1.00  0.00    -0.004 C 
HETATM    3  C   UNL     1      44.707 -13.146   6.107  1.00  0.00     0.040 C 
HETATM    4  C   UNL     1      43.460 -13.389   6.991  1.00  0.00     0.206 C 
HETATM    5  N   UNL     1      42.798 -12.026   7.155  1.00  0.00    -0.065 N 
HETATM    6  H   UNL     1      41.920 -12.188   7.703  1.00  0.00     0.280 HD
HETATM    7  C   UNL     1      42.360 -11.375   5.869  1.00  0.00     0.242 C 
HETATM    8  C   UNL     1      44.939 -10.856   7.077  1.00  0.00     0.032 C 
HETATM    9  C   UNL     1      43.695 -11.097   7.940  1.00  0.00     0.236 C 
ENDROOT
BRANCH   1  10
HETATM   10  C   UNL     1      43.316 -11.780   3.585  1.00  0.00     0.241 C 
BRANCH  10  11
HETATM   11  N   UNL     1      41.933 -12.375   3.435  1.00  0.00    -0.068 N 
HETATM   12  C   UNL     1      40.926 -11.455   2.709  1.00  0.00     0.254 C 
HETATM   13  C   UNL     1      39.561 -12.154   2.543  1.00  0.00     0.150 C 
HETATM   14  N   UNL     1      39.731 -13.407   1.785  1.00  0.00    -0.378 N 
HETATM   15  C   UNL     1      40.639 -14.363   2.438  1.00  0.00     0.150 C 
HETATM   16  C   UNL     1      42.028 -13.734   2.671  1.00  0.00     0.254 C 
HETATM   17  H   UNL     1      41.528 -12.608   4.352  1.00  0.00     0.280 HD
BRANCH  14  18
HETATM   18  C   UNL     1      39.680 -13.311   0.389  1.00  0.00     0.030 A 
HETATM   19  C   UNL     1      40.088 -14.340  -0.476  1.00  0.00     0.029 A 
HETATM   20  C   UNL     1      40.041 -14.197  -1.870  1.00  0.00     0.002 A 
HETATM   21  C   UNL     1      39.559 -13.025  -2.438  1.00  0.00     0.000 A 
HETATM   22  C   UNL     1      39.107 -12.006  -1.613  1.00  0.00     0.002 A 
HETATM   23  C   UNL     1      39.161 -12.155  -0.222  1.00  0.00     0.029 A 
ENDBRANCH  14  18
ENDBRANCH  10  11
ENDBRANCH   1  10
BRANCH   4  24
HETATM   24  C   UNL     1      42.530 -14.478   6.388  1.00  0.00     0.156 C 
BRANCH  24  25
HETATM   25  N   UNL     1      43.138 -15.625   5.724  1.00  0.00    -0.355 N 
HETATM   26  C   UNL     1      43.486 -16.790   6.379  1.00  0.00     0.251 C 
HETATM   27  O   UNL     1      43.658 -16.812   7.596  1.00  0.00    -0.268 OA
HETATM   28  H   UNL     1      42.890 -15.725   4.745  1.00  0.00     0.162 HD
BRANCH  26  29
HETATM   29  C   UNL     1      43.552 -18.046   5.582  1.00  0.00     0.034 A 
HETATM   30  C   UNL     1      43.485 -17.918   4.186  1.00  0.00     0.056 A 
HETATM   31  C   UNL     1      43.635 -19.056   3.423  1.00  0.00     0.106 A 
HETATM   32  C   UNL     1      43.833 -20.289   3.994  1.00  0.00     0.105 A 
HETATM   33  O   UNL     1      43.626 -19.106   2.066  1.00  0.00    -0.323 OA
HETATM   34  O   UNL     1      43.974 -21.271   3.066  1.00  0.00    -0.323 OA
HETATM   35  C   UNL     1      43.878 -20.456   5.361  1.00  0.00     0.041 A 
HETATM   36  C   UNL     1      43.830 -20.519   1.842  1.00  0.00     0.352 A 
HETATM   37  C   UNL     1      43.729 -19.320   6.167  1.00  0.00     0.020 A 
ENDBRANCH  26  29
ENDBRANCH  24  25
ENDBRANCH   4  24
TORSDOF 6
ENDMDL
MODEL 2
REMARK VINA RESULT:      -9.2      3.151      7.845
REMARK  6 active torsions:
REMARK  status: ('A' for Active; 'I' for Inactive)
REMARK    1  A    between atoms: C_4  and  N_5 
REMARK    2  A    between atoms: N_8  and  C_10 
REMARK    3  A    between atoms: C_10  and  C_11 
REMARK    4  A    between atoms: C_14  and  C_15 
REMARK    5  A    between atoms: C_15  and  N_16 
REMARK       I    between atoms: N_16  and  C_17 
REMARK    6  A    between atoms: C_17  and  C_18 
ROOT
HETATM    1  C   UNL     1      40.825 -14.506   4.866  1.00  0.00     0.041 C 
HETATM    2  C   UNL     1      41.418 -14.811   3.463  1.00  0.00    -0.004 C 
HETATM    3  C   UNL     1      42.201 -13.590   2.927  1.00  0.00     0.040 C 
HETATM    4  C   UNL     1      41.284 -12.349   2.805  1.00  0.00     0.206 C 
HETATM    5  N   UNL     1      39.915 -12.796   3.304  1.00  0.00    -0.065 N 
HETATM    6  H   UNL     1      39.300 -11.948   3.282  1.00  0.00     0.280 HD
HETATM    7  C   UNL     1      39.888 -13.280   4.731  1.00  0.00     0.242 C 
HETATM    8  C   UNL     1      40.241 -15.073   2.486  1.00  0.00     0.032 C 
HETATM    9  C   UNL     1      39.335 -13.841   2.381  1.00  0.00     0.236 C 
ENDROOT
BRANCH   1  10
HETATM   10  C   UNL     1      41.813 -14.238   6.024  1.00  0.00     0.241 C 
BRANCH  10  11
HETATM   11  N   UNL     1      42.668 -15.424   6.411  1.00  0.00    -0.068 N 
HETATM   12  C   UNL     1      41.926 -16.778   6.365  1.00  0.00     0.254 C 
HETATM   13  C   UNL     1      42.878 -17.941   6.715  1.00  0.00     0.150 C 
HETATM   14  N   UNL     1      44.011 -17.957   5.773  1.00  0.00    -0.378 N 
HETATM   15  C   UNL     1      44.803 -16.718   5.793  1.00  0.00     0.150 C 
HETATM   16  C   UNL     1      43.920 -15.494   5.481  1.00  0.00     0.254 C 
HETATM   17  H   UNL     1      43.044 -15.314   7.363  1.00  0.00     0.280 HD
BRANCH  14  18
HETATM   18  C   UNL     1      43.828 -18.668   4.580  1.00  0.00     0.030 A 
HETATM   19  C   UNL     1      43.457 -18.065   3.366  1.00  0.00     0.029 A 
HETATM   20  C   UNL     1      43.262 -18.815   2.198  1.00  0.00     0.002 A 
HETATM   21  C   UNL     1      43.460 -20.190   2.206  1.00  0.00     0.000 A 
HETATM   22  C   UNL     1      43.870 -20.810   3.377  1.00  0.00     0.002 A 
HETATM   23  C   UNL     1      44.058 -20.056   4.540  1.00  0.00     0.029 A 
ENDBRANCH  14  18
ENDBRANCH  10  11
ENDBRANCH   1  10
BRANCH   4  24
HETATM   24  C   UNL     1      41.867 -11.124   3.563  1.00  0.00     0.156 C 
BRANCH  24  25
HETATM   25  N   UNL     1      42.525 -11.346   4.845  1.00  0.00    -0.355 N 
HETATM   26  C   UNL     1      43.892 -11.266   5.024  1.00  0.00     0.251 C 
HETATM   27  O   UNL     1      44.668 -11.374   4.078  1.00  0.00    -0.268 OA
HETATM   28  H   UNL     1      41.958 -11.117   5.655  1.00  0.00     0.162 HD
BRANCH  26  29
HETATM   29  C   UNL     1      44.400 -10.947   6.387  1.00  0.00     0.034 A 
HETATM   30  C   UNL     1      43.443 -10.642   7.368  1.00  0.00     0.056 A 
HETATM   31  C   UNL     1      43.881 -10.431   8.658  1.00  0.00     0.106 A 
HETATM   32  C   UNL     1      45.211 -10.500   8.990  1.00  0.00     0.105 A 
HETATM   33  O   UNL     1      43.090 -10.157   9.727  1.00  0.00    -0.323 OA
HETATM   34  O   UNL     1      45.425 -10.279  10.313  1.00  0.00    -0.323 OA
HETATM   35  C   UNL     1      46.180 -10.770   8.049  1.00  0.00     0.041 A 
HETATM   36  C   UNL     1      44.076 -10.049  10.778  1.00  0.00     0.352 A 
HETATM   37  C   UNL     1      45.770 -10.991   6.727  1.00  0.00     0.020 A 
ENDBRANCH  26  29
ENDBRANCH  24  25
ENDBRANCH   4  24
TORSDOF 6
ENDMDL
MODEL 3
REMARK VINA RESULT:      -9.2      2.736      7.637
REMARK  6 active torsions:
REMARK  status: ('A' for Active; 'I' for Inactive)
REMARK    1  A    between atoms: C_4  and  N_5 
REMARK    2  A    between atoms: N_8  and  C_10 
REMARK    3  A    between atoms: C_10  and  C_11 
REMARK    4  A    between atoms: C_14  and  C_15 
REMARK    5  A    between atoms: C_15  and  N_16 
REMARK       I    between atoms: N_16  and  C_17 
REMARK    6  A    between atoms: C_17  and  C_18 
ROOT
HETATM    1  C   UNL     1      39.206 -13.265   1.370  1.00  0.00     0.041 C 
HETATM    2  C   UNL     1      39.243 -12.137   0.302  1.00  0.00    -0.004 C 
HETATM    3  C   UNL     1      40.616 -11.424   0.314  1.00  0.00     0.040 C 
HETATM    4  C   UNL     1      40.902 -10.790   1.697  1.00  0.00     0.206 C 
HETATM    5  N   UNL     1      39.704 -11.142   2.570  1.00  0.00    -0.065 N 
HETATM    6  H   UNL     1      39.914 -10.769   3.526  1.00  0.00     0.280 HD
HETATM    7  C   UNL     1      39.467 -12.619   2.754  1.00  0.00     0.242 C 
HETATM    8  C   UNL     1      38.168 -11.082   0.674  1.00  0.00     0.032 C 
HETATM    9  C   UNL     1      38.457 -10.468   2.048  1.00  0.00     0.236 C 
ENDROOT
BRANCH   1  10
HETATM   10  C   UNL     1      40.176 -14.455   1.198  1.00  0.00     0.241 C 
BRANCH  10  11
HETATM   11  N   UNL     1      41.072 -14.716   2.388  1.00  0.00    -0.068 N 
HETATM   12  C   UNL     1      40.610 -15.890   3.279  1.00  0.00     0.254 C 
HETATM   13  C   UNL     1      41.605 -16.131   4.434  1.00  0.00     0.150 C 
HETATM   14  N   UNL     1      42.944 -16.413   3.888  1.00  0.00    -0.378 N 
HETATM   15  C   UNL     1      43.480 -15.316   3.066  1.00  0.00     0.150 C 
HETATM   16  C   UNL     1      42.529 -14.988   1.898  1.00  0.00     0.254 C 
HETATM   17  H   UNL     1      41.141 -13.884   2.990  1.00  0.00     0.280 HD
BRANCH  14  18
HETATM   18  C   UNL     1      43.227 -17.747   3.570  1.00  0.00     0.030 A 
HETATM   19  C   UNL     1      42.940 -18.326   2.322  1.00  0.00     0.029 A 
HETATM   20  C   UNL     1      43.219 -19.672   2.050  1.00  0.00     0.002 A 
HETATM   21  C   UNL     1      43.819 -20.473   3.014  1.00  0.00     0.000 A 
HETATM   22  C   UNL     1      44.156 -19.920   4.241  1.00  0.00     0.002 A 
HETATM   23  C   UNL     1      43.870 -18.577   4.507  1.00  0.00     0.029 A 
ENDBRANCH  14  18
ENDBRANCH  10  11
ENDBRANCH   1  10
BRANCH   4  24
HETATM   24  C   UNL     1      42.267 -11.257   2.273  1.00  0.00     0.156 C 
BRANCH  24  25
HETATM   25  N   UNL     1      42.647 -10.819   3.611  1.00  0.00    -0.355 N 
HETATM   26  C   UNL     1      42.634 -11.645   4.717  1.00  0.00     0.251 C 
HETATM   27  O   UNL     1      41.963 -12.675   4.738  1.00  0.00    -0.268 OA
HETATM   28  H   UNL     1      43.325 -10.063   3.631  1.00  0.00     0.162 HD
BRANCH  26  29
HETATM   29  C   UNL     1      43.535 -11.305   5.853  1.00  0.00     0.034 A 
HETATM   30  C   UNL     1      42.928 -10.828   7.026  1.00  0.00     0.056 A 
HETATM   31  C   UNL     1      43.731 -10.592   8.121  1.00  0.00     0.106 A 
HETATM   32  C   UNL     1      45.088 -10.799   8.081  1.00  0.00     0.105 A 
HETATM   33  O   UNL     1      43.304 -10.160   9.336  1.00  0.00    -0.323 OA
HETATM   34  O   UNL     1      45.686 -10.524   9.269  1.00  0.00    -0.323 OA
HETATM   35  C   UNL     1      45.720 -11.241   6.941  1.00  0.00     0.041 A 
HETATM   36  C   UNL     1      44.553 -10.106  10.061  1.00  0.00     0.352 A 
HETATM   37  C   UNL     1      44.935 -11.492   5.808  1.00  0.00     0.020 A 
ENDBRANCH  26  29
ENDBRANCH  24  25
ENDBRANCH   4  24
TORSDOF 6
ENDMDL
MODEL 4
REMARK VINA RESULT:      -9.1      2.986      7.620
REMARK  6 active torsions:
REMARK  status: ('A' for Active; 'I' for Inactive)
REMARK    1  A    between atoms: C_4  and  N_5 
REMARK    2  A    between atoms: N_8  and  C_10 
REMARK    3  A    between atoms: C_10  and  C_11 
REMARK    4  A    between atoms: C_14  and  C_15 
REMARK    5  A    between atoms: C_15  and  N_16 
REMARK       I    between atoms: N_16  and  C_17 
REMARK    6  A    between atoms: C_17  and  C_18 
ROOT
HETATM    1  C   UNL     1      41.706 -10.688   6.088  1.00  0.00     0.041 C 
HETATM    2  C   UNL     1      40.454 -11.578   6.319  1.00  0.00    -0.004 C 
HETATM    3  C   UNL     1      40.674 -12.989   5.725  1.00  0.00     0.040 C 
HETATM    4  C   UNL     1      40.942 -12.917   4.202  1.00  0.00     0.206 C 
HETATM    5  N   UNL     1      40.922 -11.435   3.848  1.00  0.00    -0.065 N 
HETATM    6  H   UNL     1      41.162 -11.371   2.831  1.00  0.00     0.280 HD
HETATM    7  C   UNL     1      41.953 -10.599   4.561  1.00  0.00     0.242 C 
HETATM    8  C   UNL     1      39.259 -10.937   5.564  1.00  0.00     0.032 C 
HETATM    9  C   UNL     1      39.540 -10.863   4.060  1.00  0.00     0.236 C 
ENDROOT
BRANCH   1  10
HETATM   10  C   UNL     1      43.027 -11.110   6.771  1.00  0.00     0.241 C 
BRANCH  10  11
HETATM   11  N   UNL     1      43.697 -10.020   7.578  1.00  0.00    -0.068 N 
HETATM   12  C   UNL     1      42.718  -8.982   8.171  1.00  0.00     0.254 C 
HETATM   13  C   UNL     1      43.469  -7.941   9.026  1.00  0.00     0.150 C 
HETATM   14  N   UNL     1      44.198  -8.621  10.112  1.00  0.00    -0.378 N 
HETATM   15  C   UNL     1      45.191  -9.592   9.627  1.00  0.00     0.150 C 
HETATM   16  C   UNL     1      44.528 -10.659   8.734  1.00  0.00     0.254 C 
HETATM   17  H   UNL     1      44.381  -9.503   7.007  1.00  0.00     0.280 HD
BRANCH  14  18
HETATM   18  C   UNL     1      43.489  -8.856  11.296  1.00  0.00     0.030 A 
HETATM   19  C   UNL     1      42.784 -10.044  11.557  1.00  0.00     0.029 A 
HETATM   20  C   UNL     1      42.067 -10.232  12.747  1.00  0.00     0.002 A 
HETATM   21  C   UNL     1      42.057  -9.244  13.723  1.00  0.00     0.000 A 
HETATM   22  C   UNL     1      42.779  -8.079  13.517  1.00  0.00     0.002 A 
HETATM   23  C   UNL     1      43.488  -7.895  12.324  1.00  0.00     0.029 A 
ENDBRANCH  14  18
ENDBRANCH  10  11
ENDBRANCH   1  10
BRANCH   4  24
HETATM   24  C   UNL     1      42.260 -13.644   3.814  1.00  0.00     0.156 C 
BRANCH  24  25
HETATM   25  N   UNL     1      42.218 -15.082   3.575  1.00  0.00    -0.355 N 
HETATM   26  C   UNL     1      43.043 -15.730   2.676  1.00  0.00     0.251 C 
HETATM   27  O   UNL     1      43.594 -15.121   1.761  1.00  0.00    -0.268 OA
HETATM   28  H   UNL     1      41.911 -15.633   4.370  1.00  0.00     0.162 HD
BRANCH  26  29
HETATM   29  C   UNL     1      43.325 -17.174   2.903  1.00  0.00     0.034 A 
HETATM   30  C   UNL     1      43.647 -17.562   4.213  1.00  0.00     0.056 A 
HETATM   31  C   UNL     1      43.825 -18.905   4.466  1.00  0.00     0.106 A 
HETATM   32  C   UNL     1      43.706 -19.849   3.477  1.00  0.00     0.105 A 
HETATM   33  O   UNL     1      44.110 -19.451   5.677  1.00  0.00    -0.323 OA
HETATM   34  O   UNL     1      43.901 -21.111   3.941  1.00  0.00    -0.323 OA
HETATM   35  C   UNL     1      43.417 -19.503   2.175  1.00  0.00     0.041 A 
HETATM   36  C   UNL     1      44.170 -20.854   5.337  1.00  0.00     0.352 A 
HETATM   37  C   UNL     1      43.230 -18.146   1.881  1.00  0.00     0.020 A 
ENDBRANCH  26  29
ENDBRANCH  24  25
ENDBRANCH   4  24
TORSDOF 6
ENDMDL
MODEL 5
REMARK VINA RESULT:      -8.9      3.954      8.571
REMARK  6 active torsions:
REMARK  status: ('A' for Active; 'I' for Inactive)
REMARK    1  A    between atoms: C_4  and  N_5 
REMARK    2  A    between atoms: N_8  and  C_10 
REMARK    3  A    between atoms: C_10  and  C_11 
REMARK    4  A    between atoms: C_14  and  C_15 
REMARK    5  A    between atoms: C_15  and  N_16 
REMARK       I    between atoms: N_16  and  C_17 
REMARK    6  A    between atoms: C_17  and  C_18 
ROOT
HETATM    1  C   UNL     1      40.942 -12.189   4.548  1.00  0.00     0.041 C 
HETATM    2  C   UNL     1      41.933 -11.349   3.694  1.00  0.00    -0.004 C 
HETATM    3  C   UNL     1      43.314 -11.271   4.386  1.00  0.00     0.040 C 
HETATM    4  C   UNL     1      43.201 -10.613   5.783  1.00  0.00     0.206 C 
HETATM    5  N   UNL     1      41.721 -10.308   5.978  1.00  0.00    -0.065 N 
HETATM    6  H   UNL     1      41.625  -9.917   6.945  1.00  0.00     0.280 HD
HETATM    7  C   UNL     1      40.815 -11.510   5.934  1.00  0.00     0.242 C 
HETATM    8  C   UNL     1      41.380  -9.902   3.595  1.00  0.00     0.032 C 
HETATM    9  C   UNL     1      41.264  -9.266   4.984  1.00  0.00     0.236 C 
ENDROOT
BRANCH   1  10
HETATM   10  C   UNL     1      41.266 -13.684   4.766  1.00  0.00     0.241 C 
BRANCH  10  11
HETATM   11  N   UNL     1      41.632 -14.441   3.508  1.00  0.00    -0.068 N 
HETATM   12  C   UNL     1      43.124 -14.829   3.417  1.00  0.00     0.254 C 
HETATM   13  C   UNL     1      43.405 -15.646   2.139  1.00  0.00     0.150 C 
HETATM   14  N   UNL     1      42.570 -16.861   2.131  1.00  0.00    -0.378 N 
HETATM   15  C   UNL     1      41.127 -16.575   2.164  1.00  0.00     0.150 C 
HETATM   16  C   UNL     1      40.760 -15.731   3.401  1.00  0.00     0.254 C 
HETATM   17  H   UNL     1      41.407 -13.892   2.667  1.00  0.00     0.280 HD
BRANCH  14  18
HETATM   18  C   UNL     1      43.089 -17.987   2.782  1.00  0.00     0.030 A 
HETATM   19  C   UNL     1      43.591 -17.963   4.094  1.00  0.00     0.029 A 
HETATM   20  C   UNL     1      44.123 -19.108   4.703  1.00  0.00     0.002 A 
HETATM   21  C   UNL     1      44.144 -20.319   4.022  1.00  0.00     0.000 A 
HETATM   22  C   UNL     1      43.615 -20.387   2.742  1.00  0.00     0.002 A 
HETATM   23  C   UNL     1      43.090 -19.238   2.139  1.00  0.00     0.029 A 
ENDBRANCH  14  18
ENDBRANCH  10  11
ENDBRANCH   1  10
BRANCH   4  24
HETATM   24  C   UNL     1      43.816 -11.510   6.893  1.00  0.00     0.156 C 
BRANCH  24  25
HETATM   25  N   UNL     1      43.470 -11.235   8.282  1.00  0.00    -0.355 N 
HETATM   26  C   UNL     1      44.364 -10.727   9.205  1.00  0.00     0.251 C 
HETATM   27  O   UNL     1      45.578 -10.822   9.037  1.00  0.00    -0.268 OA
HETATM   28  H   UNL     1      42.495 -10.999   8.436  1.00  0.00     0.162 HD
BRANCH  26  29
HETATM   29  C   UNL     1      43.817  -9.973  10.366  1.00  0.00     0.034 A 
HETATM   30  C   UNL     1      43.569  -8.604  10.177  1.00  0.00     0.056 A 
HETATM   31  C   UNL     1      42.979  -7.904  11.207  1.00  0.00     0.106 A 
HETATM   32  C   UNL     1      42.647  -8.507  12.395  1.00  0.00     0.105 A 
HETATM   33  O   UNL     1      42.646  -6.588  11.179  1.00  0.00    -0.323 OA
HETATM   34  O   UNL     1      42.061  -7.645  13.265  1.00  0.00    -0.323 OA
HETATM   35  C   UNL     1      42.900  -9.841  12.626  1.00  0.00     0.041 A 
HETATM   36  C   UNL     1      42.072  -6.422  12.496  1.00  0.00     0.352 A 
HETATM   37  C   UNL     1      43.499 -10.585  11.599  1.00  0.00     0.020 A 
ENDBRANCH  26  29
ENDBRANCH  24  25
ENDBRANCH   4  24
TORSDOF 6
ENDMDL
MODEL 6
REMARK VINA RESULT:      -8.8      1.678      2.750
REMARK  6 active torsions:
REMARK  status: ('A' for Active; 'I' for Inactive)
REMARK    1  A    between atoms: C_4  and  N_5 
REMARK    2  A    between atoms: N_8  and  C_10 
REMARK    3  A    between atoms: C_10  and  C_11 
REMARK    4  A    between atoms: C_14  and  C_15 
REMARK    5  A    between atoms: C_15  and  N_16 
REMARK       I    between atoms: N_16  and  C_17 
REMARK    6  A    between atoms: C_17  and  C_18 
ROOT
HETATM    1  C   UNL     1      39.940 -10.935   4.516  1.00  0.00     0.041 C 
HETATM    2  C   UNL     1      41.438 -10.526   4.456  1.00  0.00    -0.004 C 
HETATM    3  C   UNL     1      42.344 -11.727   4.815  1.00  0.00     0.040 C 
HETATM    4  C   UNL     1      42.041 -12.246   6.242  1.00  0.00     0.206 C 
HETATM    5  N   UNL     1      40.906 -11.376   6.767  1.00  0.00    -0.065 N 
HETATM    6  H   UNL     1      40.653 -11.756   7.709  1.00  0.00     0.280 HD
HETATM    7  C   UNL     1      39.639 -11.428   5.953  1.00  0.00     0.242 C 
HETATM    8  C   UNL     1      41.683  -9.425   5.521  1.00  0.00     0.032 C 
HETATM    9  C   UNL     1      41.372  -9.947   6.928  1.00  0.00     0.236 C 
ENDROOT
BRANCH   1  10
HETATM   10  C   UNL     1      39.444 -12.007   3.520  1.00  0.00     0.241 C 
BRANCH  10  11
HETATM   11  N   UNL     1      40.304 -12.168   2.286  1.00  0.00    -0.068 N 
HETATM   12  C   UNL     1      40.273 -13.587   1.677  1.00  0.00     0.254 C 
HETATM   13  C   UNL     1      41.125 -13.655   0.392  1.00  0.00     0.150 C 
HETATM   14  N   UNL     1      40.625 -12.676  -0.590  1.00  0.00    -0.378 N 
HETATM   15  C   UNL     1      40.671 -11.289  -0.103  1.00  0.00     0.150 C 
HETATM   16  C   UNL     1      39.864 -11.135   1.202  1.00  0.00     0.254 C 
HETATM   17  H   UNL     1      41.288 -11.944   2.489  1.00  0.00     0.280 HD
BRANCH  14  18
HETATM   18  C   UNL     1      39.593 -13.103  -1.435  1.00  0.00     0.030 A 
HETATM   19  C   UNL     1      38.449 -12.335  -1.713  1.00  0.00     0.029 A 
HETATM   20  C   UNL     1      37.427 -12.807  -2.548  1.00  0.00     0.002 A 
HETATM   21  C   UNL     1      37.533 -14.054  -3.151  1.00  0.00     0.000 A 
HETATM   22  C   UNL     1      38.670 -14.818  -2.933  1.00  0.00     0.002 A 
HETATM   23  C   UNL     1      39.684 -14.343  -2.094  1.00  0.00     0.029 A 
ENDBRANCH  14  18
ENDBRANCH  10  11
ENDBRANCH   1  10
BRANCH   4  24
HETATM   24  C   UNL     1      41.728 -13.768   6.247  1.00  0.00     0.156 C 
BRANCH  24  25
HETATM   25  N   UNL     1      42.287 -14.599   5.187  1.00  0.00    -0.355 N 
HETATM   26  C   UNL     1      43.337 -15.476   5.379  1.00  0.00     0.251 C 
HETATM   27  O   UNL     1      44.107 -15.352   6.329  1.00  0.00    -0.268 OA
HETATM   28  H   UNL     1      41.629 -14.851   4.457  1.00  0.00     0.162 HD
BRANCH  26  29
HETATM   29  C   UNL     1      43.455 -16.637   4.455  1.00  0.00     0.034 A 
HETATM   30  C   UNL     1      43.851 -17.861   5.017  1.00  0.00     0.056 A 
HETATM   31  C   UNL     1      43.881 -18.970   4.200  1.00  0.00     0.106 A 
HETATM   32  C   UNL     1      43.548 -18.898   2.870  1.00  0.00     0.105 A 
HETATM   33  O   UNL     1      44.210 -20.230   4.587  1.00  0.00    -0.323 OA
HETATM   34  O   UNL     1      43.626 -20.105   2.252  1.00  0.00    -0.323 OA
HETATM   35  C   UNL     1      43.181 -17.710   2.278  1.00  0.00     0.041 A 
HETATM   36  C   UNL     1      44.059 -20.948   3.342  1.00  0.00     0.352 A 
HETATM   37  C   UNL     1      43.139 -16.561   3.079  1.00  0.00     0.020 A 
ENDBRANCH  26  29
ENDBRANCH  24  25
ENDBRANCH   4  24
TORSDOF 6
ENDMDL
MODEL 7
REMARK VINA RESULT:      -8.8      1.580      2.439
REMARK  6 active torsions:
REMARK  status: ('A' for Active; 'I' for Inactive)
REMARK    1  A    between atoms: C_4  and  N_5 
REMARK    2  A    between atoms: N_8  and  C_10 
REMARK    3  A    between atoms: C_10  and  C_11 
REMARK    4  A    between atoms: C_14  and  C_15 
REMARK    5  A    between atoms: C_15  and  N_16 
REMARK       I    between atoms: N_16  and  C_17 
REMARK    6  A    between atoms: C_17  and  C_18 
ROOT
HETATM    1  C   UNL     1      40.678 -12.388   3.998  1.00  0.00     0.041 C 
HETATM    2  C   UNL     1      42.184 -12.035   3.858  1.00  0.00    -0.004 C 
HETATM    3  C   UNL     1      43.060 -13.101   4.558  1.00  0.00     0.040 C 
HETATM    4  C   UNL     1      42.723 -13.196   6.066  1.00  0.00     0.206 C 
HETATM    5  N   UNL     1      41.597 -12.196   6.302  1.00  0.00    -0.065 N 
HETATM    6  H   UNL     1      41.321 -12.294   7.307  1.00  0.00     0.280 HD
HETATM    7  C   UNL     1      40.343 -12.455   5.509  1.00  0.00     0.242 C 
HETATM    8  C   UNL     1      42.434 -10.683   4.579  1.00  0.00     0.032 C 
HETATM    9  C   UNL     1      42.089 -10.787   6.068  1.00  0.00     0.236 C 
ENDROOT
BRANCH   1  10
HETATM   10  C   UNL     1      40.177 -13.689   3.330  1.00  0.00     0.241 C 
BRANCH  10  11
HETATM   11  N   UNL     1      39.510 -13.493   1.987  1.00  0.00    -0.068 N 
HETATM   12  C   UNL     1      38.944 -12.073   1.766  1.00  0.00     0.254 C 
HETATM   13  C   UNL     1      38.335 -11.935   0.354  1.00  0.00     0.150 C 
HETATM   14  N   UNL     1      39.361 -12.230  -0.662  1.00  0.00    -0.378 N 
HETATM   15  C   UNL     1      39.916 -13.587  -0.551  1.00  0.00     0.150 C 
HETATM   16  C   UNL     1      40.524 -13.823   0.846  1.00  0.00     0.254 C 
HETATM   17  H   UNL     1      38.733 -14.155   1.859  1.00  0.00     0.280 HD
BRANCH  14  18
HETATM   18  C   UNL     1      40.167 -11.160  -1.072  1.00  0.00     0.030 A 
HETATM   19  C   UNL     1      40.222 -10.691  -2.396  1.00  0.00     0.029 A 
HETATM   20  C   UNL     1      41.058  -9.631  -2.770  1.00  0.00     0.002 A 
HETATM   21  C   UNL     1      41.847  -8.991  -1.822  1.00  0.00     0.000 A 
HETATM   22  C   UNL     1      41.782  -9.400  -0.498  1.00  0.00     0.002 A 
HETATM   23  C   UNL     1      40.949 -10.462  -0.133  1.00  0.00     0.029 A 
ENDBRANCH  14  18
ENDBRANCH  10  11
ENDBRANCH   1  10
BRANCH   4  24
HETATM   24  C   UNL     1      42.379 -14.651   6.489  1.00  0.00     0.156 C 
BRANCH  24  25
HETATM   25  N   UNL     1      42.989 -15.753   5.757  1.00  0.00    -0.355 N 
HETATM   26  C   UNL     1      43.494 -16.886   6.364  1.00  0.00     0.251 C 
HETATM   27  O   UNL     1      43.805 -16.889   7.553  1.00  0.00    -0.268 OA
HETATM   28  H   UNL     1      42.640 -15.876   4.812  1.00  0.00     0.162 HD
BRANCH  26  29
HETATM   29  C   UNL     1      43.562 -18.138   5.561  1.00  0.00     0.034 A 
HETATM   30  C   UNL     1      43.523 -18.001   4.164  1.00  0.00     0.056 A 
HETATM   31  C   UNL     1      43.675 -19.137   3.397  1.00  0.00     0.106 A 
HETATM   32  C   UNL     1      43.846 -20.375   3.964  1.00  0.00     0.105 A 
HETATM   33  O   UNL     1      43.692 -19.178   2.040  1.00  0.00    -0.323 OA
HETATM   34  O   UNL     1      43.995 -21.353   3.033  1.00  0.00    -0.323 OA
HETATM   35  C   UNL     1      43.863 -20.550   5.330  1.00  0.00     0.041 A 
HETATM   36  C   UNL     1      43.883 -20.592   1.811  1.00  0.00     0.352 A 
HETATM   37  C   UNL     1      43.712 -19.417   6.141  1.00  0.00     0.020 A 
ENDBRANCH  26  29
ENDBRANCH  24  25
ENDBRANCH   4  24
TORSDOF 6
ENDMDL
MODEL 8
REMARK VINA RESULT:      -8.7      3.175      7.587
REMARK  6 active torsions:
REMARK  status: ('A' for Active; 'I' for Inactive)
REMARK    1  A    between atoms: C_4  and  N_5 
REMARK    2  A    between atoms: N_8  and  C_10 
REMARK    3  A    between atoms: C_10  and  C_11 
REMARK    4  A    between atoms: C_14  and  C_15 
REMARK    5  A    between atoms: C_15  and  N_16 
REMARK       I    between atoms: N_16  and  C_17 
REMARK    6  A    between atoms: C_17  and  C_18 
ROOT
HETATM    1  C   UNL     1      41.273 -12.783   6.018  1.00  0.00     0.041 C 
HETATM    2  C   UNL     1      39.882 -12.117   5.828  1.00  0.00    -0.004 C 
HETATM    3  C   UNL     1      39.762 -11.505   4.412  1.00  0.00     0.040 C 
HETATM    4  C   UNL     1      40.849 -10.429   4.175  1.00  0.00     0.206 C 
HETATM    5  N   UNL     1      41.681 -10.394   5.452  1.00  0.00    -0.065 N 
HETATM    6  H   UNL     1      42.456  -9.711   5.281  1.00  0.00     0.280 HD
HETATM    7  C   UNL     1      42.354 -11.694   5.806  1.00  0.00     0.242 C 
HETATM    8  C   UNL     1      39.758 -10.954   6.848  1.00  0.00     0.032 C 
HETATM    9  C   UNL     1      40.844  -9.900   6.610  1.00  0.00     0.236 C 
ENDROOT
BRANCH   1  10
HETATM   10  C   UNL     1      41.621 -13.995   5.125  1.00  0.00     0.241 C 
BRANCH  10  11
HETATM   11  N   UNL     1      42.440 -15.067   5.808  1.00  0.00    -0.068 N 
HETATM   12  C   UNL     1      41.715 -16.424   5.944  1.00  0.00     0.254 C 
HETATM   13  C   UNL     1      42.635 -17.478   6.595  1.00  0.00     0.150 C 
HETATM   14  N   UNL     1      43.856 -17.641   5.786  1.00  0.00    -0.378 N 
HETATM   15  C   UNL     1      44.634 -16.401   5.652  1.00  0.00     0.150 C 
HETATM   16  C   UNL     1      43.779 -15.277   5.032  1.00  0.00     0.254 C 
HETATM   17  H   UNL     1      42.720 -14.773   6.754  1.00  0.00     0.280 HD
BRANCH  14  18
HETATM   18  C   UNL     1      43.797 -18.565   4.735  1.00  0.00     0.030 A 
HETATM   19  C   UNL     1      43.589 -18.202   3.393  1.00  0.00     0.029 A 
HETATM   20  C   UNL     1      43.515 -19.160   2.372  1.00  0.00     0.002 A 
HETATM   21  C   UNL     1      43.673 -20.509   2.663  1.00  0.00     0.000 A 
HETATM   22  C   UNL     1      43.924 -20.897   3.971  1.00  0.00     0.002 A 
HETATM   23  C   UNL     1      43.992 -19.936   4.986  1.00  0.00     0.029 A 
ENDBRANCH  14  18
ENDBRANCH  10  11
ENDBRANCH   1  10
BRANCH   4  24
HETATM   24  C   UNL     1      41.673 -10.716   2.889  1.00  0.00     0.156 C 
BRANCH  24  25
HETATM   25  N   UNL     1      40.962 -11.103   1.677  1.00  0.00    -0.355 N 
HETATM   26  C   UNL     1      41.362 -10.735   0.408  1.00  0.00     0.251 C 
HETATM   27  O   UNL     1      42.102  -9.770   0.225  1.00  0.00    -0.268 OA
HETATM   28  H   UNL     1      40.461 -11.983   1.745  1.00  0.00     0.162 HD
BRANCH  26  29
HETATM   29  C   UNL     1      40.949 -11.599  -0.733  1.00  0.00     0.034 A 
HETATM   30  C   UNL     1      40.252 -12.776  -0.420  1.00  0.00     0.056 A 
HETATM   31  C   UNL     1      39.781 -13.547  -1.461  1.00  0.00     0.106 A 
HETATM   32  C   UNL     1      39.989 -13.196  -2.772  1.00  0.00     0.105 A 
HETATM   33  O   UNL     1      39.065 -14.694  -1.335  1.00  0.00    -0.323 OA
HETATM   34  O   UNL     1      39.428 -14.080  -3.637  1.00  0.00    -0.323 OA
HETATM   35  C   UNL     1      40.692 -12.063  -3.116  1.00  0.00     0.041 A 
HETATM   36  C   UNL     1      38.852 -15.038  -2.722  1.00  0.00     0.352 A 
HETATM   37  C   UNL     1      41.185 -11.255  -2.083  1.00  0.00     0.020 A 
ENDBRANCH  26  29
ENDBRANCH  24  25
ENDBRANCH   4  24
TORSDOF 6
ENDMDL
MODEL 9
REMARK VINA RESULT:      -8.7      3.296      7.111
REMARK  6 active torsions:
REMARK  status: ('A' for Active; 'I' for Inactive)
REMARK    1  A    between atoms: C_4  and  N_5 
REMARK    2  A    between atoms: N_8  and  C_10 
REMARK    3  A    between atoms: C_10  and  C_11 
REMARK    4  A    between atoms: C_14  and  C_15 
REMARK    5  A    between atoms: C_15  and  N_16 
REMARK       I    between atoms: N_16  and  C_17 
REMARK    6  A    between atoms: C_17  and  C_18 
ROOT
HETATM    1  C   UNL     1      41.711 -15.299   1.254  1.00  0.00     0.041 C 
HETATM    2  C   UNL     1      41.094 -16.260   2.307  1.00  0.00    -0.004 C 
HETATM    3  C   UNL     1      40.955 -15.551   3.674  1.00  0.00     0.040 C 
HETATM    4  C   UNL     1      42.333 -15.079   4.199  1.00  0.00     0.206 C 
HETATM    5  N   UNL     1      43.341 -15.471   3.126  1.00  0.00    -0.065 N 
HETATM    6  H   UNL     1      44.269 -15.104   3.444  1.00  0.00     0.280 HD
HETATM    7  C   UNL     1      43.100 -14.852   1.774  1.00  0.00     0.242 C 
HETATM    8  C   UNL     1      42.065 -17.455   2.500  1.00  0.00     0.032 C 
HETATM    9  C   UNL     1      43.427 -16.975   3.011  1.00  0.00     0.236 C 
ENDROOT
BRANCH   1  10
HETATM   10  C   UNL     1      40.907 -14.037   0.869  1.00  0.00     0.241 C 
BRANCH  10  11
HETATM   11  N   UNL     1      40.831 -13.765  -0.617  1.00  0.00    -0.068 N 
HETATM   12  C   UNL     1      39.471 -14.126  -1.255  1.00  0.00     0.254 C 
HETATM   13  C   UNL     1      39.453 -13.765  -2.755  1.00  0.00     0.150 C 
HETATM   14  N   UNL     1      39.721 -12.326  -2.926  1.00  0.00    -0.378 N 
HETATM   15  C   UNL     1      41.026 -11.910  -2.388  1.00  0.00     0.150 C 
HETATM   16  C   UNL     1      41.143 -12.260  -0.891  1.00  0.00     0.254 C 
HETATM   17  H   UNL     1      41.556 -14.288  -1.126  1.00  0.00     0.280 HD
BRANCH  14  18
HETATM   18  C   UNL     1      38.616 -11.468  -2.863  1.00  0.00     0.030 A 
HETATM   19  C   UNL     1      37.293 -11.915  -2.709  1.00  0.00     0.029 A 
HETATM   20  C   UNL     1      36.212 -11.024  -2.672  1.00  0.00     0.002 A 
HETATM   21  C   UNL     1      36.427  -9.655  -2.763  1.00  0.00     0.000 A 
HETATM   22  C   UNL     1      37.725  -9.178  -2.871  1.00  0.00     0.002 A 
HETATM   23  C   UNL     1      38.800 -10.074  -2.912  1.00  0.00     0.029 A 
ENDBRANCH  14  18
ENDBRANCH  10  11
ENDBRANCH   1  10
BRANCH   4  24
HETATM   24  C   UNL     1      42.330 -13.564   4.544  1.00  0.00     0.156 C 
BRANCH  24  25
HETATM   25  N   UNL     1      43.303 -13.066   5.509  1.00  0.00    -0.355 N 
HETATM   26  C   UNL     1      43.987 -11.876   5.358  1.00  0.00     0.251 C 
HETATM   27  O   UNL     1      44.112 -11.346   4.255  1.00  0.00    -0.268 OA
HETATM   28  H   UNL     1      43.138 -13.363   6.465  1.00  0.00     0.162 HD
BRANCH  26  29
HETATM   29  C   UNL     1      44.490 -11.199   6.584  1.00  0.00     0.034 A 
HETATM   30  C   UNL     1      43.553 -10.934   7.595  1.00  0.00     0.056 A 
HETATM   31  C   UNL     1      44.010 -10.390   8.776  1.00  0.00     0.106 A 
HETATM   32  C   UNL     1      45.337 -10.097   8.973  1.00  0.00     0.105 A 
HETATM   33  O   UNL     1      43.246 -10.101   9.862  1.00  0.00    -0.323 OA
HETATM   34  O   UNL     1      45.575  -9.587  10.208  1.00  0.00    -0.323 OA
HETATM   35  C   UNL     1      46.280 -10.319   7.994  1.00  0.00     0.041 A 
HETATM   36  C   UNL     1      44.243  -9.578  10.768  1.00  0.00     0.352 A 
HETATM   37  C   UNL     1      45.851 -10.871   6.780  1.00  0.00     0.020 A 
ENDBRANCH  26  29
ENDBRANCH  24  25
ENDBRANCH   4  24
TORSDOF 6
ENDMDL
MODEL 10
REMARK VINA RESULT:      -8.7      3.261      8.658
REMARK  6 active torsions:
REMARK  status: ('A' for Active; 'I' for Inactive)
REMARK    1  A    between atoms: C_4  and  N_5 
REMARK    2  A    between atoms: N_8  and  C_10 
REMARK    3  A    between atoms: C_10  and  C_11 
REMARK    4  A    between atoms: C_14  and  C_15 
REMARK    5  A    between atoms: C_15  and  N_16 
REMARK       I    between atoms: N_16  and  C_17 
REMARK    6  A    between atoms: C_17  and  C_18 
ROOT
HETATM    1  C   UNL     1      39.738 -13.980  -0.885  1.00  0.00     0.041 C 
HETATM    2  C   UNL     1      40.002 -14.128  -2.409  1.00  0.00    -0.004 C 
HETATM    3  C   UNL     1      40.363 -12.760  -3.033  1.00  0.00     0.040 C 
HETATM    4  C   UNL     1      39.217 -11.738  -2.838  1.00  0.00     0.206 C 
HETATM    5  N   UNL     1      38.138 -12.472  -2.050  1.00  0.00    -0.065 N 
HETATM    6  H   UNL     1      37.382 -11.773  -1.861  1.00  0.00     0.280 HD
HETATM    7  C   UNL     1      38.573 -12.977  -0.699  1.00  0.00     0.242 C 
HETATM    8  C   UNL     1      38.691 -14.614  -3.082  1.00  0.00     0.032 C 
HETATM    9  C   UNL     1      37.562 -13.600  -2.875  1.00  0.00     0.236 C 
ENDROOT
BRANCH   1  10
HETATM   10  C   UNL     1      40.915 -13.531   0.011  1.00  0.00     0.241 C 
BRANCH  10  11
HETATM   11  N   UNL     1      40.816 -13.976   1.453  1.00  0.00    -0.068 N 
HETATM   12  C   UNL     1      40.283 -15.415   1.633  1.00  0.00     0.254 C 
HETATM   13  C   UNL     1      40.268 -15.814   3.124  1.00  0.00     0.150 C 
HETATM   14  N   UNL     1      41.628 -15.710   3.681  1.00  0.00    -0.378 N 
HETATM   15  C   UNL     1      42.190 -14.353   3.595  1.00  0.00     0.150 C 
HETATM   16  C   UNL     1      42.216 -13.859   2.134  1.00  0.00     0.254 C 
HETATM   17  H   UNL     1      40.200 -13.352   1.992  1.00  0.00     0.280 HD
BRANCH  14  18
HETATM   18  C   UNL     1      42.452 -16.834   3.546  1.00  0.00     0.030 A 
HETATM   19  C   UNL     1      43.390 -17.231   4.515  1.00  0.00     0.029 A 
HETATM   20  C   UNL     1      44.212 -18.351   4.332  1.00  0.00     0.002 A 
HETATM   21  C   UNL     1      44.101 -19.122   3.182  1.00  0.00     0.000 A 
HETATM   22  C   UNL     1      43.155 -18.784   2.226  1.00  0.00     0.002 A 
HETATM   23  C   UNL     1      42.341 -17.661   2.413  1.00  0.00     0.029 A 
ENDBRANCH  14  18
ENDBRANCH  10  11
ENDBRANCH   1  10
BRANCH   4  24
HETATM   24  C   UNL     1      39.718 -10.432  -2.162  1.00  0.00     0.156 C 
BRANCH  24  25
HETATM   25  N   UNL     1      40.333 -10.521  -0.843  1.00  0.00    -0.355 N 
HETATM   26  C   UNL     1      39.953  -9.739   0.230  1.00  0.00     0.251 C 
HETATM   27  O   UNL     1      39.352  -8.680   0.068  1.00  0.00    -0.268 OA
HETATM   28  H   UNL     1      40.707 -11.436  -0.613  1.00  0.00     0.162 HD
BRANCH  26  29
HETATM   29  C   UNL     1      40.207 -10.263   1.601  1.00  0.00     0.034 A 
HETATM   30  C   UNL     1      41.515 -10.140   2.097  1.00  0.00     0.056 A 
HETATM   31  C   UNL     1      41.755 -10.536   3.395  1.00  0.00     0.106 A 
HETATM   32  C   UNL     1      40.761 -11.048   4.191  1.00  0.00     0.105 A 
HETATM   33  O   UNL     1      42.949 -10.457   4.038  1.00  0.00    -0.323 OA
HETATM   34  O   UNL     1      41.205 -11.357   5.437  1.00  0.00    -0.323 OA
HETATM   35  C   UNL     1      39.473 -11.208   3.729  1.00  0.00     0.041 A 
HETATM   36  C   UNL     1      42.599 -10.992   5.334  1.00  0.00     0.352 A 
HETATM   37  C   UNL     1      39.193 -10.816   2.413  1.00  0.00     0.020 A 
ENDBRANCH  26  29
ENDBRANCH  24  25
ENDBRANCH   4  24
TORSDOF 6
ENDMDL
