MODEL 1
REMARK VINA RESULT:      -8.3      0.000      0.000
REMARK  4 active torsions:
REMARK  status: ('A' for Active; 'I' for Inactive)
REMARK    1  A    between atoms: O_2  and  C_3 
REMARK    2  A    between atoms: C_6  and  C_7 
REMARK       I    between atoms: C_7  and  N_8 
REMARK    3  A    between atoms: N_8  and  C_9 
REMARK    4  A    between atoms: C_14  and  C_15 
ROOT
HETATM    1  C   UNL     1      40.765 -14.173   0.915  1.00  0.00     0.259 C 
HETATM    2  N   UNL     1      42.022 -14.704   1.135  1.00  0.00    -0.320 N 
HETATM    3  O   UNL     1      39.818 -14.227   1.692  1.00  0.00    -0.267 OA
HETATM    4  H   UNL     1      42.631 -14.785   0.326  1.00  0.00     0.169 HD
ENDROOT
BRANCH   2   5
HETATM    5  C   UNL     1      42.512 -15.281   2.332  1.00  0.00     0.074 A 
HETATM    6  C   UNL     1      42.762 -14.589   3.521  1.00  0.00     0.143 A 
HETATM    7  F   UNL     1      42.655 -13.257   3.611  1.00  0.00    -0.204 F 
HETATM    8  C   UNL     1      43.232 -15.255   4.651  1.00  0.00     0.045 A 
HETATM    9  C   UNL     1      43.479 -16.628   4.606  1.00  0.00     0.017 A 
HETATM   10  C   UNL     1      43.274 -17.349   3.422  1.00  0.00     0.000 A 
HETATM   11  C   UNL     1      42.798 -16.657   2.292  1.00  0.00     0.047 A 
BRANCH  10  12
HETATM   12  C   UNL     1      43.553 -18.784   3.373  1.00  0.00     0.085 A 
HETATM   13  O   UNL     1      43.922 -19.372   4.551  1.00  0.00    -0.322 OA
HETATM   14  C   UNL     1      44.128 -20.690   4.302  1.00  0.00     0.142 A 
HETATM   15  C   UNL     1      43.900 -20.969   2.977  1.00  0.00     0.027 A 
HETATM   16  C   UNL     1      43.529 -19.741   2.376  1.00  0.00     0.040 A 
ENDBRANCH  10  12
ENDBRANCH   2   5
BRANCH   1  17
HETATM   17  C   UNL     1      40.532 -13.523  -0.409  1.00  0.00     0.073 A 
HETATM   18  C   UNL     1      39.847 -14.140  -1.458  1.00  0.00     0.165 A 
HETATM   19  C   UNL     1      39.640 -13.486  -2.681  1.00  0.00     0.107 A 
HETATM   20  F   UNL     1      39.356 -15.383  -1.302  1.00  0.00    -0.202 F 
HETATM   21  C   UNL     1      40.144 -12.196  -2.857  1.00  0.00     0.040 A 
HETATM   22  C   UNL     1      40.832 -11.565  -1.819  1.00  0.00     0.004 A 
HETATM   23  C   UNL     1      41.022 -12.221  -0.603  1.00  0.00     0.020 A 
BRANCH  19  24
HETATM   24  O   UNL     1      38.946 -14.200  -3.623  1.00  0.00    -0.353 OA
HETATM   25  C   UNL     1      37.527 -14.178  -3.535  1.00  0.00     0.210 C 
ENDBRANCH  19  24
ENDBRANCH   1  17
TORSDOF 4
ENDMDL
MODEL 2
REMARK VINA RESULT:      -8.2      4.528      7.913
REMARK  4 active torsions:
REMARK  status: ('A' for Active; 'I' for Inactive)
REMARK    1  A    between atoms: O_2  and  C_3 
REMARK    2  A    between atoms: C_6  and  C_7 
REMARK       I    between atoms: C_7  and  N_8 
REMARK    3  A    between atoms: N_8  and  C_9 
REMARK    4  A    between atoms: C_14  and  C_15 
ROOT
HETATM    1  C   UNL     1      43.097 -15.664   3.568  1.00  0.00     0.259 C 
HETATM    2  N   UNL     1      42.491 -15.291   4.753  1.00  0.00    -0.320 N 
HETATM    3  O   UNL     1      43.440 -14.905   2.668  1.00  0.00    -0.267 OA
HETATM    4  H   UNL     1      42.061 -16.031   5.299  1.00  0.00     0.169 HD
ENDROOT
BRANCH   2   5
HETATM    5  C   UNL     1      42.277 -13.974   5.229  1.00  0.00     0.074 A 
HETATM    6  C   UNL     1      41.086 -13.251   5.104  1.00  0.00     0.143 A 
HETATM    7  F   UNL     1      40.039 -13.712   4.409  1.00  0.00    -0.204 F 
HETATM    8  C   UNL     1      40.975 -11.962   5.622  1.00  0.00     0.045 A 
HETATM    9  C   UNL     1      42.062 -11.364   6.262  1.00  0.00     0.017 A 
HETATM   10  C   UNL     1      43.282 -12.045   6.375  1.00  0.00     0.000 A 
HETATM   11  C   UNL     1      43.373 -13.346   5.846  1.00  0.00     0.047 A 
BRANCH  10  12
HETATM   12  C   UNL     1      44.424 -11.407   7.029  1.00  0.00     0.085 A 
HETATM   13  O   UNL     1      44.220 -10.952   8.302  1.00  0.00    -0.322 OA
HETATM   14  C   UNL     1      45.386 -10.406   8.732  1.00  0.00     0.142 A 
HETATM   15  C   UNL     1      46.347 -10.497   7.755  1.00  0.00     0.027 A 
HETATM   16  C   UNL     1      45.729 -11.142   6.656  1.00  0.00     0.040 A 
ENDBRANCH  10  12
ENDBRANCH   2   5
BRANCH   1  17
HETATM   17  C   UNL     1      43.301 -17.127   3.349  1.00  0.00     0.073 A 
HETATM   18  C   UNL     1      43.964 -17.954   4.259  1.00  0.00     0.165 A 
HETATM   19  C   UNL     1      44.122 -19.327   4.017  1.00  0.00     0.107 A 
HETATM   20  F   UNL     1      44.453 -17.442   5.402  1.00  0.00    -0.202 F 
HETATM   21  C   UNL     1      43.619 -19.873   2.834  1.00  0.00     0.040 A 
HETATM   22  C   UNL     1      42.956 -19.059   1.914  1.00  0.00     0.004 A 
HETATM   23  C   UNL     1      42.794 -17.697   2.171  1.00  0.00     0.020 A 
BRANCH  19  24
HETATM   24  O   UNL     1      44.782 -20.027   4.993  1.00  0.00    -0.353 OA
HETATM   25  C   UNL     1      44.044 -21.023   5.688  1.00  0.00     0.210 C 
ENDBRANCH  19  24
ENDBRANCH   1  17
TORSDOF 4
ENDMDL
MODEL 3
REMARK VINA RESULT:      -8.0      4.499      7.629
REMARK  4 active torsions:
REMARK  status: ('A' for Active; 'I' for Inactive)
REMARK    1  A    between atoms: O_2  and  C_3 
REMARK    2  A    between atoms: C_6  and  C_7 
REMARK       I    between atoms: C_7  and  N_8 
REMARK    3  A    between atoms: N_8  and  C_9 
REMARK    4  A    between atoms: C_14  and  C_15 
ROOT
HETATM    1  C   UNL     1      43.707 -12.004   5.337  1.00  0.00     0.259 C 
HETATM    2  N   UNL     1      43.106 -13.205   5.662  1.00  0.00    -0.320 N 
HETATM    3  O   UNL     1      43.825 -11.543   4.207  1.00  0.00    -0.267 OA
HETATM    4  H   UNL     1      43.279 -13.565   6.595  1.00  0.00     0.169 HD
ENDROOT
BRANCH   2   5
HETATM    5  C   UNL     1      42.387 -14.066   4.797  1.00  0.00     0.074 A 
HETATM    6  C   UNL     1      41.138 -13.788   4.232  1.00  0.00     0.143 A 
HETATM    7  F   UNL     1      40.437 -12.693   4.548  1.00  0.00    -0.204 F 
HETATM    8  C   UNL     1      40.521 -14.701   3.378  1.00  0.00     0.045 A 
HETATM    9  C   UNL     1      41.136 -15.920   3.087  1.00  0.00     0.017 A 
HETATM   10  C   UNL     1      42.370 -16.248   3.663  1.00  0.00     0.000 A 
HETATM   11  C   UNL     1      42.978 -15.312   4.522  1.00  0.00     0.047 A 
BRANCH  10  12
HETATM   12  C   UNL     1      43.002 -17.535   3.371  1.00  0.00     0.085 A 
HETATM   13  O   UNL     1      43.780 -18.068   4.361  1.00  0.00    -0.322 OA
HETATM   14  C   UNL     1      44.265 -19.251   3.905  1.00  0.00     0.142 A 
HETATM   15  C   UNL     1      43.815 -19.495   2.631  1.00  0.00     0.027 A 
HETATM   16  C   UNL     1      43.001 -18.389   2.285  1.00  0.00     0.040 A 
ENDBRANCH  10  12
ENDBRANCH   2   5
BRANCH   1  17
HETATM   17  C   UNL     1      44.312 -11.229   6.462  1.00  0.00     0.073 A 
HETATM   18  C   UNL     1      43.557 -10.523   7.401  1.00  0.00     0.165 A 
HETATM   19  C   UNL     1      44.167  -9.820   8.449  1.00  0.00     0.107 A 
HETATM   20  F   UNL     1      42.214 -10.522   7.322  1.00  0.00    -0.202 F 
HETATM   21  C   UNL     1      45.560  -9.813   8.545  1.00  0.00     0.040 A 
HETATM   22  C   UNL     1      46.330 -10.511   7.613  1.00  0.00     0.004 A 
HETATM   23  C   UNL     1      45.711 -11.218   6.581  1.00  0.00     0.020 A 
BRANCH  19  24
HETATM   24  O   UNL     1      43.313  -9.177   9.307  1.00  0.00    -0.353 OA
HETATM   25  C   UNL     1      43.068  -9.798  10.562  1.00  0.00     0.210 C 
ENDBRANCH  19  24
ENDBRANCH   1  17
TORSDOF 4
ENDMDL
MODEL 4
REMARK VINA RESULT:      -8.0      5.229      8.455
REMARK  4 active torsions:
REMARK  status: ('A' for Active; 'I' for Inactive)
REMARK    1  A    between atoms: O_2  and  C_3 
REMARK    2  A    between atoms: C_6  and  C_7 
REMARK       I    between atoms: C_7  and  N_8 
REMARK    3  A    between atoms: N_8  and  C_9 
REMARK    4  A    between atoms: C_14  and  C_15 
ROOT
HETATM    1  C   UNL     1      42.665 -15.666   5.707  1.00  0.00     0.259 C 
HETATM    2  N   UNL     1      43.643 -14.698   5.840  1.00  0.00    -0.320 N 
HETATM    3  O   UNL     1      41.456 -15.482   5.803  1.00  0.00    -0.267 OA
HETATM    4  H   UNL     1      44.596 -15.027   5.962  1.00  0.00     0.169 HD
ENDROOT
BRANCH   2   5
HETATM    5  C   UNL     1      43.454 -13.300   5.968  1.00  0.00     0.074 A 
HETATM    6  C   UNL     1      42.819 -12.479   5.031  1.00  0.00     0.143 A 
HETATM    7  F   UNL     1      42.408 -12.936   3.842  1.00  0.00    -0.204 F 
HETATM    8  C   UNL     1      42.673 -11.113   5.261  1.00  0.00     0.045 A 
HETATM    9  C   UNL     1      43.176 -10.537   6.429  1.00  0.00     0.017 A 
HETATM   10  C   UNL     1      43.849 -11.322   7.374  1.00  0.00     0.000 A 
HETATM   11  C   UNL     1      43.986 -12.701   7.124  1.00  0.00     0.047 A 
BRANCH  10  12
HETATM   12  C   UNL     1      44.393 -10.712   8.587  1.00  0.00     0.085 A 
HETATM   13  O   UNL     1      43.907 -11.182   9.775  1.00  0.00    -0.322 OA
HETATM   14  C   UNL     1      44.532 -10.504  10.770  1.00  0.00     0.142 A 
HETATM   15  C   UNL     1      45.419  -9.595  10.247  1.00  0.00     0.027 A 
HETATM   16  C   UNL     1      45.331  -9.728   8.839  1.00  0.00     0.040 A 
ENDBRANCH  10  12
ENDBRANCH   2   5
BRANCH   1  17
HETATM   17  C   UNL     1      43.131 -17.066   5.477  1.00  0.00     0.073 A 
HETATM   18  C   UNL     1      43.529 -17.547   4.227  1.00  0.00     0.165 A 
HETATM   19  C   UNL     1      43.972 -18.867   4.060  1.00  0.00     0.107 A 
HETATM   20  F   UNL     1      43.508 -16.735   3.155  1.00  0.00    -0.202 F 
HETATM   21  C   UNL     1      44.001 -19.721   5.164  1.00  0.00     0.040 A 
HETATM   22  C   UNL     1      43.604 -19.256   6.419  1.00  0.00     0.004 A 
HETATM   23  C   UNL     1      43.177 -17.938   6.576  1.00  0.00     0.020 A 
BRANCH  19  24
HETATM   24  O   UNL     1      44.343 -19.209   2.786  1.00  0.00    -0.353 OA
HETATM   25  C   UNL     1      43.532 -20.162   2.110  1.00  0.00     0.210 C 
ENDBRANCH  19  24
ENDBRANCH   1  17
TORSDOF 4
ENDMDL
MODEL 5
REMARK VINA RESULT:      -7.9      1.910      7.744
REMARK  4 active torsions:
REMARK  status: ('A' for Active; 'I' for Inactive)
REMARK    1  A    between atoms: O_2  and  C_3 
REMARK    2  A    between atoms: C_6  and  C_7 
REMARK       I    between atoms: C_7  and  N_8 
REMARK    3  A    between atoms: N_8  and  C_9 
REMARK    4  A    between atoms: C_14  and  C_15 
ROOT
HETATM    1  C   UNL     1      42.979 -15.442   2.348  1.00  0.00     0.259 C 
HETATM    2  N   UNL     1      41.675 -14.984   2.345  1.00  0.00    -0.320 N 
HETATM    3  O   UNL     1      43.863 -15.093   1.573  1.00  0.00    -0.267 OA
HETATM    4  H   UNL     1      41.002 -15.519   2.886  1.00  0.00     0.169 HD
ENDROOT
BRANCH   2   5
HETATM    5  C   UNL     1      41.136 -13.935   1.562  1.00  0.00     0.074 A 
HETATM    6  C   UNL     1      41.277 -12.569   1.829  1.00  0.00     0.143 A 
HETATM    7  F   UNL     1      41.867 -12.115   2.941  1.00  0.00    -0.204 F 
HETATM    8  C   UNL     1      40.718 -11.614   0.983  1.00  0.00     0.045 A 
HETATM    9  C   UNL     1      39.989 -12.008  -0.140  1.00  0.00     0.017 A 
HETATM   10  C   UNL     1      39.796 -13.367  -0.420  1.00  0.00     0.000 A 
HETATM   11  C   UNL     1      40.370 -14.317   0.446  1.00  0.00     0.047 A 
BRANCH  10  12
HETATM   12  C   UNL     1      39.014 -13.777  -1.587  1.00  0.00     0.085 A 
HETATM   13  O   UNL     1      37.840 -13.108  -1.798  1.00  0.00    -0.322 OA
HETATM   14  C   UNL     1      37.273 -13.623  -2.918  1.00  0.00     0.142 A 
HETATM   15  C   UNL     1      38.060 -14.620  -3.439  1.00  0.00     0.027 A 
HETATM   16  C   UNL     1      39.183 -14.721  -2.583  1.00  0.00     0.040 A 
ENDBRANCH  10  12
ENDBRANCH   2   5
BRANCH   1  17
HETATM   17  C   UNL     1      43.320 -16.494   3.352  1.00  0.00     0.073 A 
HETATM   18  C   UNL     1      43.406 -17.853   3.042  1.00  0.00     0.165 A 
HETATM   19  C   UNL     1      43.743 -18.805   4.015  1.00  0.00     0.107 A 
HETATM   20  F   UNL     1      43.179 -18.272   1.784  1.00  0.00    -0.202 F 
HETATM   21  C   UNL     1      43.982 -18.384   5.325  1.00  0.00     0.040 A 
HETATM   22  C   UNL     1      43.898 -17.029   5.652  1.00  0.00     0.004 A 
HETATM   23  C   UNL     1      43.574 -16.090   4.673  1.00  0.00     0.020 A 
BRANCH  19  24
HETATM   24  O   UNL     1      43.801 -20.102   3.578  1.00  0.00    -0.353 OA
HETATM   25  C   UNL     1      43.929 -21.114   4.569  1.00  0.00     0.210 C 
ENDBRANCH  19  24
ENDBRANCH   1  17
TORSDOF 4
ENDMDL
MODEL 6
REMARK VINA RESULT:      -7.9      2.074      2.391
REMARK  4 active torsions:
REMARK  status: ('A' for Active; 'I' for Inactive)
REMARK    1  A    between atoms: O_2  and  C_3 
REMARK    2  A    between atoms: C_6  and  C_7 
REMARK       I    between atoms: C_7  and  N_8 
REMARK    3  A    between atoms: N_8  and  C_9 
REMARK    4  A    between atoms: C_14  and  C_15 
ROOT
HETATM    1  C   UNL     1      40.187 -13.743   0.373  1.00  0.00     0.259 C 
HETATM    2  N   UNL     1      39.807 -14.652   1.342  1.00  0.00    -0.320 N 
HETATM    3  O   UNL     1      41.200 -13.051   0.396  1.00  0.00    -0.267 OA
HETATM    4  H   UNL     1      38.847 -14.981   1.306  1.00  0.00     0.169 HD
ENDROOT
BRANCH   2   5
HETATM    5  C   UNL     1      40.559 -15.072   2.466  1.00  0.00     0.074 A 
HETATM    6  C   UNL     1      40.630 -14.401   3.690  1.00  0.00     0.143 A 
HETATM    7  F   UNL     1      40.057 -13.207   3.886  1.00  0.00    -0.204 F 
HETATM    8  C   UNL     1      41.391 -14.909   4.741  1.00  0.00     0.045 A 
HETATM    9  C   UNL     1      42.112 -16.093   4.580  1.00  0.00     0.017 A 
HETATM   10  C   UNL     1      42.094 -16.774   3.356  1.00  0.00     0.000 A 
HETATM   11  C   UNL     1      41.318 -16.245   2.307  1.00  0.00     0.047 A 
BRANCH  10  12
HETATM   12  C   UNL     1      42.867 -18.004   3.184  1.00  0.00     0.085 A 
HETATM   13  O   UNL     1      43.660 -18.376   4.235  1.00  0.00    -0.322 OA
HETATM   14  C   UNL     1      44.282 -19.531   3.887  1.00  0.00     0.142 A 
HETATM   15  C   UNL     1      43.908 -19.916   2.624  1.00  0.00     0.027 A 
HETATM   16  C   UNL     1      42.995 -18.933   2.168  1.00  0.00     0.040 A 
ENDBRANCH  10  12
ENDBRANCH   2   5
BRANCH   1  17
HETATM   17  C   UNL     1      39.252 -13.553  -0.776  1.00  0.00     0.073 A 
HETATM   18  C   UNL     1      38.418 -12.441  -0.912  1.00  0.00     0.165 A 
HETATM   19  C   UNL     1      37.564 -12.299  -2.016  1.00  0.00     0.107 A 
HETATM   20  F   UNL     1      38.434 -11.469   0.018  1.00  0.00    -0.202 F 
HETATM   21  C   UNL     1      37.537 -13.299  -2.990  1.00  0.00     0.040 A 
HETATM   22  C   UNL     1      38.362 -14.418  -2.867  1.00  0.00     0.004 A 
HETATM   23  C   UNL     1      39.217 -14.543  -1.771  1.00  0.00     0.020 A 
BRANCH  19  24
HETATM   24  O   UNL     1      36.806 -11.157  -2.033  1.00  0.00    -0.353 OA
HETATM   25  C   UNL     1      36.711 -10.462  -3.270  1.00  0.00     0.210 C 
ENDBRANCH  19  24
ENDBRANCH   1  17
TORSDOF 4
ENDMDL
MODEL 7
REMARK VINA RESULT:      -7.7      8.329     11.457
REMARK  4 active torsions:
REMARK  status: ('A' for Active; 'I' for Inactive)
REMARK    1  A    between atoms: O_2  and  C_3 
REMARK    2  A    between atoms: C_6  and  C_7 
REMARK       I    between atoms: C_7  and  N_8 
REMARK    3  A    between atoms: N_8  and  C_9 
REMARK    4  A    between atoms: C_14  and  C_15 
ROOT
HETATM    1  C   UNL     1      43.544 -10.119  11.030  1.00  0.00     0.259 C 
HETATM    2  N   UNL     1      43.648  -9.689   9.721  1.00  0.00    -0.320 N 
HETATM    3  O   UNL     1      43.989 -11.171  11.477  1.00  0.00    -0.267 OA
HETATM    4  H   UNL     1      43.046  -8.920   9.444  1.00  0.00     0.169 HD
ENDROOT
BRANCH   2   5
HETATM    5  C   UNL     1      44.396 -10.288   8.678  1.00  0.00     0.074 A 
HETATM    6  C   UNL     1      45.672  -9.891   8.265  1.00  0.00     0.143 A 
HETATM    7  F   UNL     1      46.281  -8.808   8.763  1.00  0.00    -0.204 F 
HETATM    8  C   UNL     1      46.329 -10.560   7.234  1.00  0.00     0.045 A 
HETATM    9  C   UNL     1      45.714 -11.631   6.584  1.00  0.00     0.017 A 
HETATM   10  C   UNL     1      44.422 -12.034   6.947  1.00  0.00     0.000 A 
HETATM   11  C   UNL     1      43.775 -11.346   7.992  1.00  0.00     0.047 A 
BRANCH  10  12
HETATM   12  C   UNL     1      43.772 -13.144   6.251  1.00  0.00     0.085 A 
HETATM   13  O   UNL     1      43.165 -12.845   5.063  1.00  0.00    -0.322 OA
HETATM   14  C   UNL     1      42.633 -13.994   4.575  1.00  0.00     0.142 A 
HETATM   15  C   UNL     1      42.884 -15.039   5.430  1.00  0.00     0.027 A 
HETATM   16  C   UNL     1      43.619 -14.493   6.511  1.00  0.00     0.040 A 
ENDBRANCH  10  12
ENDBRANCH   2   5
BRANCH   1  17
HETATM   17  C   UNL     1      42.777  -9.244  11.967  1.00  0.00     0.073 A 
HETATM   18  C   UNL     1      41.387  -9.294  12.099  1.00  0.00     0.165 A 
HETATM   19  C   UNL     1      40.709  -8.461  13.001  1.00  0.00     0.107 A 
HETATM   20  F   UNL     1      40.671 -10.164  11.364  1.00  0.00    -0.202 F 
HETATM   21  C   UNL     1      41.439  -7.553  13.771  1.00  0.00     0.040 A 
HETATM   22  C   UNL     1      42.828  -7.490  13.649  1.00  0.00     0.004 A 
HETATM   23  C   UNL     1      43.493  -8.331  12.757  1.00  0.00     0.020 A 
BRANCH  19  24
HETATM   24  O   UNL     1      39.348  -8.616  13.040  1.00  0.00    -0.353 OA
HETATM   25  C   UNL     1      38.557  -7.489  12.686  1.00  0.00     0.210 C 
ENDBRANCH  19  24
ENDBRANCH   1  17
TORSDOF 4
ENDMDL
MODEL 8
REMARK VINA RESULT:      -7.7      6.469     10.021
REMARK  4 active torsions:
REMARK  status: ('A' for Active; 'I' for Inactive)
REMARK    1  A    between atoms: O_2  and  C_3 
REMARK    2  A    between atoms: C_6  and  C_7 
REMARK       I    between atoms: C_7  and  N_8 
REMARK    3  A    between atoms: N_8  and  C_9 
REMARK    4  A    between atoms: C_14  and  C_15 
ROOT
HETATM    1  C   UNL     1      43.282 -12.602   6.314  1.00  0.00     0.259 C 
HETATM    2  N   UNL     1      43.707 -12.306   7.595  1.00  0.00    -0.320 N 
HETATM    3  O   UNL     1      43.288 -11.832   5.360  1.00  0.00    -0.267 OA
HETATM    4  H   UNL     1      43.437 -12.955   8.327  1.00  0.00     0.169 HD
ENDROOT
BRANCH   2   5
HETATM    5  C   UNL     1      44.359 -11.126   8.030  1.00  0.00     0.074 A 
HETATM    6  C   UNL     1      45.591 -10.660   7.561  1.00  0.00     0.143 A 
HETATM    7  F   UNL     1      46.342 -11.362   6.704  1.00  0.00    -0.204 F 
HETATM    8  C   UNL     1      46.139  -9.475   8.048  1.00  0.00     0.045 A 
HETATM    9  C   UNL     1      45.471  -8.740   9.029  1.00  0.00     0.017 A 
HETATM   10  C   UNL     1      44.252  -9.194   9.548  1.00  0.00     0.000 A 
HETATM   11  C   UNL     1      43.714 -10.393   9.043  1.00  0.00     0.047 A 
BRANCH  10  12
HETATM   12  C   UNL     1      43.564  -8.432  10.591  1.00  0.00     0.085 A 
HETATM   13  O   UNL     1      42.709  -7.453  10.165  1.00  0.00    -0.322 OA
HETATM   14  C   UNL     1      42.172  -6.873  11.267  1.00  0.00     0.142 A 
HETATM   15  C   UNL     1      42.667  -7.458  12.407  1.00  0.00     0.027 A 
HETATM   16  C   UNL     1      43.564  -8.464  11.973  1.00  0.00     0.040 A 
ENDBRANCH  10  12
ENDBRANCH   2   5
BRANCH   1  17
HETATM   17  C   UNL     1      42.718 -13.968   6.092  1.00  0.00     0.073 A 
HETATM   18  C   UNL     1      43.474 -15.137   6.203  1.00  0.00     0.165 A 
HETATM   19  C   UNL     1      42.899 -16.400   5.998  1.00  0.00     0.107 A 
HETATM   20  F   UNL     1      44.777 -15.069   6.528  1.00  0.00    -0.202 F 
HETATM   21  C   UNL     1      41.547 -16.487   5.660  1.00  0.00     0.040 A 
HETATM   22  C   UNL     1      40.779 -15.327   5.543  1.00  0.00     0.004 A 
HETATM   23  C   UNL     1      41.358 -14.077   5.762  1.00  0.00     0.020 A 
BRANCH  19  24
HETATM   24  O   UNL     1      43.747 -17.466   6.146  1.00  0.00    -0.353 OA
HETATM   25  C   UNL     1      44.067 -18.207   4.975  1.00  0.00     0.210 C 
ENDBRANCH  19  24
ENDBRANCH   1  17
TORSDOF 4
ENDMDL
MODEL 9
REMARK VINA RESULT:      -7.6      1.766      2.361
REMARK  4 active torsions:
REMARK  status: ('A' for Active; 'I' for Inactive)
REMARK    1  A    between atoms: O_2  and  C_3 
REMARK    2  A    between atoms: C_6  and  C_7 
REMARK       I    between atoms: C_7  and  N_8 
REMARK    3  A    between atoms: N_8  and  C_9 
REMARK    4  A    between atoms: C_14  and  C_15 
ROOT
HETATM    1  C   UNL     1      42.496 -13.548   2.629  1.00  0.00     0.259 C 
HETATM    2  N   UNL     1      42.014 -14.509   3.499  1.00  0.00    -0.320 N 
HETATM    3  O   UNL     1      43.630 -13.081   2.633  1.00  0.00    -0.267 OA
HETATM    4  H   UNL     1      41.007 -14.635   3.527  1.00  0.00     0.169 HD
ENDROOT
BRANCH   2   5
HETATM    5  C   UNL     1      42.752 -15.242   4.460  1.00  0.00     0.074 A 
HETATM    6  C   UNL     1      43.348 -14.706   5.606  1.00  0.00     0.143 A 
HETATM    7  F   UNL     1      43.364 -13.391   5.855  1.00  0.00    -0.204 F 
HETATM    8  C   UNL     1      44.042 -15.520   6.499  1.00  0.00     0.045 A 
HETATM    9  C   UNL     1      44.168 -16.888   6.252  1.00  0.00     0.017 A 
HETATM   10  C   UNL     1      43.615 -17.455   5.096  1.00  0.00     0.000 A 
HETATM   11  C   UNL     1      42.917 -16.615   4.207  1.00  0.00     0.047 A 
BRANCH  10  12
HETATM   12  C   UNL     1      43.767 -18.885   4.830  1.00  0.00     0.085 A 
HETATM   13  O   UNL     1      43.792 -19.261   3.516  1.00  0.00    -0.322 OA
HETATM   14  C   UNL     1      43.944 -20.609   3.479  1.00  0.00     0.142 A 
HETATM   15  C   UNL     1      44.017 -21.118   4.753  1.00  0.00     0.027 A 
HETATM   16  C   UNL     1      43.904 -20.008   5.626  1.00  0.00     0.040 A 
ENDBRANCH  10  12
ENDBRANCH   2   5
BRANCH   1  17
HETATM   17  C   UNL     1      41.529 -12.999   1.632  1.00  0.00     0.073 A 
HETATM   18  C   UNL     1      40.930 -13.774   0.636  1.00  0.00     0.165 A 
HETATM   19  C   UNL     1      40.018 -13.218  -0.272  1.00  0.00     0.107 A 
HETATM   20  F   UNL     1      41.212 -15.086   0.542  1.00  0.00    -0.202 F 
HETATM   21  C   UNL     1      39.715 -11.857  -0.187  1.00  0.00     0.040 A 
HETATM   22  C   UNL     1      40.307 -11.069   0.801  1.00  0.00     0.004 A 
HETATM   23  C   UNL     1      41.204 -11.635   1.707  1.00  0.00     0.020 A 
BRANCH  19  24
HETATM   24  O   UNL     1      39.496 -14.088  -1.193  1.00  0.00    -0.353 OA
HETATM   25  C   UNL     1      40.056 -14.061  -2.500  1.00  0.00     0.210 C 
ENDBRANCH  19  24
ENDBRANCH   1  17
TORSDOF 4
ENDMDL
MODEL 10
REMARK VINA RESULT:      -7.5      5.772      8.642
REMARK  4 active torsions:
REMARK  status: ('A' for Active; 'I' for Inactive)
REMARK    1  A    between atoms: O_2  and  C_3 
REMARK    2  A    between atoms: C_6  and  C_7 
REMARK       I    between atoms: C_7  and  N_8 
REMARK    3  A    between atoms: N_8  and  C_9 
REMARK    4  A    between atoms: C_14  and  C_15 
ROOT
HETATM    1  C   UNL     1      43.595 -13.884   6.385  1.00  0.00     0.259 C 
HETATM    2  N   UNL     1      43.452 -12.511   6.462  1.00  0.00    -0.320 N 
HETATM    3  O   UNL     1      44.524 -14.536   6.849  1.00  0.00    -0.267 OA
HETATM    4  H   UNL     1      42.764 -12.089   5.847  1.00  0.00     0.169 HD
ENDROOT
BRANCH   2   5
HETATM    5  C   UNL     1      44.253 -11.606   7.200  1.00  0.00     0.074 A 
HETATM    6  C   UNL     1      45.513 -11.138   6.813  1.00  0.00     0.143 A 
HETATM    7  F   UNL     1      46.143 -11.596   5.725  1.00  0.00    -0.204 F 
HETATM    8  C   UNL     1      46.215 -10.234   7.608  1.00  0.00     0.045 A 
HETATM    9  C   UNL     1      45.675  -9.794   8.818  1.00  0.00     0.017 A 
HETATM   10  C   UNL     1      44.432 -10.268   9.256  1.00  0.00     0.000 A 
HETATM   11  C   UNL     1      43.738 -11.180   8.437  1.00  0.00     0.047 A 
BRANCH  10  12
HETATM   12  C   UNL     1      43.879  -9.820  10.534  1.00  0.00     0.085 A 
HETATM   13  O   UNL     1      43.227 -10.763  11.279  1.00  0.00    -0.322 OA
HETATM   14  C   UNL     1      42.798 -10.159  12.416  1.00  0.00     0.142 A 
HETATM   15  C   UNL     1      43.160  -8.835  12.422  1.00  0.00     0.027 A 
HETATM   16  C   UNL     1      43.857  -8.613  11.209  1.00  0.00     0.040 A 
ENDBRANCH  10  12
ENDBRANCH   2   5
BRANCH   1  17
HETATM   17  C   UNL     1      42.547 -14.627   5.624  1.00  0.00     0.073 A 
HETATM   18  C   UNL     1      42.413 -14.558   4.235  1.00  0.00     0.165 A 
HETATM   19  C   UNL     1      41.421 -15.284   3.560  1.00  0.00     0.107 A 
HETATM   20  F   UNL     1      43.255 -13.796   3.514  1.00  0.00    -0.202 F 
HETATM   21  C   UNL     1      40.540 -16.081   4.294  1.00  0.00     0.040 A 
HETATM   22  C   UNL     1      40.660 -16.159   5.683  1.00  0.00     0.004 A 
HETATM   23  C   UNL     1      41.658 -15.441   6.343  1.00  0.00     0.020 A 
BRANCH  19  24
HETATM   24  O   UNL     1      41.404 -15.136   2.197  1.00  0.00    -0.353 OA
HETATM   25  C   UNL     1      40.185 -15.432   1.529  1.00  0.00     0.210 C 
ENDBRANCH  19  24
ENDBRANCH   1  17
TORSDOF 4
ENDMDL
