MODEL 1
REMARK VINA RESULT:      -8.8      0.000      0.000
REMARK  3 active torsions:
REMARK  status: ('A' for Active; 'I' for Inactive)
REMARK    1  A    between atoms: C_7  and  C_8 
REMARK    2  A    between atoms: N_9  and  C_11 
REMARK    3  A    between atoms: C_11  and  C_12 
ROOT
HETATM    1  C   UNL     1      40.620 -14.249   3.262  1.00  0.00     0.238 C 
HETATM    2  N   UNL     1      42.036 -14.569   3.720  1.00  0.00    -0.056 N 
HETATM    3  H   UNL     1      41.924 -14.973   4.656  1.00  0.00     0.281 HD
HETATM    4  C   UNL     1      42.930 -13.368   3.899  1.00  0.00     0.236 C 
HETATM    5  C   UNL     1      42.285 -12.366   4.841  1.00  0.00     0.028 C 
HETATM    6  C   UNL     1      40.901 -11.951   4.367  1.00  0.00     0.004 C 
HETATM    7  C   UNL     1      40.008 -13.169   4.165  1.00  0.00     0.040 C 
ENDROOT
BRANCH   2   8
HETATM    8  C   UNL     1      42.728 -15.643   2.902  1.00  0.00     0.295 C 
BRANCH   8   9
HETATM    9  C   UNL     1      43.306 -16.714   3.735  1.00  0.00     0.077 A 
HETATM   10  N   UNL     1      43.426 -18.042   3.360  1.00  0.00    -0.155 N 
HETATM   11  C   UNL     1      43.949 -18.730   4.458  1.00  0.00     0.732 A 
HETATM   12  C   UNL     1      43.105 -18.699   2.176  1.00  0.00     0.117 A 
HETATM   13  N   UNL     1      44.132 -20.080   4.420  1.00  0.00    -0.074 NA
HETATM   14  N   UNL     1      44.201 -17.896   5.442  1.00  0.00    -0.072 NA
HETATM   15  C   UNL     1      43.835 -20.674   3.307  1.00  0.00     0.138 A 
HETATM   16  C   UNL     1      43.291 -20.023   2.084  1.00  0.00     0.038 A 
HETATM   17  C   UNL     1      43.863 -16.656   4.997  1.00  0.00     0.164 A 
ENDBRANCH   8   9
ENDBRANCH   2   8
BRANCH   1  18
HETATM   18  C   UNL     1      40.495 -13.941   1.803  1.00  0.00     0.041 A 
HETATM   19  N   UNL     1      39.735 -14.746   0.975  1.00  0.00    -0.357 N 
HETATM   20  C   UNL     1      39.830 -14.329  -0.331  1.00  0.00     0.042 A 
HETATM   21  H   UNL     1      39.195 -15.556   1.261  1.00  0.00     0.166 HD
HETATM   22  C   UNL     1      40.604 -13.172  -0.338  1.00  0.00    -0.008 A 
HETATM   23  C   UNL     1      39.278 -14.875  -1.494  1.00  0.00     0.030 A 
HETATM   24  C   UNL     1      40.837 -12.517  -1.561  1.00  0.00     0.014 A 
HETATM   25  C   UNL     1      40.991 -12.923   1.007  1.00  0.00     0.040 A 
HETATM   26  C   UNL     1      40.296 -13.051  -2.735  1.00  0.00     0.001 A 
HETATM   27  C   UNL     1      39.529 -14.213  -2.699  1.00  0.00     0.002 A 
ENDBRANCH   1  18
TORSDOF 3
ENDMDL
MODEL 2
REMARK VINA RESULT:      -8.6      1.771      6.640
REMARK  3 active torsions:
REMARK  status: ('A' for Active; 'I' for Inactive)
REMARK    1  A    between atoms: C_7  and  C_8 
REMARK    2  A    between atoms: N_9  and  C_11 
REMARK    3  A    between atoms: C_11  and  C_12 
ROOT
HETATM    1  C   UNL     1      43.231 -15.140   5.243  1.00  0.00     0.238 C 
HETATM    2  N   UNL     1      42.517 -14.060   4.444  1.00  0.00    -0.056 N 
HETATM    3  H   UNL     1      42.753 -13.182   4.918  1.00  0.00     0.281 HD
HETATM    4  C   UNL     1      41.012 -14.143   4.472  1.00  0.00     0.236 C 
HETATM    5  C   UNL     1      40.510 -14.158   5.905  1.00  0.00     0.028 C 
HETATM    6  C   UNL     1      41.134 -15.283   6.714  1.00  0.00     0.004 C 
HETATM    7  C   UNL     1      42.655 -15.209   6.664  1.00  0.00     0.040 C 
ENDROOT
BRANCH   2   8
HETATM    8  C   UNL     1      43.025 -13.897   3.024  1.00  0.00     0.295 C 
BRANCH   8   9
HETATM    9  C   UNL     1      42.253 -12.907   2.250  1.00  0.00     0.077 A 
HETATM   10  N   UNL     1      41.343 -13.209   1.249  1.00  0.00    -0.155 N 
HETATM   11  C   UNL     1      40.897 -11.994   0.724  1.00  0.00     0.732 A 
HETATM   12  C   UNL     1      40.894 -14.427   0.748  1.00  0.00     0.117 A 
HETATM   13  N   UNL     1      40.028 -11.958  -0.325  1.00  0.00    -0.074 NA
HETATM   14  N   UNL     1      41.434 -10.989   1.378  1.00  0.00    -0.072 NA
HETATM   15  C   UNL     1      39.613 -13.101  -0.775  1.00  0.00     0.138 A 
HETATM   16  C   UNL     1      40.019 -14.441  -0.268  1.00  0.00     0.038 A 
HETATM   17  C   UNL     1      42.223 -11.531   2.344  1.00  0.00     0.164 A 
ENDBRANCH   8   9
ENDBRANCH   2   8
BRANCH   1  18
HETATM   18  C   UNL     1      43.294 -16.473   4.566  1.00  0.00     0.041 A 
HETATM   19  N   UNL     1      43.683 -17.601   5.266  1.00  0.00    -0.357 N 
HETATM   20  C   UNL     1      43.752 -18.691   4.431  1.00  0.00     0.042 A 
HETATM   21  H   UNL     1      43.917 -17.642   6.252  1.00  0.00     0.166 HD
HETATM   22  C   UNL     1      43.314 -18.277   3.177  1.00  0.00    -0.008 A 
HETATM   23  C   UNL     1      44.147 -20.006   4.697  1.00  0.00     0.030 A 
HETATM   24  C   UNL     1      43.260 -19.216   2.131  1.00  0.00     0.014 A 
HETATM   25  C   UNL     1      43.004 -16.894   3.280  1.00  0.00     0.040 A 
HETATM   26  C   UNL     1      43.656 -20.536   2.377  1.00  0.00     0.001 A 
HETATM   27  C   UNL     1      44.093 -20.921   3.642  1.00  0.00     0.002 A 
ENDBRANCH   1  18
TORSDOF 3
ENDMDL
MODEL 3
REMARK VINA RESULT:      -8.6      1.568      6.995
REMARK  3 active torsions:
REMARK  status: ('A' for Active; 'I' for Inactive)
REMARK    1  A    between atoms: C_7  and  C_8 
REMARK    2  A    between atoms: N_9  and  C_11 
REMARK    3  A    between atoms: C_11  and  C_12 
ROOT
HETATM    1  C   UNL     1      42.860 -14.527   3.346  1.00  0.00     0.238 C 
HETATM    2  N   UNL     1      41.559 -14.010   2.749  1.00  0.00    -0.056 N 
HETATM    3  H   UNL     1      41.692 -12.996   2.667  1.00  0.00     0.281 HD
HETATM    4  C   UNL     1      40.345 -14.190   3.625  1.00  0.00     0.236 C 
HETATM    5  C   UNL     1      40.583 -13.569   4.991  1.00  0.00     0.028 C 
HETATM    6  C   UNL     1      41.828 -14.129   5.661  1.00  0.00     0.004 C 
HETATM    7  C   UNL     1      43.047 -13.966   4.762  1.00  0.00     0.040 C 
ENDROOT
BRANCH   2   8
HETATM    8  C   UNL     1      41.285 -14.493   1.337  1.00  0.00     0.295 C 
BRANCH   8   9
HETATM    9  C   UNL     1      40.872 -13.405   0.431  1.00  0.00     0.077 A 
HETATM   10  N   UNL     1      40.103 -13.565  -0.710  1.00  0.00    -0.155 N 
HETATM   11  C   UNL     1      40.007 -12.311  -1.317  1.00  0.00     0.732 A 
HETATM   12  C   UNL     1      39.507 -14.691  -1.271  1.00  0.00     0.117 A 
HETATM   13  N   UNL     1      39.353 -12.150  -2.502  1.00  0.00    -0.074 NA
HETATM   14  N   UNL     1      40.619 -11.404  -0.589  1.00  0.00    -0.072 NA
HETATM   15  C   UNL     1      38.798 -13.208  -3.006  1.00  0.00     0.138 A 
HETATM   16  C   UNL     1      38.832 -14.577  -2.424  1.00  0.00     0.038 A 
HETATM   17  C   UNL     1      41.106 -12.047   0.505  1.00  0.00     0.164 A 
ENDBRANCH   8   9
ENDBRANCH   2   8
BRANCH   1  18
HETATM   18  C   UNL     1      43.029 -16.012   3.271  1.00  0.00     0.041 A 
HETATM   19  N   UNL     1      43.460 -16.728   4.373  1.00  0.00    -0.357 N 
HETATM   20  C   UNL     1      43.626 -18.055   4.056  1.00  0.00     0.042 A 
HETATM   21  H   UNL     1      43.661 -16.349   5.291  1.00  0.00     0.166 HD
HETATM   22  C   UNL     1      43.210 -18.218   2.738  1.00  0.00    -0.008 A 
HETATM   23  C   UNL     1      44.091 -19.118   4.837  1.00  0.00     0.030 A 
HETATM   24  C   UNL     1      43.250 -19.503   2.165  1.00  0.00     0.014 A 
HETATM   25  C   UNL     1      42.812 -16.938   2.266  1.00  0.00     0.040 A 
HETATM   26  C   UNL     1      43.717 -20.577   2.930  1.00  0.00     0.001 A 
HETATM   27  C   UNL     1      44.132 -20.384   4.246  1.00  0.00     0.002 A 
ENDBRANCH   1  18
TORSDOF 3
ENDMDL
MODEL 4
REMARK VINA RESULT:      -8.2      1.764      7.075
REMARK  3 active torsions:
REMARK  status: ('A' for Active; 'I' for Inactive)
REMARK    1  A    between atoms: C_7  and  C_8 
REMARK    2  A    between atoms: N_9  and  C_11 
REMARK    3  A    between atoms: C_11  and  C_12 
ROOT
HETATM    1  C   UNL     1      42.570 -14.716   3.494  1.00  0.00     0.238 C 
HETATM    2  N   UNL     1      41.113 -14.363   3.753  1.00  0.00    -0.056 N 
HETATM    3  H   UNL     1      41.052 -13.353   3.585  1.00  0.00     0.281 HD
HETATM    4  C   UNL     1      40.656 -14.565   5.175  1.00  0.00     0.236 C 
HETATM    5  C   UNL     1      41.560 -13.809   6.133  1.00  0.00     0.028 C 
HETATM    6  C   UNL     1      43.019 -14.201   5.967  1.00  0.00     0.004 C 
HETATM    7  C   UNL     1      43.470 -14.017   4.523  1.00  0.00     0.040 C 
ENDROOT
BRANCH   2   8
HETATM    8  C   UNL     1      40.136 -14.990   2.775  1.00  0.00     0.295 C 
BRANCH   8   9
HETATM    9  C   UNL     1      40.041 -14.246   1.505  1.00  0.00     0.077 A 
HETATM   10  N   UNL     1      39.405 -13.026   1.339  1.00  0.00    -0.155 N 
HETATM   11  C   UNL     1      39.477 -12.710  -0.019  1.00  0.00     0.732 A 
HETATM   12  C   UNL     1      38.761 -12.191   2.247  1.00  0.00     0.117 A 
HETATM   13  N   UNL     1      38.886 -11.586  -0.513  1.00  0.00    -0.074 NA
HETATM   14  N   UNL     1      40.158 -13.629  -0.666  1.00  0.00    -0.072 NA
HETATM   15  C   UNL     1      38.297 -10.815   0.348  1.00  0.00     0.138 A 
HETATM   16  C   UNL     1      38.186 -11.060   1.812  1.00  0.00     0.038 A 
HETATM   17  C   UNL     1      40.553 -14.544   0.259  1.00  0.00     0.164 A 
ENDBRANCH   8   9
ENDBRANCH   2   8
BRANCH   1  18
HETATM   18  C   UNL     1      42.841 -16.182   3.370  1.00  0.00     0.041 A 
HETATM   19  N   UNL     1      43.284 -16.911   4.458  1.00  0.00    -0.357 N 
HETATM   20  C   UNL     1      43.548 -18.211   4.098  1.00  0.00     0.042 A 
HETATM   21  H   UNL     1      43.430 -16.555   5.397  1.00  0.00     0.166 HD
HETATM   22  C   UNL     1      43.186 -18.349   2.761  1.00  0.00    -0.008 A 
HETATM   23  C   UNL     1      44.059 -19.270   4.855  1.00  0.00     0.030 A 
HETATM   24  C   UNL     1      43.331 -19.604   2.143  1.00  0.00     0.014 A 
HETATM   25  C   UNL     1      42.718 -17.080   2.324  1.00  0.00     0.040 A 
HETATM   26  C   UNL     1      43.844 -20.675   2.883  1.00  0.00     0.001 A 
HETATM   27  C   UNL     1      44.203 -20.507   4.219  1.00  0.00     0.002 A 
ENDBRANCH   1  18
TORSDOF 3
ENDMDL
MODEL 5
REMARK VINA RESULT:      -8.2      2.711      6.819
REMARK  3 active torsions:
REMARK  status: ('A' for Active; 'I' for Inactive)
REMARK    1  A    between atoms: C_7  and  C_8 
REMARK    2  A    between atoms: N_9  and  C_11 
REMARK    3  A    between atoms: C_11  and  C_12 
ROOT
HETATM    1  C   UNL     1      40.796 -14.008   3.567  1.00  0.00     0.238 C 
HETATM    2  N   UNL     1      41.649 -12.756   3.415  1.00  0.00    -0.056 N 
HETATM    3  H   UNL     1      41.048 -11.989   3.736  1.00  0.00     0.281 HD
HETATM    4  C   UNL     1      42.023 -12.413   1.996  1.00  0.00     0.236 C 
HETATM    5  C   UNL     1      40.778 -12.312   1.131  1.00  0.00     0.028 C 
HETATM    6  C   UNL     1      39.944 -13.582   1.185  1.00  0.00     0.004 C 
HETATM    7  C   UNL     1      39.588 -13.937   2.623  1.00  0.00     0.040 C 
ENDROOT
BRANCH   2   8
HETATM    8  C   UNL     1      42.865 -12.717   4.321  1.00  0.00     0.295 C 
BRANCH   8   9
HETATM    9  C   UNL     1      42.732 -11.738   5.416  1.00  0.00     0.077 A 
HETATM   10  N   UNL     1      43.767 -11.294   6.222  1.00  0.00    -0.155 N 
HETATM   11  C   UNL     1      43.207 -10.440   7.174  1.00  0.00     0.732 A 
HETATM   12  C   UNL     1      45.129 -11.580   6.215  1.00  0.00     0.117 A 
HETATM   13  N   UNL     1      43.969  -9.881   8.155  1.00  0.00    -0.074 NA
HETATM   14  N   UNL     1      41.917 -10.300   6.959  1.00  0.00    -0.072 NA
HETATM   15  C   UNL     1      45.237 -10.152   8.129  1.00  0.00     0.138 A 
HETATM   16  C   UNL     1      45.924 -11.034   7.146  1.00  0.00     0.038 A 
HETATM   17  C   UNL     1      41.624 -11.044   5.859  1.00  0.00     0.164 A 
ENDBRANCH   8   9
ENDBRANCH   2   8
BRANCH   1  18
HETATM   18  C   UNL     1      41.557 -15.293   3.459  1.00  0.00     0.041 A 
HETATM   19  N   UNL     1      42.221 -15.812   4.555  1.00  0.00    -0.357 N 
HETATM   20  C   UNL     1      42.918 -16.945   4.209  1.00  0.00     0.042 A 
HETATM   21  H   UNL     1      42.233 -15.417   5.489  1.00  0.00     0.166 HD
HETATM   22  C   UNL     1      42.628 -17.215   2.875  1.00  0.00    -0.008 A 
HETATM   23  C   UNL     1      43.760 -17.755   4.978  1.00  0.00     0.030 A 
HETATM   24  C   UNL     1      43.199 -18.350   2.271  1.00  0.00     0.014 A 
HETATM   25  C   UNL     1      41.753 -16.190   2.424  1.00  0.00     0.040 A 
HETATM   26  C   UNL     1      44.048 -19.170   3.023  1.00  0.00     0.001 A 
HETATM   27  C   UNL     1      44.323 -18.873   4.356  1.00  0.00     0.002 A 
ENDBRANCH   1  18
TORSDOF 3
ENDMDL
MODEL 6
REMARK VINA RESULT:      -8.1      2.088      6.336
REMARK  3 active torsions:
REMARK  status: ('A' for Active; 'I' for Inactive)
REMARK    1  A    between atoms: C_7  and  C_8 
REMARK    2  A    between atoms: N_9  and  C_11 
REMARK    3  A    between atoms: C_11  and  C_12 
ROOT
HETATM    1  C   UNL     1      42.570 -12.427   3.759  1.00  0.00     0.238 C 
HETATM    2  N   UNL     1      41.264 -12.037   4.436  1.00  0.00    -0.056 N 
HETATM    3  H   UNL     1      41.085 -11.075   4.126  1.00  0.00     0.281 HD
HETATM    4  C   UNL     1      41.325 -11.973   5.941  1.00  0.00     0.236 C 
HETATM    5  C   UNL     1      42.447 -11.050   6.385  1.00  0.00     0.028 C 
HETATM    6  C   UNL     1      43.788 -11.464   5.800  1.00  0.00     0.004 C 
HETATM    7  C   UNL     1      43.715 -11.549   4.281  1.00  0.00     0.040 C 
ENDROOT
BRANCH   2   8
HETATM    8  C   UNL     1      40.059 -12.835   3.975  1.00  0.00     0.295 C 
BRANCH   8   9
HETATM    9  C   UNL     1      39.547 -12.395   2.664  1.00  0.00     0.077 A 
HETATM   10  N   UNL     1      39.583 -13.144   1.500  1.00  0.00    -0.155 N 
HETATM   11  C   UNL     1      39.073 -12.337   0.479  1.00  0.00     0.732 A 
HETATM   12  C   UNL     1      40.033 -14.437   1.248  1.00  0.00     0.117 A 
HETATM   13  N   UNL     1      39.030 -12.776  -0.810  1.00  0.00    -0.074 NA
HETATM   14  N   UNL     1      38.685 -11.179   0.965  1.00  0.00    -0.072 NA
HETATM   15  C   UNL     1      39.446 -13.985  -1.025  1.00  0.00     0.138 A 
HETATM   16  C   UNL     1      39.987 -14.921  -0.002  1.00  0.00     0.038 A 
HETATM   17  C   UNL     1      38.920 -11.220   2.304  1.00  0.00     0.164 A 
ENDBRANCH   8   9
ENDBRANCH   2   8
BRANCH   1  18
HETATM   18  C   UNL     1      42.878 -13.891   3.805  1.00  0.00     0.041 A 
HETATM   19  N   UNL     1      43.006 -14.621   2.638  1.00  0.00    -0.357 N 
HETATM   20  C   UNL     1      43.203 -15.953   2.917  1.00  0.00     0.042 A 
HETATM   21  H   UNL     1      42.939 -14.256   1.694  1.00  0.00     0.166 HD
HETATM   22  C   UNL     1      43.292 -16.075   4.300  1.00  0.00    -0.008 A 
HETATM   23  C   UNL     1      43.329 -17.046   2.053  1.00  0.00     0.030 A 
HETATM   24  C   UNL     1      43.522 -17.345   4.858  1.00  0.00     0.014 A 
HETATM   25  C   UNL     1      43.115 -14.774   4.845  1.00  0.00     0.040 A 
HETATM   26  C   UNL     1      43.646 -18.451   4.010  1.00  0.00     0.001 A 
HETATM   27  C   UNL     1      43.549 -18.300   2.628  1.00  0.00     0.002 A 
ENDBRANCH   1  18
TORSDOF 3
ENDMDL
MODEL 7
REMARK VINA RESULT:      -8.0      3.943      7.860
REMARK  3 active torsions:
REMARK  status: ('A' for Active; 'I' for Inactive)
REMARK    1  A    between atoms: C_7  and  C_8 
REMARK    2  A    between atoms: N_9  and  C_11 
REMARK    3  A    between atoms: C_11  and  C_12 
ROOT
HETATM    1  C   UNL     1      42.010 -13.019   5.688  1.00  0.00     0.238 C 
HETATM    2  N   UNL     1      43.031 -11.908   5.890  1.00  0.00    -0.056 N 
HETATM    3  H   UNL     1      42.508 -11.149   6.341  1.00  0.00     0.281 HD
HETATM    4  C   UNL     1      43.584 -11.319   4.617  1.00  0.00     0.236 C 
HETATM    5  C   UNL     1      42.454 -10.842   3.721  1.00  0.00     0.028 C 
HETATM    6  C   UNL     1      41.460 -11.952   3.422  1.00  0.00     0.004 C 
HETATM    7  C   UNL     1      40.920 -12.560   4.710  1.00  0.00     0.040 C 
ENDROOT
BRANCH   2   8
HETATM    8  C   UNL     1      44.146 -12.254   6.858  1.00  0.00     0.295 C 
BRANCH   8   9
HETATM    9  C   UNL     1      44.879 -11.066   7.336  1.00  0.00     0.077 A 
HETATM   10  N   UNL     1      44.297  -9.944   7.902  1.00  0.00    -0.155 N 
HETATM   11  C   UNL     1      45.325  -9.028   8.141  1.00  0.00     0.732 A 
HETATM   12  C   UNL     1      42.972  -9.644   8.203  1.00  0.00     0.117 A 
HETATM   13  N   UNL     1      45.062  -7.791   8.647  1.00  0.00    -0.074 NA
HETATM   14  N   UNL     1      46.485  -9.548   7.807  1.00  0.00    -0.072 NA
HETATM   15  C   UNL     1      43.824  -7.531   8.929  1.00  0.00     0.138 A 
HETATM   16  C   UNL     1      42.668  -8.447   8.726  1.00  0.00     0.038 A 
HETATM   17  C   UNL     1      46.234 -10.809   7.364  1.00  0.00     0.164 A 
ENDBRANCH   8   9
ENDBRANCH   2   8
BRANCH   1  18
HETATM   18  C   UNL     1      42.602 -14.347   5.333  1.00  0.00     0.041 A 
HETATM   19  N   UNL     1      42.580 -14.802   4.028  1.00  0.00    -0.357 N 
HETATM   20  C   UNL     1      43.097 -16.073   3.946  1.00  0.00     0.042 A 
HETATM   21  H   UNL     1      42.215 -14.299   3.226  1.00  0.00     0.166 HD
HETATM   22  C   UNL     1      43.543 -16.417   5.219  1.00  0.00    -0.008 A 
HETATM   23  C   UNL     1      43.219 -16.928   2.846  1.00  0.00     0.030 A 
HETATM   24  C   UNL     1      44.148 -17.673   5.411  1.00  0.00     0.014 A 
HETATM   25  C   UNL     1      43.254 -15.319   6.073  1.00  0.00     0.040 A 
HETATM   26  C   UNL     1      44.275 -18.543   4.323  1.00  0.00     0.001 A 
HETATM   27  C   UNL     1      43.815 -18.174   3.061  1.00  0.00     0.002 A 
ENDBRANCH   1  18
TORSDOF 3
ENDMDL
MODEL 8
REMARK VINA RESULT:      -7.8      2.030      6.969
REMARK  3 active torsions:
REMARK  status: ('A' for Active; 'I' for Inactive)
REMARK    1  A    between atoms: C_7  and  C_8 
REMARK    2  A    between atoms: N_9  and  C_11 
REMARK    3  A    between atoms: C_11  and  C_12 
ROOT
HETATM    1  C   UNL     1      42.378 -12.857   2.669  1.00  0.00     0.238 C 
HETATM    2  N   UNL     1      40.926 -12.497   2.950  1.00  0.00    -0.056 N 
HETATM    3  H   UNL     1      40.742 -11.674   2.366  1.00  0.00     0.281 HD
HETATM    4  C   UNL     1      40.645 -12.061   4.366  1.00  0.00     0.236 C 
HETATM    5  C   UNL     1      41.559 -10.912   4.756  1.00  0.00     0.028 C 
HETATM    6  C   UNL     1      43.026 -11.267   4.574  1.00  0.00     0.004 C 
HETATM    7  C   UNL     1      43.301 -11.729   3.149  1.00  0.00     0.040 C 
ENDROOT
BRANCH   2   8
HETATM    8  C   UNL     1      39.925 -13.542   2.495  1.00  0.00     0.295 C 
BRANCH   8   9
HETATM    9  C   UNL     1      39.775 -13.591   1.029  1.00  0.00     0.077 A 
HETATM   10  N   UNL     1      39.114 -12.647   0.261  1.00  0.00    -0.155 N 
HETATM   11  C   UNL     1      39.135 -13.106  -1.058  1.00  0.00     0.732 A 
HETATM   12  C   UNL     1      38.486 -11.454   0.606  1.00  0.00     0.117 A 
HETATM   13  N   UNL     1      38.509 -12.417  -2.053  1.00  0.00    -0.074 NA
HETATM   14  N   UNL     1      39.810 -14.231  -1.139  1.00  0.00    -0.072 NA
HETATM   15  C   UNL     1      37.936 -11.304  -1.716  1.00  0.00     0.138 A 
HETATM   16  C   UNL     1      37.878 -10.729  -0.344  1.00  0.00     0.038 A 
HETATM   17  C   UNL     1      40.250 -14.511   0.117  1.00  0.00     0.164 A 
ENDBRANCH   8   9
ENDBRANCH   2   8
BRANCH   1  18
HETATM   18  C   UNL     1      42.789 -14.209   3.164  1.00  0.00     0.041 A 
HETATM   19  N   UNL     1      43.011 -15.246   2.277  1.00  0.00    -0.357 N 
HETATM   20  C   UNL     1      43.293 -16.410   2.951  1.00  0.00     0.042 A 
HETATM   21  H   UNL     1      42.953 -15.190   1.266  1.00  0.00     0.166 HD
HETATM   22  C   UNL     1      43.339 -16.099   4.307  1.00  0.00    -0.008 A 
HETATM   23  C   UNL     1      43.528 -17.700   2.463  1.00  0.00     0.030 A 
HETATM   24  C   UNL     1      43.639 -17.119   5.228  1.00  0.00     0.014 A 
HETATM   25  C   UNL     1      43.050 -14.713   4.426  1.00  0.00     0.040 A 
HETATM   26  C   UNL     1      43.873 -18.416   4.760  1.00  0.00     0.001 A 
HETATM   27  C   UNL     1      43.816 -18.699   3.397  1.00  0.00     0.002 A 
ENDBRANCH   1  18
TORSDOF 3
ENDMDL
MODEL 9
REMARK VINA RESULT:      -7.8      2.358      5.290
REMARK  3 active torsions:
REMARK  status: ('A' for Active; 'I' for Inactive)
REMARK    1  A    between atoms: C_7  and  C_8 
REMARK    2  A    between atoms: N_9  and  C_11 
REMARK    3  A    between atoms: C_11  and  C_12 
ROOT
HETATM    1  C   UNL     1      42.418 -14.356   2.092  1.00  0.00     0.238 C 
HETATM    2  N   UNL     1      41.717 -14.716   3.394  1.00  0.00    -0.056 N 
HETATM    3  H   UNL     1      42.445 -14.643   4.113  1.00  0.00     0.281 HD
HETATM    4  C   UNL     1      41.213 -16.135   3.470  1.00  0.00     0.236 C 
HETATM    5  C   UNL     1      42.342 -17.113   3.190  1.00  0.00     0.028 C 
HETATM    6  C   UNL     1      43.010 -16.841   1.852  1.00  0.00     0.004 C 
HETATM    7  C   UNL     1      43.497 -15.399   1.771  1.00  0.00     0.040 C 
ENDROOT
BRANCH   2   8
HETATM    8  C   UNL     1      40.640 -13.735   3.814  1.00  0.00     0.295 C 
BRANCH   8   9
HETATM    9  C   UNL     1      41.189 -12.455   4.300  1.00  0.00     0.077 A 
HETATM   10  N   UNL     1      42.144 -12.321   5.294  1.00  0.00    -0.155 N 
HETATM   11  C   UNL     1      42.327 -10.952   5.503  1.00  0.00     0.732 A 
HETATM   12  C   UNL     1      42.840 -13.270   6.038  1.00  0.00     0.117 A 
HETATM   13  N   UNL     1      43.171 -10.494   6.469  1.00  0.00    -0.074 NA
HETATM   14  N   UNL     1      41.588 -10.260   4.664  1.00  0.00    -0.072 NA
HETATM   15  C   UNL     1      43.817 -11.391   7.147  1.00  0.00     0.138 A 
HETATM   16  C   UNL     1      43.701 -12.866   6.984  1.00  0.00     0.038 A 
HETATM   17  C   UNL     1      40.929 -11.163   3.890  1.00  0.00     0.164 A 
ENDBRANCH   8   9
ENDBRANCH   2   8
BRANCH   1  18
HETATM   18  C   UNL     1      41.495 -14.087   0.944  1.00  0.00     0.041 A 
HETATM   19  N   UNL     1      41.497 -12.858   0.313  1.00  0.00    -0.357 N 
HETATM   20  C   UNL     1      40.517 -12.804  -0.650  1.00  0.00     0.042 A 
HETATM   21  H   UNL     1      42.106 -12.076   0.528  1.00  0.00     0.166 HD
HETATM   22  C   UNL     1      39.922 -14.061  -0.701  1.00  0.00    -0.008 A 
HETATM   23  C   UNL     1      40.131 -11.750  -1.485  1.00  0.00     0.030 A 
HETATM   24  C   UNL     1      38.894 -14.289  -1.634  1.00  0.00     0.014 A 
HETATM   25  C   UNL     1      40.561 -14.864   0.281  1.00  0.00     0.040 A 
HETATM   26  C   UNL     1      38.490 -13.246  -2.474  1.00  0.00     0.001 A 
HETATM   27  C   UNL     1      39.101 -11.996  -2.398  1.00  0.00     0.002 A 
ENDBRANCH   1  18
TORSDOF 3
ENDMDL
MODEL 10
REMARK VINA RESULT:      -7.8      2.418      5.978
REMARK  3 active torsions:
REMARK  status: ('A' for Active; 'I' for Inactive)
REMARK    1  A    between atoms: C_7  and  C_8 
REMARK    2  A    between atoms: N_9  and  C_11 
REMARK    3  A    between atoms: C_11  and  C_12 
ROOT
HETATM    1  C   UNL     1      42.045 -14.137   2.055  1.00  0.00     0.238 C 
HETATM    2  N   UNL     1      41.318 -14.773   3.231  1.00  0.00    -0.056 N 
HETATM    3  H   UNL     1      41.911 -14.575   4.045  1.00  0.00     0.281 HD
HETATM    4  C   UNL     1      41.205 -16.275   3.168  1.00  0.00     0.236 C 
HETATM    5  C   UNL     1      42.578 -16.902   2.995  1.00  0.00     0.028 C 
HETATM    6  C   UNL     1      43.301 -16.356   1.774  1.00  0.00     0.004 C 
HETATM    7  C   UNL     1      43.393 -14.836   1.831  1.00  0.00     0.040 C 
ENDROOT
BRANCH   2   8
HETATM    8  C   UNL     1      39.977 -14.141   3.551  1.00  0.00     0.295 C 
BRANCH   8   9
HETATM    9  C   UNL     1      40.066 -12.684   3.761  1.00  0.00     0.077 A 
HETATM   10  N   UNL     1      39.371 -11.729   3.037  1.00  0.00    -0.155 N 
HETATM   11  C   UNL     1      39.797 -10.480   3.495  1.00  0.00     0.732 A 
HETATM   12  C   UNL     1      38.433 -11.847   2.016  1.00  0.00     0.117 A 
HETATM   13  N   UNL     1      39.333  -9.328   2.934  1.00  0.00    -0.074 NA
HETATM   14  N   UNL     1      40.656 -10.624   4.480  1.00  0.00    -0.072 NA
HETATM   15  C   UNL     1      38.454  -9.457   1.989  1.00  0.00     0.138 A 
HETATM   16  C   UNL     1      37.930 -10.741   1.449  1.00  0.00     0.038 A 
HETATM   17  C   UNL     1      40.790 -11.961   4.687  1.00  0.00     0.164 A 
ENDBRANCH   8   9
ENDBRANCH   2   8
BRANCH   1  18
HETATM   18  C   UNL     1      41.225 -14.020   0.809  1.00  0.00     0.041 A 
HETATM   19  N   UNL     1      41.277 -12.875   0.036  1.00  0.00    -0.357 N 
HETATM   20  C   UNL     1      40.385 -12.951  -1.007  1.00  0.00     0.042 A 
HETATM   21  H   UNL     1      41.863 -12.065   0.206  1.00  0.00     0.166 HD
HETATM   22  C   UNL     1      39.800 -14.213  -0.957  1.00  0.00    -0.008 A 
HETATM   23  C   UNL     1      40.069 -12.011  -1.993  1.00  0.00     0.030 A 
HETATM   24  C   UNL     1      38.857 -14.565  -1.940  1.00  0.00     0.014 A 
HETATM   25  C   UNL     1      40.354 -14.884   0.166  1.00  0.00     0.040 A 
HETATM   26  C   UNL     1      38.525 -13.636  -2.931  1.00  0.00     0.001 A 
HETATM   27  C   UNL     1      39.123 -12.378  -2.955  1.00  0.00     0.002 A 
ENDBRANCH   1  18
TORSDOF 3
ENDMDL
