MODEL 1
REMARK VINA RESULT:      -8.9      0.000      0.000
REMARK  3 active torsions:
REMARK  status: ('A' for Active; 'I' for Inactive)
REMARK    1  A    between atoms: C_6  and  N_7 
REMARK    2  A    between atoms: N_7  and  N_8 
REMARK    3  A    between atoms: C_9  and  C_10 
ROOT
HETATM    1  N   UNL     1      42.878 -14.620   2.715  1.00  0.00    -0.108 N 
HETATM    2  H   UNL     1      43.343 -13.871   3.224  1.00  0.00     0.208 HD
ENDROOT
BRANCH   1   3
HETATM    3  C   UNL     1      43.189 -15.872   3.178  1.00  0.00     0.724 A 
HETATM    4  N   UNL     1      43.108 -16.921   2.417  1.00  0.00    -0.062 NA
HETATM    5  C   UNL     1      43.426 -18.171   2.979  1.00  0.00     0.091 A 
HETATM    6  C   UNL     1      43.833 -18.322   4.308  1.00  0.00     0.062 A 
HETATM    7  C   UNL     1      43.324 -19.314   2.183  1.00  0.00     0.033 A 
HETATM    8  C   UNL     1      44.136 -19.578   4.843  1.00  0.00     0.019 A 
HETATM    9  C   UNL     1      43.923 -17.105   5.130  1.00  0.00     0.272 A 
HETATM   10  C   UNL     1      44.028 -20.709   4.035  1.00  0.00     0.001 A 
HETATM   11  C   UNL     1      43.622 -20.577   2.706  1.00  0.00     0.002 A 
HETATM   12  N   UNL     1      43.580 -15.948   4.486  1.00  0.00    -0.152 N 
HETATM   13  O   UNL     1      44.275 -17.135   6.304  1.00  0.00    -0.267 OA
HETATM   14  H   UNL     1      43.611 -15.077   4.995  1.00  0.00     0.187 HD
ENDBRANCH   1   3
BRANCH   1  15
HETATM   15  N   UNL     1      42.192 -14.381   1.561  1.00  0.00    -0.172 NA
HETATM   16  C   UNL     1      40.934 -14.106   1.712  1.00  0.00     0.152 C 
BRANCH  16  17
HETATM   17  C   UNL     1      40.072 -13.788   0.549  1.00  0.00     0.003 A 
HETATM   18  C   UNL     1      39.407 -12.547   0.421  1.00  0.00     0.025 A 
HETATM   19 BR   UNL     1      39.516 -11.169   1.725  1.00  0.00    -0.050 Br
HETATM   20  C   UNL     1      38.617 -12.277  -0.707  1.00  0.00     0.059 A 
HETATM   21  C   UNL     1      38.515 -13.254  -1.674  1.00  0.00     0.106 A 
HETATM   22  C   UNL     1      39.157 -14.461  -1.552  1.00  0.00     0.106 A 
HETATM   23  O   UNL     1      37.802 -13.160  -2.827  1.00  0.00    -0.323 OA
HETATM   24  O   UNL     1      38.930 -15.279  -2.613  1.00  0.00    -0.323 OA
HETATM   25  C   UNL     1      39.939 -14.761  -0.458  1.00  0.00     0.054 A 
HETATM   26  C   UNL     1      38.075 -14.447  -3.424  1.00  0.00     0.352 A 
ENDBRANCH  16  17
ENDBRANCH   1  15
TORSDOF 3
ENDMDL
MODEL 2
REMARK VINA RESULT:      -8.6      2.390      8.186
REMARK  3 active torsions:
REMARK  status: ('A' for Active; 'I' for Inactive)
REMARK    1  A    between atoms: C_6  and  N_7 
REMARK    2  A    between atoms: N_7  and  N_8 
REMARK    3  A    between atoms: C_9  and  C_10 
ROOT
HETATM    1  N   UNL     1      41.976 -13.867   1.235  1.00  0.00    -0.108 N 
HETATM    2  H   UNL     1      42.375 -13.041   1.678  1.00  0.00     0.208 HD
ENDROOT
BRANCH   1   3
HETATM    3  C   UNL     1      40.892 -13.594   0.443  1.00  0.00     0.724 A 
HETATM    4  N   UNL     1      40.556 -14.368  -0.544  1.00  0.00    -0.062 NA
HETATM    5  C   UNL     1      39.440 -14.002  -1.319  1.00  0.00     0.091 A 
HETATM    6  C   UNL     1      38.683 -12.855  -1.063  1.00  0.00     0.062 A 
HETATM    7  C   UNL     1      39.075 -14.810  -2.399  1.00  0.00     0.033 A 
HETATM    8  C   UNL     1      37.583 -12.512  -1.855  1.00  0.00     0.019 A 
HETATM    9  C   UNL     1      39.092 -12.015   0.073  1.00  0.00     0.272 A 
HETATM   10  C   UNL     1      37.232 -13.329  -2.929  1.00  0.00     0.001 A 
HETATM   11  C   UNL     1      37.978 -14.477  -3.201  1.00  0.00     0.002 A 
HETATM   12  N   UNL     1      40.195 -12.458   0.750  1.00  0.00    -0.152 N 
HETATM   13  O   UNL     1      38.488 -10.993   0.380  1.00  0.00    -0.267 OA
HETATM   14  H   UNL     1      40.536 -11.922   1.534  1.00  0.00     0.187 HD
ENDBRANCH   1   3
BRANCH   1  15
HETATM   15  N   UNL     1      42.370 -15.125   1.584  1.00  0.00    -0.172 NA
HETATM   16  C   UNL     1      42.786 -15.255   2.806  1.00  0.00     0.152 C 
BRANCH  16  17
HETATM   17  C   UNL     1      43.211 -16.573   3.335  1.00  0.00     0.003 A 
HETATM   18  C   UNL     1      43.608 -16.752   4.681  1.00  0.00     0.025 A 
HETATM   19 BR   UNL     1      43.670 -15.333   5.944  1.00  0.00    -0.050 Br
HETATM   20  C   UNL     1      43.983 -18.020   5.148  1.00  0.00     0.059 A 
HETATM   21  C   UNL     1      43.950 -19.073   4.260  1.00  0.00     0.106 A 
HETATM   22  C   UNL     1      43.568 -18.903   2.952  1.00  0.00     0.106 A 
HETATM   23  O   UNL     1      44.272 -20.363   4.542  1.00  0.00    -0.323 OA
HETATM   24  O   UNL     1      43.602 -20.064   2.247  1.00  0.00    -0.323 OA
HETATM   25  C   UNL     1      43.195 -17.673   2.458  1.00  0.00     0.054 A 
HETATM   26  C   UNL     1      44.043 -20.990   3.261  1.00  0.00     0.352 A 
ENDBRANCH  16  17
ENDBRANCH   1  15
TORSDOF 3
ENDMDL
MODEL 3
REMARK VINA RESULT:      -8.3      2.795      3.329
REMARK  3 active torsions:
REMARK  status: ('A' for Active; 'I' for Inactive)
REMARK    1  A    between atoms: C_6  and  N_7 
REMARK    2  A    between atoms: N_7  and  N_8 
REMARK    3  A    between atoms: C_9  and  C_10 
ROOT
HETATM    1  N   UNL     1      39.575 -15.027   2.405  1.00  0.00    -0.108 N 
HETATM    2  H   UNL     1      38.619 -15.280   2.650  1.00  0.00     0.208 HD
ENDROOT
BRANCH   1   3
HETATM    3  C   UNL     1      40.522 -15.709   3.122  1.00  0.00     0.724 A 
HETATM    4  N   UNL     1      41.438 -16.422   2.539  1.00  0.00    -0.062 NA
HETATM    5  C   UNL     1      42.360 -17.106   3.353  1.00  0.00     0.091 A 
HETATM    6  C   UNL     1      42.333 -17.038   4.749  1.00  0.00     0.062 A 
HETATM    7  C   UNL     1      43.340 -17.895   2.745  1.00  0.00     0.033 A 
HETATM    8  C   UNL     1      43.258 -17.736   5.533  1.00  0.00     0.019 A 
HETATM    9  C   UNL     1      41.287 -16.209   5.366  1.00  0.00     0.272 A 
HETATM   10  C   UNL     1      44.229 -18.519   4.911  1.00  0.00     0.001 A 
HETATM   11  C   UNL     1      44.269 -18.599   3.518  1.00  0.00     0.002 A 
HETATM   12  N   UNL     1      40.439 -15.599   4.483  1.00  0.00    -0.152 N 
HETATM   13  O   UNL     1      41.186 -16.083   6.581  1.00  0.00    -0.267 OA
HETATM   14  H   UNL     1      39.692 -15.023   4.840  1.00  0.00     0.187 HD
ENDBRANCH   1   3
BRANCH   1  15
HETATM   15  N   UNL     1      39.847 -13.963   1.596  1.00  0.00    -0.172 NA
HETATM   16  C   UNL     1      39.892 -14.230   0.328  1.00  0.00     0.152 C 
BRANCH  16  17
HETATM   17  C   UNL     1      40.143 -13.165  -0.672  1.00  0.00     0.003 A 
HETATM   18  C   UNL     1      39.737 -13.287  -2.021  1.00  0.00     0.025 A 
HETATM   19 BR   UNL     1      38.860 -14.827  -2.707  1.00  0.00    -0.050 Br
HETATM   20  C   UNL     1      39.974 -12.246  -2.932  1.00  0.00     0.059 A 
HETATM   21  C   UNL     1      40.608 -11.114  -2.469  1.00  0.00     0.106 A 
HETATM   22  C   UNL     1      41.006 -10.992  -1.161  1.00  0.00     0.106 A 
HETATM   23  O   UNL     1      40.909 -10.013  -3.207  1.00  0.00    -0.323 OA
HETATM   24  O   UNL     1      41.608  -9.800  -0.910  1.00  0.00    -0.323 OA
HETATM   25  C   UNL     1      40.792 -11.994  -0.240  1.00  0.00     0.054 A 
HETATM   26  C   UNL     1      41.538  -9.178  -2.210  1.00  0.00     0.352 A 
ENDBRANCH  16  17
ENDBRANCH   1  15
TORSDOF 3
ENDMDL
MODEL 4
REMARK VINA RESULT:      -8.2      5.232      7.369
REMARK  3 active torsions:
REMARK  status: ('A' for Active; 'I' for Inactive)
REMARK    1  A    between atoms: C_6  and  N_7 
REMARK    2  A    between atoms: N_7  and  N_8 
REMARK    3  A    between atoms: C_9  and  C_10 
ROOT
HETATM    1  N   UNL     1      42.667 -14.297   4.200  1.00  0.00    -0.108 N 
HETATM    2  H   UNL     1      42.273 -14.017   3.304  1.00  0.00     0.208 HD
ENDROOT
BRANCH   1   3
HETATM    3  C   UNL     1      42.993 -15.627   4.262  1.00  0.00     0.724 A 
HETATM    4  N   UNL     1      42.987 -16.382   3.206  1.00  0.00    -0.062 NA
HETATM    5  C   UNL     1      43.316 -17.741   3.364  1.00  0.00     0.091 A 
HETATM    6  C   UNL     1      43.656 -18.299   4.600  1.00  0.00     0.062 A 
HETATM    7  C   UNL     1      43.294 -18.575   2.243  1.00  0.00     0.033 A 
HETATM    8  C   UNL     1      43.971 -19.655   4.729  1.00  0.00     0.019 A 
HETATM    9  C   UNL     1      43.663 -17.404   5.767  1.00  0.00     0.272 A 
HETATM   10  C   UNL     1      43.944 -20.474   3.600  1.00  0.00     0.001 A 
HETATM   11  C   UNL     1      43.605 -19.934   2.359  1.00  0.00     0.002 A 
HETATM   12  N   UNL     1      43.317 -16.107   5.501  1.00  0.00    -0.152 N 
HETATM   13  O   UNL     1      43.953 -17.798   6.891  1.00  0.00    -0.267 OA
HETATM   14  H   UNL     1      43.292 -15.442   6.260  1.00  0.00     0.187 HD
ENDBRANCH   1   3
BRANCH   1  15
HETATM   15  N   UNL     1      42.658 -13.461   5.277  1.00  0.00    -0.172 NA
HETATM   16  C   UNL     1      43.523 -12.496   5.235  1.00  0.00     0.152 C 
BRANCH  16  17
HETATM   17  C   UNL     1      43.603 -11.489   6.320  1.00  0.00     0.003 A 
HETATM   18  C   UNL     1      42.763 -10.353   6.357  1.00  0.00     0.025 A 
HETATM   19 BR   UNL     1      41.468  -9.973   5.018  1.00  0.00    -0.050 Br
HETATM   20  C   UNL     1      42.856  -9.434   7.413  1.00  0.00     0.059 A 
HETATM   21  C   UNL     1      43.784  -9.677   8.402  1.00  0.00     0.106 A 
HETATM   22  C   UNL     1      44.603 -10.778   8.369  1.00  0.00     0.106 A 
HETATM   23  O   UNL     1      44.002  -8.900   9.496  1.00  0.00    -0.323 OA
HETATM   24  O   UNL     1      45.441 -10.833   9.437  1.00  0.00    -0.323 OA
HETATM   25  C   UNL     1      44.541 -11.699   7.347  1.00  0.00     0.054 A 
HETATM   26  C   UNL     1      45.052  -9.643  10.154  1.00  0.00     0.352 A 
ENDBRANCH  16  17
ENDBRANCH   1  15
TORSDOF 3
ENDMDL
MODEL 5
REMARK VINA RESULT:      -8.2      5.284      8.611
REMARK  3 active torsions:
REMARK  status: ('A' for Active; 'I' for Inactive)
REMARK    1  A    between atoms: C_6  and  N_7 
REMARK    2  A    between atoms: N_7  and  N_8 
REMARK    3  A    between atoms: C_9  and  C_10 
ROOT
HETATM    1  N   UNL     1      41.627 -12.842   5.766  1.00  0.00    -0.108 N 
HETATM    2  H   UNL     1      40.868 -12.488   5.186  1.00  0.00     0.208 HD
ENDROOT
BRANCH   1   3
HETATM    3  C   UNL     1      42.344 -11.855   6.391  1.00  0.00     0.724 A 
HETATM    4  N   UNL     1      43.637 -11.915   6.500  1.00  0.00    -0.062 NA
HETATM    5  C   UNL     1      44.291 -10.868   7.175  1.00  0.00     0.091 A 
HETATM    6  C   UNL     1      43.611  -9.774   7.716  1.00  0.00     0.062 A 
HETATM    7  C   UNL     1      45.680 -10.925   7.321  1.00  0.00     0.033 A 
HETATM    8  C   UNL     1      44.287  -8.751   8.389  1.00  0.00     0.019 A 
HETATM    9  C   UNL     1      42.149  -9.741   7.558  1.00  0.00     0.272 A 
HETATM   10  C   UNL     1      45.673  -8.823   8.527  1.00  0.00     0.001 A 
HETATM   11  C   UNL     1      46.368  -9.909   7.994  1.00  0.00     0.002 A 
HETATM   12  N   UNL     1      41.616 -10.813   6.896  1.00  0.00    -0.152 N 
HETATM   13  O   UNL     1      41.466  -8.821   7.993  1.00  0.00    -0.267 OA
HETATM   14  H   UNL     1      40.618 -10.859   6.762  1.00  0.00     0.187 HD
ENDBRANCH   1   3
BRANCH   1  15
HETATM   15  N   UNL     1      41.999 -14.153   5.734  1.00  0.00    -0.172 NA
HETATM   16  C   UNL     1      42.394 -14.589   4.578  1.00  0.00     0.152 C 
BRANCH  16  17
HETATM   17  C   UNL     1      42.863 -15.984   4.402  1.00  0.00     0.003 A 
HETATM   18  C   UNL     1      43.284 -16.484   3.148  1.00  0.00     0.025 A 
HETATM   19 BR   UNL     1      43.269 -15.447   1.556  1.00  0.00    -0.050 Br
HETATM   20  C   UNL     1      43.741 -17.805   3.028  1.00  0.00     0.059 A 
HETATM   21  C   UNL     1      43.765 -18.587   4.162  1.00  0.00     0.106 A 
HETATM   22  C   UNL     1      43.356 -18.106   5.381  1.00  0.00     0.106 A 
HETATM   23  O   UNL     1      44.182 -19.879   4.229  1.00  0.00    -0.323 OA
HETATM   24  O   UNL     1      43.463 -19.033   6.368  1.00  0.00    -0.323 OA
HETATM   25  C   UNL     1      42.899 -16.815   5.536  1.00  0.00     0.054 A 
HETATM   26  C   UNL     1      43.994 -20.156   5.634  1.00  0.00     0.352 A 
ENDBRANCH  16  17
ENDBRANCH   1  15
TORSDOF 3
ENDMDL
MODEL 6
REMARK VINA RESULT:      -8.1      7.017      9.007
REMARK  3 active torsions:
REMARK  status: ('A' for Active; 'I' for Inactive)
REMARK    1  A    between atoms: C_6  and  N_7 
REMARK    2  A    between atoms: N_7  and  N_8 
REMARK    3  A    between atoms: C_9  and  C_10 
ROOT
HETATM    1  N   UNL     1      45.231 -11.603   7.195  1.00  0.00    -0.108 N 
HETATM    2  H   UNL     1      46.204 -11.889   7.284  1.00  0.00     0.208 HD
ENDROOT
BRANCH   1   3
HETATM    3  C   UNL     1      44.811 -10.765   8.194  1.00  0.00     0.724 A 
HETATM    4  N   UNL     1      44.337 -11.220   9.314  1.00  0.00    -0.062 NA
HETATM    5  C   UNL     1      43.910 -10.288  10.278  1.00  0.00     0.091 A 
HETATM    6  C   UNL     1      43.989  -8.906  10.082  1.00  0.00     0.062 A 
HETATM    7  C   UNL     1      43.376 -10.759  11.480  1.00  0.00     0.033 A 
HETATM    8  C   UNL     1      43.550  -8.003  11.055  1.00  0.00     0.019 A 
HETATM    9  C   UNL     1      44.545  -8.435   8.804  1.00  0.00     0.272 A 
HETATM   10  C   UNL     1      43.019  -8.489  12.249  1.00  0.00     0.001 A 
HETATM   11  C   UNL     1      42.932  -9.866  12.461  1.00  0.00     0.002 A 
HETATM   12  N   UNL     1      44.917  -9.425   7.937  1.00  0.00    -0.152 N 
HETATM   13  O   UNL     1      44.659  -7.243   8.542  1.00  0.00    -0.267 OA
HETATM   14  H   UNL     1      45.297  -9.171   7.038  1.00  0.00     0.187 HD
ENDBRANCH   1   3
BRANCH   1  15
HETATM   15  N   UNL     1      44.397 -12.182   6.283  1.00  0.00    -0.172 NA
HETATM   16  C   UNL     1      44.066 -13.410   6.538  1.00  0.00     0.152 C 
BRANCH  16  17
HETATM   17  C   UNL     1      43.137 -14.154   5.654  1.00  0.00     0.003 A 
HETATM   18  C   UNL     1      43.029 -15.563   5.692  1.00  0.00     0.025 A 
HETATM   19 BR   UNL     1      44.071 -16.656   6.846  1.00  0.00    -0.050 Br
HETATM   20  C   UNL     1      42.122 -16.228   4.853  1.00  0.00     0.059 A 
HETATM   21  C   UNL     1      41.350 -15.467   4.002  1.00  0.00     0.106 A 
HETATM   22  C   UNL     1      41.453 -14.099   3.962  1.00  0.00     0.106 A 
HETATM   23  O   UNL     1      40.420 -15.943   3.132  1.00  0.00    -0.323 OA
HETATM   24  O   UNL     1      40.604 -13.541   3.060  1.00  0.00    -0.323 OA
HETATM   25  C   UNL     1      42.334 -13.413   4.769  1.00  0.00     0.054 A 
HETATM   26  C   UNL     1      39.944 -14.714   2.541  1.00  0.00     0.352 A 
ENDBRANCH  16  17
ENDBRANCH   1  15
TORSDOF 3
ENDMDL
MODEL 7
REMARK VINA RESULT:      -8.1      4.773      6.365
REMARK  3 active torsions:
REMARK  status: ('A' for Active; 'I' for Inactive)
REMARK    1  A    between atoms: C_6  and  N_7 
REMARK    2  A    between atoms: N_7  and  N_8 
REMARK    3  A    between atoms: C_9  and  C_10 
ROOT
HETATM    1  N   UNL     1      44.055 -15.561   6.358  1.00  0.00    -0.108 N 
HETATM    2  H   UNL     1      44.942 -15.655   6.850  1.00  0.00     0.208 HD
ENDROOT
BRANCH   1   3
HETATM    3  C   UNL     1      43.872 -16.495   5.373  1.00  0.00     0.724 A 
HETATM    4  N   UNL     1      44.077 -17.760   5.584  1.00  0.00    -0.062 NA
HETATM    5  C   UNL     1      43.886 -18.648   4.510  1.00  0.00     0.091 A 
HETATM    6  C   UNL     1      43.476 -18.226   3.242  1.00  0.00     0.062 A 
HETATM    7  C   UNL     1      44.122 -20.010   4.712  1.00  0.00     0.033 A 
HETATM    8  C   UNL     1      43.301 -19.131   2.190  1.00  0.00     0.019 A 
HETATM    9  C   UNL     1      43.243 -16.786   3.051  1.00  0.00     0.272 A 
HETATM   10  C   UNL     1      43.542 -20.487   2.408  1.00  0.00     0.001 A 
HETATM   11  C   UNL     1      43.952 -20.926   3.667  1.00  0.00     0.002 A 
HETATM   12  N   UNL     1      43.471 -16.014   4.157  1.00  0.00    -0.152 N 
HETATM   13  O   UNL     1      42.878 -16.320   1.978  1.00  0.00    -0.267 OA
HETATM   14  H   UNL     1      43.339 -15.016   4.092  1.00  0.00     0.187 HD
ENDBRANCH   1   3
BRANCH   1  15
HETATM   15  N   UNL     1      43.248 -14.476   6.542  1.00  0.00    -0.172 NA
HETATM   16  C   UNL     1      43.836 -13.325   6.432  1.00  0.00     0.152 C 
BRANCH  16  17
HETATM   17  C   UNL     1      43.077 -12.059   6.571  1.00  0.00     0.003 A 
HETATM   18  C   UNL     1      43.651 -10.894   7.130  1.00  0.00     0.025 A 
HETATM   19 BR   UNL     1      45.431 -10.826   7.790  1.00  0.00    -0.050 Br
HETATM   20  C   UNL     1      42.904  -9.710   7.224  1.00  0.00     0.059 A 
HETATM   21  C   UNL     1      41.609  -9.723   6.755  1.00  0.00     0.106 A 
HETATM   22  C   UNL     1      41.047 -10.852   6.213  1.00  0.00     0.106 A 
HETATM   23  O   UNL     1      40.751  -8.669   6.761  1.00  0.00    -0.323 OA
HETATM   24  O   UNL     1      39.766 -10.652   5.810  1.00  0.00    -0.323 OA
HETATM   25  C   UNL     1      41.749 -12.033   6.107  1.00  0.00     0.054 A 
HETATM   26  C   UNL     1      39.583  -9.263   6.153  1.00  0.00     0.352 A 
ENDBRANCH  16  17
ENDBRANCH   1  15
TORSDOF 3
ENDMDL
MODEL 8
REMARK VINA RESULT:      -8.0      4.767      7.045
REMARK  3 active torsions:
REMARK  status: ('A' for Active; 'I' for Inactive)
REMARK    1  A    between atoms: C_6  and  N_7 
REMARK    2  A    between atoms: N_7  and  N_8 
REMARK    3  A    between atoms: C_9  and  C_10 
ROOT
HETATM    1  N   UNL     1      44.173 -15.669   6.476  1.00  0.00    -0.108 N 
HETATM    2  H   UNL     1      44.989 -15.910   7.036  1.00  0.00     0.208 HD
ENDROOT
BRANCH   1   3
HETATM    3  C   UNL     1      43.937 -16.543   5.447  1.00  0.00     0.724 A 
HETATM    4  N   UNL     1      44.143 -17.819   5.575  1.00  0.00    -0.062 NA
HETATM    5  C   UNL     1      43.894 -18.642   4.461  1.00  0.00     0.091 A 
HETATM    6  C   UNL     1      43.428 -18.145   3.241  1.00  0.00     0.062 A 
HETATM    7  C   UNL     1      44.130 -20.015   4.572  1.00  0.00     0.033 A 
HETATM    8  C   UNL     1      43.196 -18.986   2.148  1.00  0.00     0.019 A 
HETATM    9  C   UNL     1      43.197 -16.695   3.146  1.00  0.00     0.272 A 
HETATM   10  C   UNL     1      43.437 -20.353   2.275  1.00  0.00     0.001 A 
HETATM   11  C   UNL     1      43.904 -20.867   3.485  1.00  0.00     0.002 A 
HETATM   12  N   UNL     1      43.482 -15.990   4.282  1.00  0.00    -0.152 N 
HETATM   13  O   UNL     1      42.784 -16.166   2.120  1.00  0.00    -0.267 OA
HETATM   14  H   UNL     1      43.355 -14.989   4.282  1.00  0.00     0.187 HD
ENDBRANCH   1   3
BRANCH   1  15
HETATM   15  N   UNL     1      43.529 -14.476   6.628  1.00  0.00    -0.172 NA
HETATM   16  C   UNL     1      44.284 -13.425   6.545  1.00  0.00     0.152 C 
BRANCH  16  17
HETATM   17  C   UNL     1      43.716 -12.060   6.654  1.00  0.00     0.003 A 
HETATM   18  C   UNL     1      42.932 -11.487   5.626  1.00  0.00     0.025 A 
HETATM   19 BR   UNL     1      42.546 -12.377   3.992  1.00  0.00    -0.050 Br
HETATM   20  C   UNL     1      42.394 -10.200   5.778  1.00  0.00     0.059 A 
HETATM   21  C   UNL     1      42.653  -9.524   6.950  1.00  0.00     0.106 A 
HETATM   22  C   UNL     1      43.415 -10.077   7.950  1.00  0.00     0.106 A 
HETATM   23  O   UNL     1      42.207  -8.280   7.266  1.00  0.00    -0.323 OA
HETATM   24  O   UNL     1      43.546  -9.250   9.020  1.00  0.00    -0.323 OA
HETATM   25  C   UNL     1      43.961 -11.336   7.835  1.00  0.00     0.054 A 
HETATM   26  C   UNL     1      42.773  -8.113   8.585  1.00  0.00     0.352 A 
ENDBRANCH  16  17
ENDBRANCH   1  15
TORSDOF 3
ENDMDL
MODEL 9
REMARK VINA RESULT:      -7.8      5.538      8.449
REMARK  3 active torsions:
REMARK  status: ('A' for Active; 'I' for Inactive)
REMARK    1  A    between atoms: C_6  and  N_7 
REMARK    2  A    between atoms: N_7  and  N_8 
REMARK    3  A    between atoms: C_9  and  C_10 
ROOT
HETATM    1  N   UNL     1      42.963 -11.825   5.261  1.00  0.00    -0.108 N 
HETATM    2  H   UNL     1      42.309 -11.220   4.768  1.00  0.00     0.208 HD
ENDROOT
BRANCH   1   3
HETATM    3  C   UNL     1      43.506 -11.248   6.379  1.00  0.00     0.724 A 
HETATM    4  N   UNL     1      42.764 -10.714   7.301  1.00  0.00    -0.062 NA
HETATM    5  C   UNL     1      43.406 -10.125   8.406  1.00  0.00     0.091 A 
HETATM    6  C   UNL     1      44.796 -10.104   8.551  1.00  0.00     0.062 A 
HETATM    7  C   UNL     1      42.626  -9.526   9.398  1.00  0.00     0.033 A 
HETATM    8  C   UNL     1      45.408  -9.505   9.657  1.00  0.00     0.019 A 
HETATM    9  C   UNL     1      45.597 -10.732   7.489  1.00  0.00     0.272 A 
HETATM   10  C   UNL     1      44.615  -8.911  10.639  1.00  0.00     0.001 A 
HETATM   11  C   UNL     1      43.225  -8.922  10.509  1.00  0.00     0.002 A 
HETATM   12  N   UNL     1      44.872 -11.263   6.458  1.00  0.00    -0.152 N 
HETATM   13  O   UNL     1      46.821 -10.769   7.530  1.00  0.00    -0.267 OA
HETATM   14  H   UNL     1      45.359 -11.700   5.691  1.00  0.00     0.187 HD
ENDBRANCH   1   3
BRANCH   1  15
HETATM   15  N   UNL     1      43.395 -13.000   4.721  1.00  0.00    -0.172 NA
HETATM   16  C   UNL     1      42.543 -13.977   4.767  1.00  0.00     0.152 C 
BRANCH  16  17
HETATM   17  C   UNL     1      42.862 -15.303   4.186  1.00  0.00     0.003 A 
HETATM   18  C   UNL     1      42.790 -15.553   2.796  1.00  0.00     0.025 A 
HETATM   19 BR   UNL     1      42.253 -14.241   1.530  1.00  0.00    -0.050 Br
HETATM   20  C   UNL     1      43.121 -16.816   2.284  1.00  0.00     0.059 A 
HETATM   21  C   UNL     1      43.515 -17.792   3.174  1.00  0.00     0.106 A 
HETATM   22  C   UNL     1      43.584 -17.554   4.524  1.00  0.00     0.106 A 
HETATM   23  O   UNL     1      43.876 -19.062   2.852  1.00  0.00    -0.323 OA
HETATM   24  O   UNL     1      43.996 -18.644   5.223  1.00  0.00    -0.323 OA
HETATM   25  C   UNL     1      43.264 -16.327   5.062  1.00  0.00     0.054 A 
HETATM   26  C   UNL     1      44.187 -19.597   4.158  1.00  0.00     0.352 A 
ENDBRANCH  16  17
ENDBRANCH   1  15
TORSDOF 3
ENDMDL
MODEL 10
REMARK VINA RESULT:      -7.8      7.018      8.689
REMARK  3 active torsions:
REMARK  status: ('A' for Active; 'I' for Inactive)
REMARK    1  A    between atoms: C_6  and  N_7 
REMARK    2  A    between atoms: N_7  and  N_8 
REMARK    3  A    between atoms: C_9  and  C_10 
ROOT
HETATM    1  N   UNL     1      45.318 -11.501   7.188  1.00  0.00    -0.108 N 
HETATM    2  H   UNL     1      45.986 -12.205   7.497  1.00  0.00     0.208 HD
ENDROOT
BRANCH   1   3
HETATM    3  C   UNL     1      44.869 -10.692   8.198  1.00  0.00     0.724 A 
HETATM    4  N   UNL     1      44.417 -11.178   9.314  1.00  0.00    -0.062 NA
HETATM    5  C   UNL     1      43.957 -10.275  10.290  1.00  0.00     0.091 A 
HETATM    6  C   UNL     1      43.977  -8.889  10.108  1.00  0.00     0.062 A 
HETATM    7  C   UNL     1      43.447 -10.781  11.489  1.00  0.00     0.033 A 
HETATM    8  C   UNL     1      43.506  -8.015  11.093  1.00  0.00     0.019 A 
HETATM    9  C   UNL     1      44.509  -8.382   8.834  1.00  0.00     0.272 A 
HETATM   10  C   UNL     1      43.000  -8.536  12.284  1.00  0.00     0.001 A 
HETATM   11  C   UNL     1      42.971  -9.917  12.481  1.00  0.00     0.002 A 
HETATM   12  N   UNL     1      44.918  -9.346   7.955  1.00  0.00    -0.152 N 
HETATM   13  O   UNL     1      44.573  -7.183   8.585  1.00  0.00    -0.267 OA
HETATM   14  H   UNL     1      45.284  -9.067   7.058  1.00  0.00     0.187 HD
ENDBRANCH   1   3
BRANCH   1  15
HETATM   15  N   UNL     1      44.785 -11.525   5.933  1.00  0.00    -0.172 NA
HETATM   16  C   UNL     1      43.859 -12.413   5.742  1.00  0.00     0.152 C 
BRANCH  16  17
HETATM   17  C   UNL     1      43.165 -12.530   4.437  1.00  0.00     0.003 A 
HETATM   18  C   UNL     1      42.616 -13.751   3.983  1.00  0.00     0.025 A 
HETATM   19 BR   UNL     1      42.731 -15.373   4.967  1.00  0.00    -0.050 Br
HETATM   20  C   UNL     1      41.947 -13.814   2.751  1.00  0.00     0.059 A 
HETATM   21  C   UNL     1      41.845 -12.657   2.010  1.00  0.00     0.106 A 
HETATM   22  C   UNL     1      42.377 -11.470   2.447  1.00  0.00     0.106 A 
HETATM   23  O   UNL     1      41.228 -12.536   0.805  1.00  0.00    -0.323 OA
HETATM   24  O   UNL     1      42.164 -10.452   1.573  1.00  0.00    -0.323 OA
HETATM   25  C   UNL     1      43.042 -11.371   3.650  1.00  0.00     0.054 A 
HETATM   26  C   UNL     1      41.428 -11.131   0.535  1.00  0.00     0.352 A 
ENDBRANCH  16  17
ENDBRANCH   1  15
TORSDOF 3
ENDMDL
