MODEL 1
REMARK VINA RESULT:      -8.3      0.000      0.000
REMARK  5 active torsions:
REMARK  status: ('A' for Active; 'I' for Inactive)
REMARK    1  A    between atoms: C_6  and  C_7 
REMARK    2  A    between atoms: C_7  and  N_8 
REMARK       I    between atoms: N_8  and  C_9 
REMARK       I    between atoms: C_9  and  N_10 
REMARK    3  A    between atoms: N_10  and  C_11 
REMARK    4  A    between atoms: C_14  and  C_15 
REMARK       I    between atoms: C_15  and  N_16 
REMARK    5  A    between atoms: N_16  and  C_17 
ROOT
HETATM    1  C   UNL     1      43.157 -11.545   6.658  1.00  0.00     0.036 A 
HETATM    2  C   UNL     1      43.861 -12.637   7.170  1.00  0.00     0.030 A 
HETATM    3  C   UNL     1      43.587 -13.934   6.718  1.00  0.00     0.019 A 
HETATM    4  C   UNL     1      42.581 -14.157   5.771  1.00  0.00     0.032 A 
HETATM    5  C   UNL     1      41.846 -13.072   5.285  1.00  0.00     0.019 A 
HETATM    6  C   UNL     1      42.126 -11.778   5.740  1.00  0.00     0.030 A 
ENDROOT
BRANCH   1   7
HETATM    7  N   UNL     1      43.391 -10.204   7.016  1.00  0.00    -0.309 N 
HETATM    8  C   UNL     1      42.707  -9.319   7.792  1.00  0.00     0.321 C 
HETATM    9  N   UNL     1      41.701  -9.793   8.562  1.00  0.00    -0.337 N 
HETATM   10  O   UNL     1      43.050  -8.138   7.804  1.00  0.00    -0.247 OA
HETATM   11  H   UNL     1      41.754 -10.761   8.846  1.00  0.00     0.164 HD
HETATM   12  H   UNL     1      44.233  -9.777   6.650  1.00  0.00     0.170 HD
BRANCH   9  13
HETATM   13  C   UNL     1      41.008  -8.932   9.489  1.00  0.00     0.186 C 
BRANCH  13  14
HETATM   14  C   UNL     1      41.190  -9.446  10.874  1.00  0.00     0.083 A 
HETATM   15  C   UNL     1      42.354  -9.540  11.610  1.00  0.00     0.076 A 
HETATM   16  C   UNL     1      43.769  -9.218  11.355  1.00  0.00     0.079 C 
HETATM   17  O   UNL     1      42.039 -10.064  12.833  1.00  0.00    -0.307 OA
HETATM   18  C   UNL     1      40.696 -10.267  12.769  1.00  0.00     0.258 A 
HETATM   19  N   UNL     1      40.135  -9.936  11.628  1.00  0.00    -0.237 NA
ENDBRANCH  13  14
ENDBRANCH   9  13
ENDBRANCH   1   7
BRANCH   4  20
HETATM   20  C   UNL     1      42.370 -15.543   5.261  1.00  0.00     0.256 C 
HETATM   21  N   UNL     1      43.339 -16.001   4.388  1.00  0.00    -0.323 N 
HETATM   22  H   UNL     1      44.000 -15.322   4.034  1.00  0.00     0.169 HD
HETATM   23  O   UNL     1      41.369 -16.146   5.630  1.00  0.00    -0.267 OA
BRANCH  21  24
HETATM   24  C   UNL     1      43.477 -17.310   3.880  1.00  0.00     0.035 A 
HETATM   25  C   UNL     1      43.029 -17.705   2.618  1.00  0.00     0.029 A 
HETATM   26  C   UNL     1      43.170 -19.031   2.197  1.00  0.00     0.002 A 
HETATM   27  C   UNL     1      43.763 -19.974   3.034  1.00  0.00     0.000 A 
HETATM   28  C   UNL     1      44.214 -19.591   4.294  1.00  0.00     0.002 A 
HETATM   29  C   UNL     1      44.070 -18.266   4.715  1.00  0.00     0.029 A 
ENDBRANCH  21  24
ENDBRANCH   4  20
TORSDOF 5
ENDMDL
MODEL 2
REMARK VINA RESULT:      -8.1      2.200      9.504
REMARK  5 active torsions:
REMARK  status: ('A' for Active; 'I' for Inactive)
REMARK    1  A    between atoms: C_6  and  C_7 
REMARK    2  A    between atoms: C_7  and  N_8 
REMARK       I    between atoms: N_8  and  C_9 
REMARK       I    between atoms: C_9  and  N_10 
REMARK    3  A    between atoms: N_10  and  C_11 
REMARK    4  A    between atoms: C_14  and  C_15 
REMARK       I    between atoms: C_15  and  N_16 
REMARK    5  A    between atoms: N_16  and  C_17 
ROOT
HETATM    1  C   UNL     1      43.849 -11.228   5.784  1.00  0.00     0.036 A 
HETATM    2  C   UNL     1      44.969 -11.539   6.558  1.00  0.00     0.030 A 
HETATM    3  C   UNL     1      45.022 -11.178   7.909  1.00  0.00     0.019 A 
HETATM    4  C   UNL     1      43.967 -10.471   8.496  1.00  0.00     0.032 A 
HETATM    5  C   UNL     1      42.860 -10.120   7.717  1.00  0.00     0.019 A 
HETATM    6  C   UNL     1      42.813 -10.486   6.367  1.00  0.00     0.030 A 
ENDROOT
BRANCH   1   7
HETATM    7  N   UNL     1      43.684 -11.587   4.434  1.00  0.00    -0.309 N 
HETATM    8  C   UNL     1      43.295 -12.739   3.822  1.00  0.00     0.321 C 
HETATM    9  N   UNL     1      42.760 -13.717   4.589  1.00  0.00    -0.337 N 
HETATM   10  O   UNL     1      43.398 -12.837   2.601  1.00  0.00    -0.247 OA
HETATM   11  H   UNL     1      42.306 -13.435   5.445  1.00  0.00     0.164 HD
HETATM   12  H   UNL     1      43.873 -10.868   3.746  1.00  0.00     0.170 HD
BRANCH   9  13
HETATM   13  C   UNL     1      42.227 -14.919   3.993  1.00  0.00     0.186 C 
BRANCH  13  14
HETATM   14  C   UNL     1      43.084 -16.078   4.364  1.00  0.00     0.083 A 
HETATM   15  C   UNL     1      43.332 -17.229   3.644  1.00  0.00     0.076 A 
HETATM   16  C   UNL     1      42.885 -17.751   2.341  1.00  0.00     0.079 C 
HETATM   17  O   UNL     1      44.185 -18.008   4.375  1.00  0.00    -0.307 OA
HETATM   18  C   UNL     1      44.403 -17.286   5.507  1.00  0.00     0.258 A 
HETATM   19  N   UNL     1      43.766 -16.139   5.569  1.00  0.00    -0.237 NA
ENDBRANCH  13  14
ENDBRANCH   9  13
ENDBRANCH   1   7
BRANCH   4  20
HETATM   20  C   UNL     1      44.029 -10.168   9.956  1.00  0.00     0.256 C 
HETATM   21  N   UNL     1      42.996  -9.384  10.436  1.00  0.00    -0.323 N 
HETATM   22  H   UNL     1      42.396  -8.941   9.753  1.00  0.00     0.169 HD
HETATM   23  O   UNL     1      44.975 -10.610  10.596  1.00  0.00    -0.267 OA
BRANCH  21  24
HETATM   24  C   UNL     1      42.717  -9.076  11.785  1.00  0.00     0.035 A 
HETATM   25  C   UNL     1      41.758  -9.738  12.552  1.00  0.00     0.029 A 
HETATM   26  C   UNL     1      41.514  -9.352  13.873  1.00  0.00     0.002 A 
HETATM   27  C   UNL     1      42.228  -8.299  14.440  1.00  0.00     0.000 A 
HETATM   28  C   UNL     1      43.188  -7.631  13.684  1.00  0.00     0.002 A 
HETATM   29  C   UNL     1      43.429  -8.016  12.363  1.00  0.00     0.029 A 
ENDBRANCH  21  24
ENDBRANCH   4  20
TORSDOF 5
ENDMDL
MODEL 3
REMARK VINA RESULT:      -7.9      2.160      9.836
REMARK  5 active torsions:
REMARK  status: ('A' for Active; 'I' for Inactive)
REMARK    1  A    between atoms: C_6  and  C_7 
REMARK    2  A    between atoms: C_7  and  N_8 
REMARK       I    between atoms: N_8  and  C_9 
REMARK       I    between atoms: C_9  and  N_10 
REMARK    3  A    between atoms: N_10  and  C_11 
REMARK    4  A    between atoms: C_14  and  C_15 
REMARK       I    between atoms: C_15  and  N_16 
REMARK    5  A    between atoms: N_16  and  C_17 
ROOT
HETATM    1  C   UNL     1      42.086 -14.074   4.893  1.00  0.00     0.036 A 
HETATM    2  C   UNL     1      42.664 -14.575   6.061  1.00  0.00     0.030 A 
HETATM    3  C   UNL     1      43.237 -13.707   6.999  1.00  0.00     0.019 A 
HETATM    4  C   UNL     1      43.269 -12.328   6.763  1.00  0.00     0.032 A 
HETATM    5  C   UNL     1      42.727 -11.824   5.576  1.00  0.00     0.019 A 
HETATM    6  C   UNL     1      42.155 -12.697   4.644  1.00  0.00     0.030 A 
ENDROOT
BRANCH   1   7
HETATM    7  N   UNL     1      41.448 -14.860   3.916  1.00  0.00    -0.309 N 
HETATM    8  C   UNL     1      41.898 -15.811   3.053  1.00  0.00     0.321 C 
HETATM    9  N   UNL     1      43.148 -16.294   3.233  1.00  0.00    -0.337 N 
HETATM   10  O   UNL     1      41.147 -16.230   2.173  1.00  0.00    -0.247 OA
HETATM   11  H   UNL     1      43.525 -16.259   4.169  1.00  0.00     0.164 HD
HETATM   12  H   UNL     1      40.450 -14.729   3.809  1.00  0.00     0.170 HD
BRANCH   9  13
HETATM   13  C   UNL     1      43.648 -17.380   2.425  1.00  0.00     0.186 C 
BRANCH  13  14
HETATM   14  C   UNL     1      43.832 -18.587   3.275  1.00  0.00     0.083 A 
HETATM   15  C   UNL     1      43.789 -19.916   2.903  1.00  0.00     0.076 A 
HETATM   16  C   UNL     1      43.552 -20.629   1.635  1.00  0.00     0.079 C 
HETATM   17  O   UNL     1      44.022 -20.674   4.017  1.00  0.00    -0.307 OA
HETATM   18  C   UNL     1      44.186 -19.759   5.010  1.00  0.00     0.258 A 
HETATM   19  N   UNL     1      44.069 -18.505   4.638  1.00  0.00    -0.237 NA
ENDBRANCH  13  14
ENDBRANCH   9  13
ENDBRANCH   1   7
BRANCH   4  20
HETATM   20  C   UNL     1      43.822 -11.431   7.819  1.00  0.00     0.256 C 
HETATM   21  N   UNL     1      42.891 -10.631   8.456  1.00  0.00    -0.323 N 
HETATM   22  H   UNL     1      41.965 -10.586   8.050  1.00  0.00     0.169 HD
HETATM   23  O   UNL     1      45.030 -11.456   8.021  1.00  0.00    -0.267 OA
BRANCH  21  24
HETATM   24  C   UNL     1      43.102  -9.812   9.585  1.00  0.00     0.035 A 
HETATM   25  C   UNL     1      43.348 -10.304  10.868  1.00  0.00     0.029 A 
HETATM   26  C   UNL     1      43.514  -9.427  11.945  1.00  0.00     0.002 A 
HETATM   27  C   UNL     1      43.435  -8.051  11.748  1.00  0.00     0.000 A 
HETATM   28  C   UNL     1      43.191  -7.549  10.473  1.00  0.00     0.002 A 
HETATM   29  C   UNL     1      43.023  -8.426   9.398  1.00  0.00     0.029 A 
ENDBRANCH  21  24
ENDBRANCH   4  20
TORSDOF 5
ENDMDL
MODEL 4
REMARK VINA RESULT:      -7.8      2.075      2.674
REMARK  5 active torsions:
REMARK  status: ('A' for Active; 'I' for Inactive)
REMARK    1  A    between atoms: C_6  and  C_7 
REMARK    2  A    between atoms: C_7  and  N_8 
REMARK       I    between atoms: N_8  and  C_9 
REMARK       I    between atoms: C_9  and  N_10 
REMARK    3  A    between atoms: N_10  and  C_11 
REMARK    4  A    between atoms: C_14  and  C_15 
REMARK       I    between atoms: C_15  and  N_16 
REMARK    5  A    between atoms: N_16  and  C_17 
ROOT
HETATM    1  C   UNL     1      41.594 -11.580   4.593  1.00  0.00     0.036 A 
HETATM    2  C   UNL     1      40.417 -12.329   4.536  1.00  0.00     0.030 A 
HETATM    3  C   UNL     1      40.461 -13.701   4.259  1.00  0.00     0.019 A 
HETATM    4  C   UNL     1      41.682 -14.334   4.002  1.00  0.00     0.032 A 
HETATM    5  C   UNL     1      42.860 -13.581   4.018  1.00  0.00     0.019 A 
HETATM    6  C   UNL     1      42.809 -12.211   4.297  1.00  0.00     0.030 A 
ENDROOT
BRANCH   1   7
HETATM    7  N   UNL     1      41.656 -10.210   4.908  1.00  0.00    -0.309 N 
HETATM    8  C   UNL     1      41.720  -9.532   6.086  1.00  0.00     0.321 C 
HETATM    9  N   UNL     1      41.973 -10.237   7.213  1.00  0.00    -0.337 N 
HETATM   10  O   UNL     1      41.594  -8.309   6.086  1.00  0.00    -0.247 OA
HETATM   11  H   UNL     1      42.487 -11.100   7.112  1.00  0.00     0.164 HD
HETATM   12  H   UNL     1      41.667  -9.565   4.128  1.00  0.00     0.170 HD
BRANCH   9  13
HETATM   13  C   UNL     1      42.163  -9.570   8.479  1.00  0.00     0.186 C 
BRANCH  13  14
HETATM   14  C   UNL     1      43.551  -9.809   8.961  1.00  0.00     0.083 A 
HETATM   15  C   UNL     1      44.049  -9.687  10.243  1.00  0.00     0.076 A 
HETATM   16  C   UNL     1      43.478  -9.292  11.542  1.00  0.00     0.079 C 
HETATM   17  O   UNL     1      45.376 -10.016  10.213  1.00  0.00    -0.307 OA
HETATM   18  C   UNL     1      45.612 -10.315   8.907  1.00  0.00     0.258 A 
HETATM   19  N   UNL     1      44.575 -10.196   8.110  1.00  0.00    -0.237 NA
ENDBRANCH  13  14
ENDBRANCH   9  13
ENDBRANCH   1   7
BRANCH   4  20
HETATM   20  C   UNL     1      41.694 -15.810   3.783  1.00  0.00     0.256 C 
HETATM   21  N   UNL     1      42.932 -16.347   3.478  1.00  0.00    -0.323 N 
HETATM   22  H   UNL     1      43.676 -15.698   3.258  1.00  0.00     0.169 HD
HETATM   23  O   UNL     1      40.632 -16.414   3.868  1.00  0.00    -0.267 OA
BRANCH  21  24
HETATM   24  C   UNL     1      43.264 -17.714   3.376  1.00  0.00     0.035 A 
HETATM   25  C   UNL     1      43.010 -18.494   2.247  1.00  0.00     0.029 A 
HETATM   26  C   UNL     1      43.339 -19.854   2.234  1.00  0.00     0.002 A 
HETATM   27  C   UNL     1      43.924 -20.445   3.351  1.00  0.00     0.000 A 
HETATM   28  C   UNL     1      44.182 -19.677   4.483  1.00  0.00     0.002 A 
HETATM   29  C   UNL     1      43.851 -18.319   4.496  1.00  0.00     0.029 A 
ENDBRANCH  21  24
ENDBRANCH   4  20
TORSDOF 5
ENDMDL
MODEL 5
REMARK VINA RESULT:      -7.8      2.697      9.169
REMARK  5 active torsions:
REMARK  status: ('A' for Active; 'I' for Inactive)
REMARK    1  A    between atoms: C_6  and  C_7 
REMARK    2  A    between atoms: C_7  and  N_8 
REMARK       I    between atoms: N_8  and  C_9 
REMARK       I    between atoms: C_9  and  N_10 
REMARK    3  A    between atoms: N_10  and  C_11 
REMARK    4  A    between atoms: C_14  and  C_15 
REMARK       I    between atoms: C_15  and  N_16 
REMARK    5  A    between atoms: N_16  and  C_17 
ROOT
HETATM    1  C   UNL     1      40.377 -13.349   3.828  1.00  0.00     0.036 A 
HETATM    2  C   UNL     1      41.353 -12.431   3.435  1.00  0.00     0.030 A 
HETATM    3  C   UNL     1      41.897 -11.532   4.361  1.00  0.00     0.019 A 
HETATM    4  C   UNL     1      41.447 -11.519   5.685  1.00  0.00     0.032 A 
HETATM    5  C   UNL     1      40.441 -12.408   6.075  1.00  0.00     0.019 A 
HETATM    6  C   UNL     1      39.902 -13.305   5.146  1.00  0.00     0.030 A 
ENDROOT
BRANCH   1   7
HETATM    7  N   UNL     1      39.805 -14.319   2.985  1.00  0.00    -0.309 N 
HETATM    8  C   UNL     1      40.302 -15.436   2.387  1.00  0.00     0.321 C 
HETATM    9  N   UNL     1      41.518 -15.881   2.779  1.00  0.00    -0.337 N 
HETATM   10  O   UNL     1      39.619 -16.026   1.551  1.00  0.00    -0.247 OA
HETATM   11  H   UNL     1      41.812 -15.651   3.717  1.00  0.00     0.164 HD
HETATM   12  H   UNL     1      38.824 -14.205   2.762  1.00  0.00     0.170 HD
BRANCH   9  13
HETATM   13  C   UNL     1      42.056 -17.118   2.266  1.00  0.00     0.186 C 
BRANCH  13  14
HETATM   14  C   UNL     1      43.072 -17.647   3.216  1.00  0.00     0.083 A 
HETATM   15  C   UNL     1      43.741 -18.854   3.176  1.00  0.00     0.076 A 
HETATM   16  C   UNL     1      43.721 -20.019   2.274  1.00  0.00     0.079 C 
HETATM   17  O   UNL     1      44.585 -18.905   4.250  1.00  0.00    -0.307 OA
HETATM   18  C   UNL     1      44.376 -17.723   4.890  1.00  0.00     0.258 A 
HETATM   19  N   UNL     1      43.479 -16.939   4.336  1.00  0.00    -0.237 NA
ENDBRANCH  13  14
ENDBRANCH   9  13
ENDBRANCH   1   7
BRANCH   4  20
HETATM   20  C   UNL     1      42.102 -10.596   6.658  1.00  0.00     0.256 C 
HETATM   21  N   UNL     1      43.062 -11.180   7.464  1.00  0.00    -0.323 N 
HETATM   22  H   UNL     1      43.119 -12.190   7.457  1.00  0.00     0.169 HD
HETATM   23  O   UNL     1      41.736  -9.428   6.681  1.00  0.00    -0.267 OA
BRANCH  21  24
HETATM   24  C   UNL     1      43.941 -10.525   8.352  1.00  0.00     0.035 A 
HETATM   25  C   UNL     1      45.091  -9.844   7.948  1.00  0.00     0.029 A 
HETATM   26  C   UNL     1      45.932  -9.248   8.893  1.00  0.00     0.002 A 
HETATM   27  C   UNL     1      45.631  -9.328  10.250  1.00  0.00     0.000 A 
HETATM   28  C   UNL     1      44.487 -10.004  10.665  1.00  0.00     0.002 A 
HETATM   29  C   UNL     1      43.648 -10.602   9.720  1.00  0.00     0.029 A 
ENDBRANCH  21  24
ENDBRANCH   4  20
TORSDOF 5
ENDMDL
MODEL 6
REMARK VINA RESULT:      -7.6     17.812     18.899
REMARK  5 active torsions:
REMARK  status: ('A' for Active; 'I' for Inactive)
REMARK    1  A    between atoms: C_6  and  C_7 
REMARK    2  A    between atoms: C_7  and  N_8 
REMARK       I    between atoms: N_8  and  C_9 
REMARK       I    between atoms: C_9  and  N_10 
REMARK    3  A    between atoms: N_10  and  C_11 
REMARK    4  A    between atoms: C_14  and  C_15 
REMARK       I    between atoms: C_15  and  N_16 
REMARK    5  A    between atoms: N_16  and  C_17 
ROOT
HETATM    1  C   UNL     1      40.561 -31.156   3.796  1.00  0.00     0.036 A 
HETATM    2  C   UNL     1      40.497 -31.826   2.573  1.00  0.00     0.030 A 
HETATM    3  C   UNL     1      41.436 -31.562   1.568  1.00  0.00     0.019 A 
HETATM    4  C   UNL     1      42.431 -30.598   1.762  1.00  0.00     0.032 A 
HETATM    5  C   UNL     1      42.476 -29.894   2.970  1.00  0.00     0.019 A 
HETATM    6  C   UNL     1      41.536 -30.165   3.971  1.00  0.00     0.030 A 
ENDROOT
BRANCH   1   7
HETATM    7  N   UNL     1      39.694 -31.385   4.881  1.00  0.00    -0.309 N 
HETATM    8  C   UNL     1      39.786 -32.166   5.991  1.00  0.00     0.321 C 
HETATM    9  N   UNL     1      40.987 -32.712   6.288  1.00  0.00    -0.337 N 
HETATM   10  O   UNL     1      38.797 -32.312   6.708  1.00  0.00    -0.247 OA
HETATM   11  H   UNL     1      41.809 -32.228   5.956  1.00  0.00     0.164 HD
HETATM   12  H   UNL     1      38.819 -30.877   4.877  1.00  0.00     0.170 HD
BRANCH   9  13
HETATM   13  C   UNL     1      41.182 -33.460   7.507  1.00  0.00     0.186 C 
BRANCH  13  14
HETATM   14  C   UNL     1      41.859 -32.598   8.514  1.00  0.00     0.083 A 
HETATM   15  C   UNL     1      43.207 -32.504   8.799  1.00  0.00     0.076 A 
HETATM   16  C   UNL     1      44.421 -33.164   8.289  1.00  0.00     0.079 C 
HETATM   17  O   UNL     1      43.364 -31.576   9.791  1.00  0.00    -0.307 OA
HETATM   18  C   UNL     1      42.097 -31.161  10.059  1.00  0.00     0.258 A 
HETATM   19  N   UNL     1      41.157 -31.740   9.347  1.00  0.00    -0.237 NA
ENDBRANCH  13  14
ENDBRANCH   9  13
ENDBRANCH   1   7
BRANCH   4  20
HETATM   20  C   UNL     1      43.455 -30.397   0.696  1.00  0.00     0.256 C 
HETATM   21  N   UNL     1      43.989 -29.123   0.629  1.00  0.00    -0.323 N 
HETATM   22  H   UNL     1      43.532 -28.401   1.170  1.00  0.00     0.169 HD
HETATM   23  O   UNL     1      43.723 -31.346  -0.031  1.00  0.00    -0.267 OA
BRANCH  21  24
HETATM   24  C   UNL     1      45.073 -28.696  -0.167  1.00  0.00     0.035 A 
HETATM   25  C   UNL     1      44.984 -28.461  -1.540  1.00  0.00     0.029 A 
HETATM   26  C   UNL     1      46.113 -28.071  -2.268  1.00  0.00     0.002 A 
HETATM   27  C   UNL     1      47.340 -27.913  -1.629  1.00  0.00     0.000 A 
HETATM   28  C   UNL     1      47.440 -28.145  -0.260  1.00  0.00     0.002 A 
HETATM   29  C   UNL     1      46.312 -28.537   0.466  1.00  0.00     0.029 A 
ENDBRANCH  21  24
ENDBRANCH   4  20
TORSDOF 5
ENDMDL
MODEL 7
REMARK VINA RESULT:      -7.5      1.823      2.589
REMARK  5 active torsions:
REMARK  status: ('A' for Active; 'I' for Inactive)
REMARK    1  A    between atoms: C_6  and  C_7 
REMARK    2  A    between atoms: C_7  and  N_8 
REMARK       I    between atoms: N_8  and  C_9 
REMARK       I    between atoms: C_9  and  N_10 
REMARK    3  A    between atoms: N_10  and  C_11 
REMARK    4  A    between atoms: C_14  and  C_15 
REMARK       I    between atoms: C_15  and  N_16 
REMARK    5  A    between atoms: N_16  and  C_17 
ROOT
HETATM    1  C   UNL     1      43.407 -10.443   7.939  1.00  0.00     0.036 A 
HETATM    2  C   UNL     1      44.165 -11.590   7.697  1.00  0.00     0.030 A 
HETATM    3  C   UNL     1      43.797 -12.484   6.684  1.00  0.00     0.019 A 
HETATM    4  C   UNL     1      42.645 -12.258   5.922  1.00  0.00     0.032 A 
HETATM    5  C   UNL     1      41.860 -11.132   6.187  1.00  0.00     0.019 A 
HETATM    6  C   UNL     1      42.234 -10.241   7.200  1.00  0.00     0.030 A 
ENDROOT
BRANCH   1   7
HETATM    7  N   UNL     1      43.720  -9.465   8.901  1.00  0.00    -0.309 N 
HETATM    8  C   UNL     1      43.453  -9.354  10.231  1.00  0.00     0.321 C 
HETATM    9  N   UNL     1      42.964 -10.439  10.875  1.00  0.00    -0.337 N 
HETATM   10  O   UNL     1      43.704  -8.299  10.810  1.00  0.00    -0.247 OA
HETATM   11  H   UNL     1      43.192 -11.345  10.491  1.00  0.00     0.164 HD
HETATM   12  H   UNL     1      44.263  -8.672   8.582  1.00  0.00     0.170 HD
BRANCH   9  13
HETATM   13  C   UNL     1      42.761 -10.426  12.303  1.00  0.00     0.186 C 
BRANCH  13  14
HETATM   14  C   UNL     1      41.458  -9.777  12.613  1.00  0.00     0.083 A 
HETATM   15  C   UNL     1      41.131  -8.970  13.684  1.00  0.00     0.076 A 
HETATM   16  C   UNL     1      41.859  -8.472  14.864  1.00  0.00     0.079 C 
HETATM   17  O   UNL     1      39.823  -8.598  13.549  1.00  0.00    -0.307 OA
HETATM   18  C   UNL     1      39.423  -9.209  12.401  1.00  0.00     0.258 A 
HETATM   19  N   UNL     1      40.341  -9.936  11.807  1.00  0.00    -0.237 NA
ENDBRANCH  13  14
ENDBRANCH   9  13
ENDBRANCH   1   7
BRANCH   4  20
HETATM   20  C   UNL     1      42.328 -13.194   4.805  1.00  0.00     0.256 C 
HETATM   21  N   UNL     1      43.246 -14.210   4.611  1.00  0.00    -0.323 N 
HETATM   22  H   UNL     1      44.125 -14.139   5.108  1.00  0.00     0.169 HD
HETATM   23  O   UNL     1      41.314 -12.986   4.149  1.00  0.00    -0.267 OA
BRANCH  21  24
HETATM   24  C   UNL     1      43.124 -15.314   3.743  1.00  0.00     0.035 A 
HETATM   25  C   UNL     1      42.898 -16.623   4.175  1.00  0.00     0.029 A 
HETATM   26  C   UNL     1      42.822 -17.672   3.254  1.00  0.00     0.002 A 
HETATM   27  C   UNL     1      42.972 -17.423   1.892  1.00  0.00     0.000 A 
HETATM   28  C   UNL     1      43.198 -16.122   1.449  1.00  0.00     0.002 A 
HETATM   29  C   UNL     1      43.276 -15.074   2.371  1.00  0.00     0.029 A 
ENDBRANCH  21  24
ENDBRANCH   4  20
TORSDOF 5
ENDMDL
MODEL 8
REMARK VINA RESULT:      -7.3      6.905      9.394
REMARK  5 active torsions:
REMARK  status: ('A' for Active; 'I' for Inactive)
REMARK    1  A    between atoms: C_6  and  C_7 
REMARK    2  A    between atoms: C_7  and  N_8 
REMARK       I    between atoms: N_8  and  C_9 
REMARK       I    between atoms: C_9  and  N_10 
REMARK    3  A    between atoms: N_10  and  C_11 
REMARK    4  A    between atoms: C_14  and  C_15 
REMARK       I    between atoms: C_15  and  N_16 
REMARK    5  A    between atoms: N_16  and  C_17 
ROOT
HETATM    1  C   UNL     1      39.044 -12.736  -0.645  1.00  0.00     0.036 A 
HETATM    2  C   UNL     1      39.460 -14.000  -1.069  1.00  0.00     0.030 A 
HETATM    3  C   UNL     1      40.012 -14.908  -0.158  1.00  0.00     0.019 A 
HETATM    4  C   UNL     1      40.187 -14.551   1.183  1.00  0.00     0.032 A 
HETATM    5  C   UNL     1      39.810 -13.273   1.605  1.00  0.00     0.019 A 
HETATM    6  C   UNL     1      39.257 -12.370   0.690  1.00  0.00     0.030 A 
ENDROOT
BRANCH   1   7
HETATM    7  N   UNL     1      38.438 -11.773  -1.473  1.00  0.00    -0.309 N 
HETATM    8  C   UNL     1      38.938 -10.810  -2.294  1.00  0.00     0.321 C 
HETATM    9  N   UNL     1      40.261 -10.839  -2.578  1.00  0.00    -0.337 N 
HETATM   10  O   UNL     1      38.175  -9.980  -2.784  1.00  0.00    -0.247 OA
HETATM   11  H   UNL     1      40.723 -11.736  -2.530  1.00  0.00     0.164 HD
HETATM   12  H   UNL     1      37.426 -11.770  -1.500  1.00  0.00     0.170 HD
BRANCH   9  13
HETATM   13  C   UNL     1      40.837  -9.917  -3.526  1.00  0.00     0.186 C 
BRANCH  13  14
HETATM   14  C   UNL     1      41.642  -8.897  -2.799  1.00  0.00     0.083 A 
HETATM   15  C   UNL     1      42.198  -7.732  -3.288  1.00  0.00     0.076 A 
HETATM   16  C   UNL     1      42.241  -7.080  -4.608  1.00  0.00     0.079 C 
HETATM   17  O   UNL     1      42.843  -7.107  -2.257  1.00  0.00    -0.307 OA
HETATM   18  C   UNL     1      42.646  -7.935  -1.195  1.00  0.00     0.258 A 
HETATM   19  N   UNL     1      41.955  -9.022  -1.455  1.00  0.00    -0.237 NA
ENDBRANCH  13  14
ENDBRANCH   9  13
ENDBRANCH   1   7
BRANCH   4  20
HETATM   20  C   UNL     1      40.711 -15.572   2.136  1.00  0.00     0.256 C 
HETATM   21  N   UNL     1      41.969 -16.063   1.837  1.00  0.00    -0.323 N 
HETATM   22  H   UNL     1      42.350 -15.834   0.928  1.00  0.00     0.169 HD
HETATM   23  O   UNL     1      39.998 -15.903   3.075  1.00  0.00    -0.267 OA
BRANCH  21  24
HETATM   24  C   UNL     1      42.765 -16.909   2.636  1.00  0.00     0.035 A 
HETATM   25  C   UNL     1      43.096 -18.221   2.291  1.00  0.00     0.029 A 
HETATM   26  C   UNL     1      43.863 -19.010   3.154  1.00  0.00     0.002 A 
HETATM   27  C   UNL     1      44.306 -18.495   4.370  1.00  0.00     0.000 A 
HETATM   28  C   UNL     1      43.982 -17.188   4.725  1.00  0.00     0.002 A 
HETATM   29  C   UNL     1      43.213 -16.401   3.863  1.00  0.00     0.029 A 
ENDBRANCH  21  24
ENDBRANCH   4  20
TORSDOF 5
ENDMDL
MODEL 9
REMARK VINA RESULT:      -7.1     18.325     20.971
REMARK  5 active torsions:
REMARK  status: ('A' for Active; 'I' for Inactive)
REMARK    1  A    between atoms: C_6  and  C_7 
REMARK    2  A    between atoms: C_7  and  N_8 
REMARK       I    between atoms: N_8  and  C_9 
REMARK       I    between atoms: C_9  and  N_10 
REMARK    3  A    between atoms: N_10  and  C_11 
REMARK    4  A    between atoms: C_14  and  C_15 
REMARK       I    between atoms: C_15  and  N_16 
REMARK    5  A    between atoms: N_16  and  C_17 
ROOT
HETATM    1  C   UNL     1      47.490 -28.469  -1.512  1.00  0.00     0.036 A 
HETATM    2  C   UNL     1      48.562 -29.293  -1.861  1.00  0.00     0.030 A 
HETATM    3  C   UNL     1      49.262 -30.003  -0.878  1.00  0.00     0.019 A 
HETATM    4  C   UNL     1      48.918 -29.873   0.471  1.00  0.00     0.032 A 
HETATM    5  C   UNL     1      47.871 -29.018   0.831  1.00  0.00     0.019 A 
HETATM    6  C   UNL     1      47.175 -28.312  -0.156  1.00  0.00     0.030 A 
ENDROOT
BRANCH   1   7
HETATM    7  N   UNL     1      46.700 -27.752  -2.430  1.00  0.00    -0.309 N 
HETATM    8  C   UNL     1      45.600 -28.081  -3.160  1.00  0.00     0.321 C 
HETATM    9  N   UNL     1      44.961 -29.236  -2.864  1.00  0.00    -0.337 N 
HETATM   10  O   UNL     1      45.197 -27.306  -4.026  1.00  0.00    -0.247 OA
HETATM   11  H   UNL     1      45.048 -29.582  -1.919  1.00  0.00     0.164 HD
HETATM   12  H   UNL     1      46.964 -26.790  -2.602  1.00  0.00     0.170 HD
BRANCH   9  13
HETATM   13  C   UNL     1      43.728 -29.593  -3.523  1.00  0.00     0.186 C 
BRANCH  13  14
HETATM   14  C   UNL     1      43.984 -30.693  -4.492  1.00  0.00     0.083 A 
HETATM   15  C   UNL     1      44.166 -32.037  -4.238  1.00  0.00     0.076 A 
HETATM   16  C   UNL     1      44.196 -32.866  -3.021  1.00  0.00     0.079 C 
HETATM   17  O   UNL     1      44.363 -32.670  -5.435  1.00  0.00    -0.307 OA
HETATM   18  C   UNL     1      44.296 -31.667  -6.352  1.00  0.00     0.258 A 
HETATM   19  N   UNL     1      44.089 -30.469  -5.856  1.00  0.00    -0.237 NA
ENDBRANCH  13  14
ENDBRANCH   9  13
ENDBRANCH   1   7
BRANCH   4  20
HETATM   20  C   UNL     1      49.639 -30.702   1.480  1.00  0.00     0.256 C 
HETATM   21  N   UNL     1      49.485 -30.295   2.793  1.00  0.00    -0.323 N 
HETATM   22  H   UNL     1      49.056 -29.392   2.949  1.00  0.00     0.169 HD
HETATM   23  O   UNL     1      50.311 -31.644   1.078  1.00  0.00    -0.267 OA
BRANCH  21  24
HETATM   24  C   UNL     1      49.917 -30.973   3.951  1.00  0.00     0.035 A 
HETATM   25  C   UNL     1      49.122 -31.865   4.673  1.00  0.00     0.029 A 
HETATM   26  C   UNL     1      49.611 -32.473   5.834  1.00  0.00     0.002 A 
HETATM   27  C   UNL     1      50.900 -32.195   6.283  1.00  0.00     0.000 A 
HETATM   28  C   UNL     1      51.702 -31.307   5.571  1.00  0.00     0.002 A 
HETATM   29  C   UNL     1      51.211 -30.697   4.413  1.00  0.00     0.029 A 
ENDBRANCH  21  24
ENDBRANCH   4  20
TORSDOF 5
ENDMDL
MODEL 10
REMARK VINA RESULT:      -7.0      1.740      2.371
REMARK  5 active torsions:
REMARK  status: ('A' for Active; 'I' for Inactive)
REMARK    1  A    between atoms: C_6  and  C_7 
REMARK    2  A    between atoms: C_7  and  N_8 
REMARK       I    between atoms: N_8  and  C_9 
REMARK       I    between atoms: C_9  and  N_10 
REMARK    3  A    between atoms: N_10  and  C_11 
REMARK    4  A    between atoms: C_14  and  C_15 
REMARK       I    between atoms: C_15  and  N_16 
REMARK    5  A    between atoms: N_16  and  C_17 
ROOT
HETATM    1  C   UNL     1      42.680  -9.421   7.098  1.00  0.00     0.036 A 
HETATM    2  C   UNL     1      43.701 -10.230   7.601  1.00  0.00     0.030 A 
HETATM    3  C   UNL     1      43.858 -11.544   7.142  1.00  0.00     0.019 A 
HETATM    4  C   UNL     1      42.974 -12.075   6.197  1.00  0.00     0.032 A 
HETATM    5  C   UNL     1      41.925 -11.284   5.719  1.00  0.00     0.019 A 
HETATM    6  C   UNL     1      41.775  -9.971   6.181  1.00  0.00     0.030 A 
ENDROOT
BRANCH   1   7
HETATM    7  N   UNL     1      42.471  -8.078   7.462  1.00  0.00    -0.309 N 
HETATM    8  C   UNL     1      41.752  -7.489   8.456  1.00  0.00     0.321 C 
HETATM    9  N   UNL     1      41.272  -8.276   9.447  1.00  0.00    -0.337 N 
HETATM   10  O   UNL     1      41.601  -6.269   8.449  1.00  0.00    -0.247 OA
HETATM   11  H   UNL     1      41.773  -9.131   9.639  1.00  0.00     0.164 HD
HETATM   12  H   UNL     1      42.940  -7.378   6.902  1.00  0.00     0.170 HD
BRANCH   9  13
HETATM   13  C   UNL     1      40.596  -7.705  10.587  1.00  0.00     0.186 C 
BRANCH  13  14
HETATM   14  C   UNL     1      40.725  -8.624  11.750  1.00  0.00     0.083 A 
HETATM   15  C   UNL     1      41.811  -8.814  12.580  1.00  0.00     0.076 A 
HETATM   16  C   UNL     1      43.173  -8.255  12.647  1.00  0.00     0.079 C 
HETATM   17  O   UNL     1      41.468  -9.750  13.516  1.00  0.00    -0.307 OA
HETATM   18  C   UNL     1      40.189 -10.083  13.197  1.00  0.00     0.258 A 
HETATM   19  N   UNL     1      39.695  -9.462  12.150  1.00  0.00    -0.237 NA
ENDBRANCH  13  14
ENDBRANCH   9  13
ENDBRANCH   1   7
BRANCH   4  20
HETATM   20  C   UNL     1      43.218 -13.453   5.680  1.00  0.00     0.256 C 
HETATM   21  N   UNL     1      42.545 -13.770   4.514  1.00  0.00    -0.323 N 
HETATM   22  H   UNL     1      41.824 -13.130   4.209  1.00  0.00     0.169 HD
HETATM   23  O   UNL     1      43.961 -14.186   6.321  1.00  0.00    -0.267 OA
BRANCH  21  24
HETATM   24  C   UNL     1      42.706 -14.929   3.726  1.00  0.00     0.035 A 
HETATM   25  C   UNL     1      42.394 -16.217   4.165  1.00  0.00     0.029 A 
HETATM   26  C   UNL     1      42.614 -17.322   3.337  1.00  0.00     0.002 A 
HETATM   27  C   UNL     1      43.148 -17.149   2.062  1.00  0.00     0.000 A 
HETATM   28  C   UNL     1      43.462 -15.869   1.614  1.00  0.00     0.002 A 
HETATM   29  C   UNL     1      43.244 -14.765   2.443  1.00  0.00     0.029 A 
ENDBRANCH  21  24
ENDBRANCH   4  20
TORSDOF 5
ENDMDL
