MODEL 1
REMARK VINA RESULT:      -8.7      0.000      0.000
REMARK  3 active torsions:
REMARK  status: ('A' for Active; 'I' for Inactive)
REMARK    1  A    between atoms: C_7  and  C_10 
REMARK    2  A    between atoms: C_10  and  N_11 
REMARK    3  A    between atoms: N_11  and  C_12 
ROOT
HETATM    1  C   UNL     1      43.546 -20.344   2.316  1.00  0.00     0.002 A 
HETATM    2  C   UNL     1      43.253 -18.979   2.222  1.00  0.00     0.033 A 
HETATM    3  C   UNL     1      43.382 -18.156   3.358  1.00  0.00     0.075 A 
HETATM    4  C   UNL     1      43.801 -18.727   4.557  1.00  0.00     0.035 A 
HETATM    5  S   UNL     1      43.867 -17.505   5.761  1.00  0.00    -0.067 SA
HETATM    6  C   UNL     1      43.339 -16.306   4.619  1.00  0.00     0.121 A 
HETATM    7  C   UNL     1      43.169 -14.931   5.010  1.00  0.00     0.095 C 
HETATM    8  C   UNL     1      43.423 -14.488   6.341  1.00  0.00     0.103 C 
HETATM    9  N   UNL     1      43.621 -14.094   7.416  1.00  0.00    -0.191 NA
HETATM   10  N   UNL     1      43.126 -16.798   3.409  1.00  0.00    -0.239 NA
HETATM   11  C   UNL     1      44.099 -20.095   4.665  1.00  0.00     0.021 A 
HETATM   12  C   UNL     1      43.965 -20.892   3.524  1.00  0.00     0.002 A 
ENDROOT
BRANCH   7  13
HETATM   13  C   UNL     1      42.755 -14.044   4.078  1.00  0.00     0.114 C 
BRANCH  13  14
HETATM   14  N   UNL     1      41.485 -13.823   3.587  1.00  0.00    -0.364 N 
HETATM   15  H   UNL     1      40.799 -13.458   4.245  1.00  0.00     0.165 HD
BRANCH  14  16
HETATM   16  C   UNL     1      40.993 -14.019   2.282  1.00  0.00     0.034 A 
HETATM   17  C   UNL     1      41.106 -13.072   1.255  1.00  0.00     0.069 A 
HETATM   18  C   UNL     1      40.601 -13.336  -0.022  1.00  0.00     0.104 A 
HETATM   19  C   UNL     1      39.947 -14.540  -0.287  1.00  0.00     0.102 A 
HETATM   20  O   UNL     1      40.779 -12.355  -0.967  1.00  0.00    -0.346 OA
HETATM   21  O   UNL     1      39.399 -14.849  -1.505  1.00  0.00    -0.346 OA
HETATM   22  C   UNL     1      39.837 -15.497   0.713  1.00  0.00     0.042 A 
HETATM   23  C   UNL     1      39.272 -13.684  -2.329  1.00  0.00     0.202 C 
HETATM   24  C   UNL     1      40.545 -12.856  -2.288  1.00  0.00     0.202 C 
HETATM   25  C   UNL     1      40.355 -15.236   1.986  1.00  0.00     0.032 A 
ENDBRANCH  14  16
ENDBRANCH  13  14
ENDBRANCH   7  13
TORSDOF 3
ENDMDL
MODEL 2
REMARK VINA RESULT:      -8.5      1.628      2.323
REMARK  3 active torsions:
REMARK  status: ('A' for Active; 'I' for Inactive)
REMARK    1  A    between atoms: C_7  and  C_10 
REMARK    2  A    between atoms: C_10  and  N_11 
REMARK    3  A    between atoms: N_11  and  C_12 
ROOT
HETATM    1  C   UNL     1      43.909 -20.618   3.215  1.00  0.00     0.002 A 
HETATM    2  C   UNL     1      43.624 -19.482   2.451  1.00  0.00     0.033 A 
HETATM    3  C   UNL     1      43.539 -18.222   3.076  1.00  0.00     0.075 A 
HETATM    4  C   UNL     1      43.743 -18.138   4.450  1.00  0.00     0.035 A 
HETATM    5  S   UNL     1      43.582 -16.500   4.937  1.00  0.00    -0.067 SA
HETATM    6  C   UNL     1      43.254 -16.012   3.302  1.00  0.00     0.121 A 
HETATM    7  C   UNL     1      43.003 -14.634   2.973  1.00  0.00     0.095 C 
HETATM    8  C   UNL     1      43.012 -13.608   3.964  1.00  0.00     0.103 C 
HETATM    9  N   UNL     1      43.011 -12.749   4.746  1.00  0.00    -0.191 NA
HETATM   10  N   UNL     1      43.265 -17.021   2.446  1.00  0.00    -0.239 NA
HETATM   11  C   UNL     1      44.031 -19.271   5.229  1.00  0.00     0.021 A 
HETATM   12  C   UNL     1      44.110 -20.511   4.588  1.00  0.00     0.002 A 
ENDROOT
BRANCH   7  13
HETATM   13  C   UNL     1      42.753 -14.314   1.685  1.00  0.00     0.114 C 
BRANCH  13  14
HETATM   14  N   UNL     1      41.729 -14.738   0.863  1.00  0.00    -0.364 N 
HETATM   15  H   UNL     1      41.720 -15.725   0.618  1.00  0.00     0.165 HD
BRANCH  14  16
HETATM   16  C   UNL     1      40.665 -13.993   0.317  1.00  0.00     0.034 A 
HETATM   17  C   UNL     1      40.012 -14.325  -0.877  1.00  0.00     0.069 A 
HETATM   18  C   UNL     1      38.957 -13.545  -1.359  1.00  0.00     0.104 A 
HETATM   19  C   UNL     1      38.553 -12.401  -0.669  1.00  0.00     0.102 A 
HETATM   20  O   UNL     1      38.367 -13.963  -2.526  1.00  0.00    -0.346 OA
HETATM   21  O   UNL     1      37.551 -11.573  -1.101  1.00  0.00    -0.346 OA
HETATM   22  C   UNL     1      39.178 -12.062   0.525  1.00  0.00     0.042 A 
HETATM   23  C   UNL     1      37.226 -11.821  -2.474  1.00  0.00     0.202 C 
HETATM   24  C   UNL     1      37.108 -13.312  -2.736  1.00  0.00     0.202 C 
HETATM   25  C   UNL     1      40.224 -12.853   1.012  1.00  0.00     0.032 A 
ENDBRANCH  14  16
ENDBRANCH  13  14
ENDBRANCH   7  13
TORSDOF 3
ENDMDL
MODEL 3
REMARK VINA RESULT:      -8.1      4.316      6.820
REMARK  3 active torsions:
REMARK  status: ('A' for Active; 'I' for Inactive)
REMARK    1  A    between atoms: C_7  and  C_10 
REMARK    2  A    between atoms: C_10  and  N_11 
REMARK    3  A    between atoms: N_11  and  C_12 
ROOT
HETATM    1  C   UNL     1      44.161 -18.606   4.258  1.00  0.00     0.002 A 
HETATM    2  C   UNL     1      43.637 -17.534   4.987  1.00  0.00     0.033 A 
HETATM    3  C   UNL     1      42.709 -16.663   4.381  1.00  0.00     0.075 A 
HETATM    4  C   UNL     1      42.334 -16.894   3.060  1.00  0.00     0.035 A 
HETATM    5  S   UNL     1      41.205 -15.692   2.584  1.00  0.00    -0.067 SA
HETATM    6  C   UNL     1      41.286 -14.949   4.152  1.00  0.00     0.121 A 
HETATM    7  C   UNL     1      40.509 -13.778   4.461  1.00  0.00     0.095 C 
HETATM    8  C   UNL     1      39.640 -13.175   3.504  1.00  0.00     0.103 C 
HETATM    9  N   UNL     1      38.923 -12.659   2.749  1.00  0.00    -0.191 NA
HETATM   10  N   UNL     1      42.113 -15.568   4.980  1.00  0.00    -0.239 NA
HETATM   11  C   UNL     1      42.853 -17.967   2.317  1.00  0.00     0.021 A 
HETATM   12  C   UNL     1      43.772 -18.818   2.939  1.00  0.00     0.002 A 
ENDROOT
BRANCH   7  13
HETATM   13  C   UNL     1      40.613 -13.243   5.697  1.00  0.00     0.114 C 
BRANCH  13  14
HETATM   14  N   UNL     1      41.079 -12.000   6.074  1.00  0.00    -0.364 N 
HETATM   15  H   UNL     1      40.406 -11.237   6.053  1.00  0.00     0.165 HD
BRANCH  14  16
HETATM   16  C   UNL     1      42.368 -11.629   6.504  1.00  0.00     0.034 A 
HETATM   17  C   UNL     1      42.664 -10.403   7.115  1.00  0.00     0.069 A 
HETATM   18  C   UNL     1      43.966 -10.102   7.525  1.00  0.00     0.104 A 
HETATM   19  C   UNL     1      45.003 -11.011   7.306  1.00  0.00     0.102 A 
HETATM   20  O   UNL     1      44.153  -8.885   8.133  1.00  0.00    -0.346 OA
HETATM   21  O   UNL     1      46.306 -10.767   7.652  1.00  0.00    -0.346 OA
HETATM   22  C   UNL     1      44.727 -12.238   6.716  1.00  0.00     0.042 A 
HETATM   23  C   UNL     1      46.521  -9.378   7.926  1.00  0.00     0.202 C 
HETATM   24  C   UNL     1      45.414  -8.828   8.809  1.00  0.00     0.202 C 
HETATM   25  C   UNL     1      43.421 -12.542   6.319  1.00  0.00     0.032 A 
ENDBRANCH  14  16
ENDBRANCH  13  14
ENDBRANCH   7  13
TORSDOF 3
ENDMDL
MODEL 4
REMARK VINA RESULT:      -8.1      4.646      7.237
REMARK  3 active torsions:
REMARK  status: ('A' for Active; 'I' for Inactive)
REMARK    1  A    between atoms: C_7  and  C_10 
REMARK    2  A    between atoms: C_10  and  N_11 
REMARK    3  A    between atoms: N_11  and  C_12 
ROOT
HETATM    1  C   UNL     1      44.230 -19.797   3.852  1.00  0.00     0.002 A 
HETATM    2  C   UNL     1      44.314 -18.708   4.724  1.00  0.00     0.033 A 
HETATM    3  C   UNL     1      43.725 -17.478   4.367  1.00  0.00     0.075 A 
HETATM    4  C   UNL     1      43.069 -17.378   3.143  1.00  0.00     0.035 A 
HETATM    5  S   UNL     1      42.453 -15.785   2.970  1.00  0.00    -0.067 SA
HETATM    6  C   UNL     1      43.095 -15.335   4.522  1.00  0.00     0.121 A 
HETATM    7  C   UNL     1      42.918 -14.005   5.042  1.00  0.00     0.095 C 
HETATM    8  C   UNL     1      42.214 -12.998   4.316  1.00  0.00     0.103 C 
HETATM    9  N   UNL     1      41.647 -12.156   3.753  1.00  0.00    -0.191 NA
HETATM   10  N   UNL     1      43.732 -16.324   5.128  1.00  0.00    -0.239 NA
HETATM   11  C   UNL     1      42.977 -18.465   2.258  1.00  0.00     0.021 A 
HETATM   12  C   UNL     1      43.568 -19.675   2.634  1.00  0.00     0.002 A 
ENDROOT
BRANCH   7  13
HETATM   13  C   UNL     1      43.440 -13.712   6.253  1.00  0.00     0.114 C 
BRANCH  13  14
HETATM   14  N   UNL     1      44.555 -12.962   6.565  1.00  0.00    -0.364 N 
HETATM   15  H   UNL     1      45.458 -13.381   6.357  1.00  0.00     0.165 HD
BRANCH  14  16
HETATM   16  C   UNL     1      44.627 -11.672   7.127  1.00  0.00     0.034 A 
HETATM   17  C   UNL     1      43.522 -10.983   7.643  1.00  0.00     0.069 A 
HETATM   18  C   UNL     1      43.666  -9.706   8.194  1.00  0.00     0.104 A 
HETATM   19  C   UNL     1      44.915  -9.083   8.212  1.00  0.00     0.102 A 
HETATM   20  O   UNL     1      42.529  -9.121   8.693  1.00  0.00    -0.346 OA
HETATM   21  O   UNL     1      45.121  -7.821   8.705  1.00  0.00    -0.346 OA
HETATM   22  C   UNL     1      46.026  -9.755   7.719  1.00  0.00     0.042 A 
HETATM   23  C   UNL     1      43.885  -7.115   8.862  1.00  0.00     0.202 C 
HETATM   24  C   UNL     1      42.843  -7.998   9.526  1.00  0.00     0.202 C 
HETATM   25  C   UNL     1      45.880 -11.038   7.181  1.00  0.00     0.032 A 
ENDBRANCH  14  16
ENDBRANCH  13  14
ENDBRANCH   7  13
TORSDOF 3
ENDMDL
MODEL 5
REMARK VINA RESULT:      -8.0      4.446      7.073
REMARK  3 active torsions:
REMARK  status: ('A' for Active; 'I' for Inactive)
REMARK    1  A    between atoms: C_7  and  C_10 
REMARK    2  A    between atoms: C_10  and  N_11 
REMARK    3  A    between atoms: N_11  and  C_12 
ROOT
HETATM    1  C   UNL     1      44.184 -20.147   4.458  1.00  0.00     0.002 A 
HETATM    2  C   UNL     1      44.105 -18.854   4.985  1.00  0.00     0.033 A 
HETATM    3  C   UNL     1      43.631 -17.798   4.180  1.00  0.00     0.075 A 
HETATM    4  C   UNL     1      43.250 -18.071   2.869  1.00  0.00     0.035 A 
HETATM    5  S   UNL     1      42.719 -16.616   2.130  1.00  0.00    -0.067 SA
HETATM    6  C   UNL     1      43.027 -15.724   3.589  1.00  0.00     0.121 A 
HETATM    7  C   UNL     1      42.774 -14.310   3.664  1.00  0.00     0.095 C 
HETATM    8  C   UNL     1      42.260 -13.576   2.554  1.00  0.00     0.103 C 
HETATM    9  N   UNL     1      41.843 -12.948   1.670  1.00  0.00    -0.191 NA
HETATM   10  N   UNL     1      43.501 -16.477   4.569  1.00  0.00    -0.239 NA
HETATM   11  C   UNL     1      43.324 -19.365   2.328  1.00  0.00     0.021 A 
HETATM   12  C   UNL     1      43.797 -20.397   3.145  1.00  0.00     0.002 A 
ENDROOT
BRANCH   7  13
HETATM   13  C   UNL     1      43.033 -13.669   4.825  1.00  0.00     0.114 C 
BRANCH  13  14
HETATM   14  N   UNL     1      43.571 -12.415   5.028  1.00  0.00    -0.364 N 
HETATM   15  H   UNL     1      44.069 -12.001   4.244  1.00  0.00     0.165 HD
BRANCH  14  16
HETATM   16  C   UNL     1      43.516 -11.603   6.178  1.00  0.00     0.034 A 
HETATM   17  C   UNL     1      44.440 -11.675   7.229  1.00  0.00     0.069 A 
HETATM   18  C   UNL     1      44.331 -10.832   8.339  1.00  0.00     0.104 A 
HETATM   19  C   UNL     1      43.279  -9.920   8.432  1.00  0.00     0.102 A 
HETATM   20  O   UNL     1      45.296 -10.964   9.307  1.00  0.00    -0.346 OA
HETATM   21  O   UNL     1      43.092  -9.089   9.505  1.00  0.00    -0.346 OA
HETATM   22  C   UNL     1      42.361  -9.822   7.394  1.00  0.00     0.042 A 
HETATM   23  C   UNL     1      43.873  -9.509  10.630  1.00  0.00     0.202 C 
HETATM   24  C   UNL     1      45.291  -9.847  10.203  1.00  0.00     0.202 C 
HETATM   25  C   UNL     1      42.480 -10.658   6.278  1.00  0.00     0.032 A 
ENDBRANCH  14  16
ENDBRANCH  13  14
ENDBRANCH   7  13
TORSDOF 3
ENDMDL
MODEL 6
REMARK VINA RESULT:      -8.0      3.851      7.439
REMARK  3 active torsions:
REMARK  status: ('A' for Active; 'I' for Inactive)
REMARK    1  A    between atoms: C_7  and  C_10 
REMARK    2  A    between atoms: C_10  and  N_11 
REMARK    3  A    between atoms: N_11  and  C_12 
ROOT
HETATM    1  C   UNL     1      46.292 -10.150   7.973  1.00  0.00     0.002 A 
HETATM    2  C   UNL     1      45.992 -11.046   6.942  1.00  0.00     0.033 A 
HETATM    3  C   UNL     1      44.658 -11.200   6.514  1.00  0.00     0.075 A 
HETATM    4  C   UNL     1      43.663 -10.448   7.133  1.00  0.00     0.035 A 
HETATM    5  S   UNL     1      42.150 -10.833   6.419  1.00  0.00    -0.067 SA
HETATM    6  C   UNL     1      42.911 -11.965   5.341  1.00  0.00     0.121 A 
HETATM    7  C   UNL     1      42.140 -12.710   4.382  1.00  0.00     0.095 C 
HETATM    8  C   UNL     1      40.726 -12.558   4.267  1.00  0.00     0.103 C 
HETATM    9  N   UNL     1      39.575 -12.459   4.148  1.00  0.00    -0.191 NA
HETATM   10  N   UNL     1      44.221 -12.046   5.511  1.00  0.00    -0.239 NA
HETATM   11  C   UNL     1      43.951  -9.544   8.168  1.00  0.00     0.021 A 
HETATM   12  C   UNL     1      45.281  -9.408   8.577  1.00  0.00     0.002 A 
ENDROOT
BRANCH   7  13
HETATM   13  C   UNL     1      42.785 -13.577   3.571  1.00  0.00     0.114 C 
BRANCH  13  14
HETATM   14  N   UNL     1      42.358 -14.790   3.072  1.00  0.00    -0.364 N 
HETATM   15  H   UNL     1      41.586 -14.764   2.410  1.00  0.00     0.165 HD
BRANCH  14  16
HETATM   16  C   UNL     1      42.851 -16.082   3.340  1.00  0.00     0.034 A 
HETATM   17  C   UNL     1      42.701 -17.171   2.471  1.00  0.00     0.069 A 
HETATM   18  C   UNL     1      43.223 -18.426   2.796  1.00  0.00     0.104 A 
HETATM   19  C   UNL     1      43.880 -18.623   4.011  1.00  0.00     0.102 A 
HETATM   20  O   UNL     1      43.043 -19.424   1.871  1.00  0.00    -0.346 OA
HETATM   21  O   UNL     1      44.386 -19.833   4.409  1.00  0.00    -0.346 OA
HETATM   22  C   UNL     1      44.053 -17.553   4.881  1.00  0.00     0.042 A 
HETATM   23  C   UNL     1      43.861 -20.903   3.614  1.00  0.00     0.202 C 
HETATM   24  C   UNL     1      43.897 -20.543   2.139  1.00  0.00     0.202 C 
HETATM   25  C   UNL     1      43.541 -16.295   4.546  1.00  0.00     0.032 A 
ENDBRANCH  14  16
ENDBRANCH  13  14
ENDBRANCH   7  13
TORSDOF 3
ENDMDL
MODEL 7
REMARK VINA RESULT:      -7.9      4.234      7.274
REMARK  3 active torsions:
REMARK  status: ('A' for Active; 'I' for Inactive)
REMARK    1  A    between atoms: C_7  and  C_10 
REMARK    2  A    between atoms: C_10  and  N_11 
REMARK    3  A    between atoms: N_11  and  C_12 
ROOT
HETATM    1  C   UNL     1      46.269 -10.454   7.693  1.00  0.00     0.002 A 
HETATM    2  C   UNL     1      45.378 -11.314   7.043  1.00  0.00     0.033 A 
HETATM    3  C   UNL     1      44.007 -10.993   6.991  1.00  0.00     0.075 A 
HETATM    4  C   UNL     1      43.569  -9.818   7.595  1.00  0.00     0.035 A 
HETATM    5  S   UNL     1      41.871  -9.682   7.381  1.00  0.00    -0.067 SA
HETATM    6  C   UNL     1      41.829 -11.183   6.506  1.00  0.00     0.121 A 
HETATM    7  C   UNL     1      40.592 -11.708   5.990  1.00  0.00     0.095 C 
HETATM    8  C   UNL     1      39.351 -11.028   6.167  1.00  0.00     0.103 C 
HETATM    9  N   UNL     1      38.324 -10.501   6.293  1.00  0.00    -0.191 NA
HETATM   10  N   UNL     1      43.019 -11.749   6.386  1.00  0.00    -0.239 NA
HETATM   11  C   UNL     1      44.453  -8.945   8.250  1.00  0.00     0.021 A 
HETATM   12  C   UNL     1      45.809  -9.283   8.288  1.00  0.00     0.002 A 
ENDROOT
BRANCH   7  13
HETATM   13  C   UNL     1      40.621 -12.880   5.319  1.00  0.00     0.114 C 
BRANCH  13  14
HETATM   14  N   UNL     1      41.418 -13.259   4.258  1.00  0.00    -0.364 N 
HETATM   15  H   UNL     1      41.776 -12.512   3.668  1.00  0.00     0.165 HD
BRANCH  14  16
HETATM   16  C   UNL     1      41.826 -14.551   3.873  1.00  0.00     0.034 A 
HETATM   17  C   UNL     1      42.860 -15.262   4.498  1.00  0.00     0.069 A 
HETATM   18  C   UNL     1      43.208 -16.546   4.069  1.00  0.00     0.104 A 
HETATM   19  C   UNL     1      42.549 -17.132   2.987  1.00  0.00     0.102 A 
HETATM   20  O   UNL     1      44.220 -17.169   4.758  1.00  0.00    -0.346 OA
HETATM   21  O   UNL     1      42.863 -18.371   2.494  1.00  0.00    -0.346 OA
HETATM   22  C   UNL     1      41.512 -16.450   2.364  1.00  0.00     0.042 A 
HETATM   23  C   UNL     1      44.135 -18.818   2.978  1.00  0.00     0.202 C 
HETATM   24  C   UNL     1      44.257 -18.572   4.471  1.00  0.00     0.202 C 
HETATM   25  C   UNL     1      41.156 -15.171   2.804  1.00  0.00     0.032 A 
ENDBRANCH  14  16
ENDBRANCH  13  14
ENDBRANCH   7  13
TORSDOF 3
ENDMDL
MODEL 8
REMARK VINA RESULT:      -7.9      2.085      3.063
REMARK  3 active torsions:
REMARK  status: ('A' for Active; 'I' for Inactive)
REMARK    1  A    between atoms: C_7  and  C_10 
REMARK    2  A    between atoms: C_10  and  N_11 
REMARK    3  A    between atoms: N_11  and  C_12 
ROOT
HETATM    1  C   UNL     1      43.959 -19.245   2.939  1.00  0.00     0.002 A 
HETATM    2  C   UNL     1      42.920 -18.501   2.370  1.00  0.00     0.033 A 
HETATM    3  C   UNL     1      42.483 -17.317   2.996  1.00  0.00     0.075 A 
HETATM    4  C   UNL     1      43.101 -16.914   4.177  1.00  0.00     0.035 A 
HETATM    5  S   UNL     1      42.375 -15.454   4.714  1.00  0.00    -0.067 SA
HETATM    6  C   UNL     1      41.294 -15.453   3.353  1.00  0.00     0.121 A 
HETATM    7  C   UNL     1      40.326 -14.404   3.174  1.00  0.00     0.095 C 
HETATM    8  C   UNL     1      40.205 -13.322   4.096  1.00  0.00     0.103 C 
HETATM    9  N   UNL     1      40.081 -12.428   4.826  1.00  0.00    -0.191 NA
HETATM   10  N   UNL     1      41.471 -16.488   2.547  1.00  0.00    -0.239 NA
HETATM   11  C   UNL     1      44.145 -17.651   4.758  1.00  0.00     0.021 A 
HETATM   12  C   UNL     1      44.563 -18.823   4.119  1.00  0.00     0.002 A 
ENDROOT
BRANCH   7  13
HETATM   13  C   UNL     1      39.512 -14.456   2.097  1.00  0.00     0.114 C 
BRANCH  13  14
HETATM   14  N   UNL     1      39.831 -14.664   0.771  1.00  0.00    -0.364 N 
HETATM   15  H   UNL     1      39.846 -15.631   0.452  1.00  0.00     0.165 HD
BRANCH  14  16
HETATM   16  C   UNL     1      40.131 -13.718  -0.228  1.00  0.00     0.034 A 
HETATM   17  C   UNL     1      40.482 -12.387   0.037  1.00  0.00     0.069 A 
HETATM   18  C   UNL     1      40.775 -11.502  -1.004  1.00  0.00     0.104 A 
HETATM   19  C   UNL     1      40.694 -11.922  -2.333  1.00  0.00     0.102 A 
HETATM   20  O   UNL     1      41.129 -10.225  -0.643  1.00  0.00    -0.346 OA
HETATM   21  O   UNL     1      40.934 -11.099  -3.401  1.00  0.00    -0.346 OA
HETATM   22  C   UNL     1      40.362 -13.241  -2.616  1.00  0.00     0.042 A 
HETATM   23  C   UNL     1      40.927  -9.722  -3.009  1.00  0.00     0.202 C 
HETATM   24  C   UNL     1      41.731  -9.522  -1.736  1.00  0.00     0.202 C 
HETATM   25  C   UNL     1      40.083 -14.129  -1.572  1.00  0.00     0.032 A 
ENDBRANCH  14  16
ENDBRANCH  13  14
ENDBRANCH   7  13
TORSDOF 3
ENDMDL
MODEL 9
REMARK VINA RESULT:      -7.7      2.008      2.544
REMARK  3 active torsions:
REMARK  status: ('A' for Active; 'I' for Inactive)
REMARK    1  A    between atoms: C_7  and  C_10 
REMARK    2  A    between atoms: C_10  and  N_11 
REMARK    3  A    between atoms: N_11  and  C_12 
ROOT
HETATM    1  C   UNL     1      43.970 -18.743   2.996  1.00  0.00     0.002 A 
HETATM    2  C   UNL     1      43.100 -17.734   2.572  1.00  0.00     0.033 A 
HETATM    3  C   UNL     1      42.562 -16.833   3.513  1.00  0.00     0.075 A 
HETATM    4  C   UNL     1      42.914 -16.971   4.853  1.00  0.00     0.035 A 
HETATM    5  S   UNL     1      42.121 -15.752   5.766  1.00  0.00    -0.067 SA
HETATM    6  C   UNL     1      41.367 -15.125   4.331  1.00  0.00     0.121 A 
HETATM    7  C   UNL     1      40.485 -13.990   4.391  1.00  0.00     0.095 C 
HETATM    8  C   UNL     1      40.189 -13.328   5.620  1.00  0.00     0.103 C 
HETATM    9  N   UNL     1      39.927 -12.766   6.602  1.00  0.00    -0.191 NA
HETATM   10  N   UNL     1      41.693 -15.794   3.236  1.00  0.00    -0.239 NA
HETATM   11  C   UNL     1      43.789 -17.979   5.291  1.00  0.00     0.021 A 
HETATM   12  C   UNL     1      44.310 -18.862   4.340  1.00  0.00     0.002 A 
ENDROOT
BRANCH   7  13
HETATM   13  C   UNL     1      39.926 -13.547   3.243  1.00  0.00     0.114 C 
BRANCH  13  14
HETATM   14  N   UNL     1      40.463 -13.500   1.973  1.00  0.00    -0.364 N 
HETATM   15  H   UNL     1      41.478 -13.493   1.908  1.00  0.00     0.165 HD
BRANCH  14  16
HETATM   16  C   UNL     1      39.799 -13.475   0.731  1.00  0.00     0.034 A 
HETATM   17  C   UNL     1      38.975 -12.424   0.307  1.00  0.00     0.069 A 
HETATM   18  C   UNL     1      38.353 -12.460  -0.944  1.00  0.00     0.104 A 
HETATM   19  C   UNL     1      38.519 -13.563  -1.783  1.00  0.00     0.102 A 
HETATM   20  O   UNL     1      37.582 -11.374  -1.278  1.00  0.00    -0.346 OA
HETATM   21  O   UNL     1      37.913 -13.680  -3.006  1.00  0.00    -0.346 OA
HETATM   22  C   UNL     1      39.344 -14.609  -1.388  1.00  0.00     0.042 A 
HETATM   23  C   UNL     1      36.848 -12.733  -3.151  1.00  0.00     0.202 C 
HETATM   24  C   UNL     1      37.285 -11.357  -2.679  1.00  0.00     0.202 C 
HETATM   25  C   UNL     1      39.977 -14.563  -0.141  1.00  0.00     0.032 A 
ENDBRANCH  14  16
ENDBRANCH  13  14
ENDBRANCH   7  13
TORSDOF 3
ENDMDL
MODEL 10
REMARK VINA RESULT:      -7.6      4.659      8.386
REMARK  3 active torsions:
REMARK  status: ('A' for Active; 'I' for Inactive)
REMARK    1  A    between atoms: C_7  and  C_10 
REMARK    2  A    between atoms: C_10  and  N_11 
REMARK    3  A    between atoms: N_11  and  C_12 
ROOT
HETATM    1  C   UNL     1      43.960  -9.008  11.525  1.00  0.00     0.002 A 
HETATM    2  C   UNL     1      44.262 -10.155  10.785  1.00  0.00     0.033 A 
HETATM    3  C   UNL     1      43.842 -10.252   9.443  1.00  0.00     0.075 A 
HETATM    4  C   UNL     1      43.132  -9.194   8.883  1.00  0.00     0.035 A 
HETATM    5  S   UNL     1      42.754  -9.579   7.253  1.00  0.00    -0.067 SA
HETATM    6  C   UNL     1      43.552 -11.116   7.397  1.00  0.00     0.121 A 
HETATM    7  C   UNL     1      43.612 -12.029   6.287  1.00  0.00     0.095 C 
HETATM    8  C   UNL     1      43.025 -11.722   5.024  1.00  0.00     0.103 C 
HETATM    9  N   UNL     1      42.558 -11.503   3.983  1.00  0.00    -0.191 NA
HETATM   10  N   UNL     1      44.070 -11.323   8.598  1.00  0.00    -0.239 NA
HETATM   11  C   UNL     1      42.824  -8.036   9.615  1.00  0.00     0.021 A 
HETATM   12  C   UNL     1      43.250  -7.961  10.945  1.00  0.00     0.002 A 
ENDROOT
BRANCH   7  13
HETATM   13  C   UNL     1      44.246 -13.210   6.458  1.00  0.00     0.114 C 
BRANCH  13  14
HETATM   14  N   UNL     1      43.712 -14.475   6.596  1.00  0.00    -0.364 N 
HETATM   15  H   UNL     1      43.354 -14.720   7.516  1.00  0.00     0.165 HD
BRANCH  14  16
HETATM   16  C   UNL     1      43.576 -15.490   5.628  1.00  0.00     0.034 A 
HETATM   17  C   UNL     1      44.115 -16.776   5.764  1.00  0.00     0.069 A 
HETATM   18  C   UNL     1      43.934 -17.738   4.767  1.00  0.00     0.104 A 
HETATM   19  C   UNL     1      43.235 -17.424   3.601  1.00  0.00     0.102 A 
HETATM   20  O   UNL     1      44.483 -18.975   5.001  1.00  0.00    -0.346 OA
HETATM   21  O   UNL     1      43.049 -18.307   2.570  1.00  0.00    -0.346 OA
HETATM   22  C   UNL     1      42.679 -16.159   3.453  1.00  0.00     0.042 A 
HETATM   23  C   UNL     1      43.934 -19.428   2.680  1.00  0.00     0.202 C 
HETATM   24  C   UNL     1      43.954 -19.958   4.103  1.00  0.00     0.202 C 
HETATM   25  C   UNL     1      42.850 -15.202   4.459  1.00  0.00     0.032 A 
ENDBRANCH  14  16
ENDBRANCH  13  14
ENDBRANCH   7  13
TORSDOF 3
ENDMDL
