MODEL 1
REMARK VINA RESULT:      -8.6      0.000      0.000
REMARK  4 active torsions:
REMARK  status: ('A' for Active; 'I' for Inactive)
REMARK    1  A    between atoms: C_3  and  C_4 
REMARK    2  A    between atoms: C_5  and  C_6 
REMARK       I    between atoms: C_6  and  N_7 
REMARK    3  A    between atoms: N_7  and  C_8 
REMARK    4  A    between atoms: C_15  and  C_16 
REMARK       I    between atoms: C_16  and  N_17 
ROOT
HETATM    1  C   UNL     1      40.923 -13.859   0.449  1.00  0.00     0.035 A 
HETATM    2  C   UNL     1      40.266 -14.352  -0.688  1.00  0.00     0.046 A 
HETATM    3  C   UNL     1      39.178 -13.631  -1.231  1.00  0.00     0.030 A 
HETATM    4  C   UNL     1      38.799 -12.436  -0.632  1.00  0.00     0.063 A 
HETATM    5  N   UNL     1      37.743 -11.980  -1.369  1.00  0.00    -0.277 N 
HETATM    6  H   UNL     1      37.215 -11.127  -1.222  1.00  0.00     0.189 HD
HETATM    7  N   UNL     1      37.385 -12.781  -2.385  1.00  0.00    -0.168 NA
HETATM    8  C   UNL     1      38.261 -13.809  -2.312  1.00  0.00     0.156 A 
HETATM    9  C   UNL     1      39.438 -11.910   0.492  1.00  0.00     0.034 A 
HETATM   10  C   UNL     1      40.500 -12.652   1.023  1.00  0.00     0.032 A 
ENDROOT
BRANCH   1  11
HETATM   11  N   UNL     1      41.986 -14.528   1.092  1.00  0.00    -0.327 N 
HETATM   12  C   UNL     1      41.962 -15.777   1.675  1.00  0.00     0.227 C 
HETATM   13  O   UNL     1      41.032 -16.570   1.680  1.00  0.00    -0.273 OA
HETATM   14  H   UNL     1      42.861 -14.031   1.129  1.00  0.00     0.169 HD
BRANCH  12  15
HETATM   15  C   UNL     1      43.197 -16.155   2.418  1.00  0.00     0.087 A 
HETATM   16  C   UNL     1      43.381 -15.894   3.905  1.00  0.00     0.034 A 
HETATM   17  C   UNL     1      43.320 -17.310   3.370  1.00  0.00     0.025 A 
BRANCH  16  18
HETATM   18  C   UNL     1      42.285 -15.422   4.845  1.00  0.00    -0.031 A 
HETATM   19  C   UNL     1      41.492 -16.347   5.551  1.00  0.00     0.009 A 
HETATM   20  C   UNL     1      40.463 -15.941   6.408  1.00  0.00     0.001 A 
HETATM   21  C   UNL     1      40.180 -14.590   6.568  1.00  0.00     0.002 A 
HETATM   22  C   UNL     1      40.919 -13.647   5.862  1.00  0.00     0.024 A 
HETATM   23  C   UNL     1      41.949 -14.058   5.008  1.00  0.00     0.040 A 
HETATM   24 CL   UNL     1      42.778 -12.819   4.126  1.00  0.00    -0.084 Cl
ENDBRANCH  16  18
ENDBRANCH  12  15
ENDBRANCH   1  11
BRANCH   8  25
HETATM   25  C   UNL     1      38.196 -14.931  -3.259  1.00  0.00     0.270 C 
HETATM   26  N   UNL     1      38.214 -16.163  -2.664  1.00  0.00    -0.365 N 
HETATM   27  H   UNL     1      38.284 -16.214  -1.654  1.00  0.00     0.159 HD
HETATM   28  H   UNL     1      38.197 -16.994  -3.235  1.00  0.00     0.159 HD
HETATM   29  O   UNL     1      38.139 -14.817  -4.478  1.00  0.00    -0.266 OA
ENDBRANCH   8  25
TORSDOF 4
ENDMDL
MODEL 2
REMARK VINA RESULT:      -8.6      5.689      8.979
REMARK  4 active torsions:
REMARK  status: ('A' for Active; 'I' for Inactive)
REMARK    1  A    between atoms: C_3  and  C_4 
REMARK    2  A    between atoms: C_5  and  C_6 
REMARK       I    between atoms: C_6  and  N_7 
REMARK    3  A    between atoms: N_7  and  C_8 
REMARK    4  A    between atoms: C_15  and  C_16 
REMARK       I    between atoms: C_16  and  N_17 
ROOT
HETATM    1  C   UNL     1      43.396 -12.023   6.864  1.00  0.00     0.035 A 
HETATM    2  C   UNL     1      43.219 -10.765   7.457  1.00  0.00     0.046 A 
HETATM    3  C   UNL     1      44.342  -9.940   7.691  1.00  0.00     0.030 A 
HETATM    4  C   UNL     1      45.598 -10.392   7.306  1.00  0.00     0.063 A 
HETATM    5  N   UNL     1      46.465  -9.394   7.651  1.00  0.00    -0.277 N 
HETATM    6  H   UNL     1      47.470  -9.379   7.515  1.00  0.00     0.189 HD
HETATM    7  N   UNL     1      45.889  -8.338   8.247  1.00  0.00    -0.168 NA
HETATM    8  C   UNL     1      44.576  -8.660   8.281  1.00  0.00     0.156 A 
HETATM    9  C   UNL     1      45.811 -11.633   6.702  1.00  0.00     0.034 A 
HETATM   10  C   UNL     1      44.685 -12.440   6.499  1.00  0.00     0.032 A 
ENDROOT
BRANCH   1  11
HETATM   11  N   UNL     1      42.346 -12.937   6.634  1.00  0.00    -0.327 N 
HETATM   12  C   UNL     1      41.809 -13.313   5.422  1.00  0.00     0.227 C 
HETATM   13  O   UNL     1      42.192 -12.977   4.311  1.00  0.00    -0.273 OA
HETATM   14  H   UNL     1      41.943 -13.360   7.456  1.00  0.00     0.169 HD
BRANCH  12  15
HETATM   15  C   UNL     1      40.599 -14.180   5.504  1.00  0.00     0.087 A 
HETATM   16  C   UNL     1      40.620 -15.663   5.172  1.00  0.00     0.034 A 
HETATM   17  C   UNL     1      40.324 -15.189   6.580  1.00  0.00     0.025 A 
BRANCH  16  18
HETATM   18  C   UNL     1      41.877 -16.481   4.928  1.00  0.00    -0.031 A 
HETATM   19  C   UNL     1      42.699 -16.878   6.000  1.00  0.00     0.009 A 
HETATM   20  C   UNL     1      43.873 -17.614   5.802  1.00  0.00     0.001 A 
HETATM   21  C   UNL     1      44.274 -17.958   4.517  1.00  0.00     0.002 A 
HETATM   22  C   UNL     1      43.506 -17.554   3.429  1.00  0.00     0.024 A 
HETATM   23  C   UNL     1      42.331 -16.820   3.632  1.00  0.00     0.040 A 
HETATM   24 CL   UNL     1      41.469 -16.312   2.218  1.00  0.00    -0.084 Cl
ENDBRANCH  16  18
ENDBRANCH  12  15
ENDBRANCH   1  11
BRANCH   8  25
HETATM   25  C   UNL     1      43.587  -7.754   8.881  1.00  0.00     0.270 C 
HETATM   26  N   UNL     1      43.207  -8.104  10.148  1.00  0.00    -0.365 N 
HETATM   27  H   UNL     1      43.608  -8.939  10.562  1.00  0.00     0.159 HD
HETATM   28  H   UNL     1      42.515  -7.555  10.632  1.00  0.00     0.159 HD
HETATM   29  O   UNL     1      43.112  -6.768   8.328  1.00  0.00    -0.266 OA
ENDBRANCH   8  25
TORSDOF 4
ENDMDL
MODEL 3
REMARK VINA RESULT:      -8.4      5.571      9.160
REMARK  4 active torsions:
REMARK  status: ('A' for Active; 'I' for Inactive)
REMARK    1  A    between atoms: C_3  and  C_4 
REMARK    2  A    between atoms: C_5  and  C_6 
REMARK       I    between atoms: C_6  and  N_7 
REMARK    3  A    between atoms: N_7  and  C_8 
REMARK    4  A    between atoms: C_15  and  C_16 
REMARK       I    between atoms: C_16  and  N_17 
ROOT
HETATM    1  C   UNL     1      43.700 -12.385   7.070  1.00  0.00     0.035 A 
HETATM    2  C   UNL     1      43.549 -11.281   7.920  1.00  0.00     0.046 A 
HETATM    3  C   UNL     1      44.576 -10.314   7.998  1.00  0.00     0.030 A 
HETATM    4  C   UNL     1      45.708 -10.475   7.209  1.00  0.00     0.063 A 
HETATM    5  N   UNL     1      46.506  -9.402   7.494  1.00  0.00    -0.277 N 
HETATM    6  H   UNL     1      47.415  -9.190   7.097  1.00  0.00     0.189 HD
HETATM    7  N   UNL     1      46.003  -8.565   8.415  1.00  0.00    -0.168 NA
HETATM    8  C   UNL     1      44.811  -9.116   8.739  1.00  0.00     0.156 A 
HETATM    9  C   UNL     1      45.888 -11.555   6.342  1.00  0.00     0.034 A 
HETATM   10  C   UNL     1      44.864 -12.509   6.298  1.00  0.00     0.032 A 
ENDROOT
BRANCH   1  11
HETATM   11  N   UNL     1      42.753 -13.426   6.959  1.00  0.00    -0.327 N 
HETATM   12  C   UNL     1      41.702 -13.515   6.072  1.00  0.00     0.227 C 
HETATM   13  O   UNL     1      41.436 -12.741   5.165  1.00  0.00    -0.273 OA
HETATM   14  H   UNL     1      42.861 -14.190   7.608  1.00  0.00     0.169 HD
BRANCH  12  15
HETATM   15  C   UNL     1      40.774 -14.660   6.299  1.00  0.00     0.087 A 
HETATM   16  C   UNL     1      40.610 -15.801   5.308  1.00  0.00     0.034 A 
HETATM   17  C   UNL     1      41.187 -16.050   6.686  1.00  0.00     0.025 A 
BRANCH  16  18
HETATM   18  C   UNL     1      41.495 -16.031   4.094  1.00  0.00    -0.031 A 
HETATM   19  C   UNL     1      42.679 -16.786   4.197  1.00  0.00     0.009 A 
HETATM   20  C   UNL     1      43.522 -16.996   3.101  1.00  0.00     0.001 A 
HETATM   21  C   UNL     1      43.217 -16.436   1.867  1.00  0.00     0.002 A 
HETATM   22  C   UNL     1      42.074 -15.656   1.733  1.00  0.00     0.024 A 
HETATM   23  C   UNL     1      41.231 -15.450   2.832  1.00  0.00     0.040 A 
HETATM   24 CL   UNL     1      39.861 -14.418   2.588  1.00  0.00    -0.084 Cl
ENDBRANCH  16  18
ENDBRANCH  12  15
ENDBRANCH   1  11
BRANCH   8  25
HETATM   25  C   UNL     1      43.938  -8.498   9.747  1.00  0.00     0.270 C 
HETATM   26  N   UNL     1      44.093  -9.010  11.007  1.00  0.00    -0.365 N 
HETATM   27  H   UNL     1      44.762  -9.759  11.148  1.00  0.00     0.159 HD
HETATM   28  H   UNL     1      43.520  -8.665  11.760  1.00  0.00     0.159 HD
HETATM   29  O   UNL     1      43.124  -7.610   9.520  1.00  0.00    -0.266 OA
ENDBRANCH   8  25
TORSDOF 4
ENDMDL
MODEL 4
REMARK VINA RESULT:      -8.2      1.763      1.886
REMARK  4 active torsions:
REMARK  status: ('A' for Active; 'I' for Inactive)
REMARK    1  A    between atoms: C_3  and  C_4 
REMARK    2  A    between atoms: C_5  and  C_6 
REMARK       I    between atoms: C_6  and  N_7 
REMARK    3  A    between atoms: N_7  and  C_8 
REMARK    4  A    between atoms: C_15  and  C_16 
REMARK       I    between atoms: C_16  and  N_17 
ROOT
HETATM    1  C   UNL     1      40.671 -14.378   1.147  1.00  0.00     0.035 A 
HETATM    2  C   UNL     1      40.175 -14.279  -0.161  1.00  0.00     0.046 A 
HETATM    3  C   UNL     1      39.330 -13.201  -0.506  1.00  0.00     0.030 A 
HETATM    4  C   UNL     1      39.027 -12.250   0.460  1.00  0.00     0.063 A 
HETATM    5  N   UNL     1      38.210 -11.348  -0.161  1.00  0.00    -0.277 N 
HETATM    6  H   UNL     1      37.796 -10.515   0.242  1.00  0.00     0.189 HD
HETATM    7  N   UNL     1      37.935 -11.636  -1.443  1.00  0.00    -0.168 NA
HETATM    8  C   UNL     1      38.619 -12.781  -1.672  1.00  0.00     0.156 A 
HETATM    9  C   UNL     1      39.512 -12.310   1.768  1.00  0.00     0.034 A 
HETATM   10  C   UNL     1      40.332 -13.398   2.091  1.00  0.00     0.032 A 
ENDROOT
BRANCH   1  11
HETATM   11  N   UNL     1      41.480 -15.441   1.601  1.00  0.00    -0.327 N 
HETATM   12  C   UNL     1      42.829 -15.410   1.882  1.00  0.00     0.227 C 
HETATM   13  O   UNL     1      43.564 -14.434   1.858  1.00  0.00    -0.273 OA
HETATM   14  H   UNL     1      41.014 -16.325   1.732  1.00  0.00     0.169 HD
BRANCH  12  15
HETATM   15  C   UNL     1      43.445 -16.731   2.192  1.00  0.00     0.087 A 
HETATM   16  C   UNL     1      43.435 -17.343   3.585  1.00  0.00     0.034 A 
HETATM   17  C   UNL     1      42.691 -18.004   2.443  1.00  0.00     0.025 A 
BRANCH  16  18
HETATM   18  C   UNL     1      42.637 -16.807   4.762  1.00  0.00    -0.031 A 
HETATM   19  C   UNL     1      41.240 -16.650   4.675  1.00  0.00     0.009 A 
HETATM   20  C   UNL     1      40.484 -16.140   5.736  1.00  0.00     0.001 A 
HETATM   21  C   UNL     1      41.107 -15.750   6.915  1.00  0.00     0.002 A 
HETATM   22  C   UNL     1      42.489 -15.859   7.026  1.00  0.00     0.024 A 
HETATM   23  C   UNL     1      43.242 -16.371   5.963  1.00  0.00     0.040 A 
HETATM   24 CL   UNL     1      44.962 -16.417   6.169  1.00  0.00    -0.084 Cl
ENDBRANCH  16  18
ENDBRANCH  12  15
ENDBRANCH   1  11
BRANCH   8  25
HETATM   25  C   UNL     1      38.568 -13.447  -2.981  1.00  0.00     0.270 C 
HETATM   26  N   UNL     1      37.302 -13.607  -3.476  1.00  0.00    -0.365 N 
HETATM   27  H   UNL     1      36.519 -13.281  -2.920  1.00  0.00     0.159 HD
HETATM   28  H   UNL     1      37.166 -14.075  -4.358  1.00  0.00     0.159 HD
HETATM   29  O   UNL     1      39.546 -13.848  -3.603  1.00  0.00    -0.266 OA
ENDBRANCH   8  25
TORSDOF 4
ENDMDL
MODEL 5
REMARK VINA RESULT:      -7.8      3.083      4.964
REMARK  4 active torsions:
REMARK  status: ('A' for Active; 'I' for Inactive)
REMARK    1  A    between atoms: C_3  and  C_4 
REMARK    2  A    between atoms: C_5  and  C_6 
REMARK       I    between atoms: C_6  and  N_7 
REMARK    3  A    between atoms: N_7  and  C_8 
REMARK    4  A    between atoms: C_15  and  C_16 
REMARK       I    between atoms: C_16  and  N_17 
ROOT
HETATM    1  C   UNL     1      41.270 -13.725   5.001  1.00  0.00     0.035 A 
HETATM    2  C   UNL     1      41.078 -13.606   3.618  1.00  0.00     0.046 A 
HETATM    3  C   UNL     1      40.106 -12.707   3.123  1.00  0.00     0.030 A 
HETATM    4  C   UNL     1      39.375 -11.947   4.027  1.00  0.00     0.063 A 
HETATM    5  N   UNL     1      38.534 -11.186   3.265  1.00  0.00    -0.277 N 
HETATM    6  H   UNL     1      37.855 -10.507   3.591  1.00  0.00     0.189 HD
HETATM    7  N   UNL     1      38.636 -11.397   1.943  1.00  0.00    -0.168 NA
HETATM    8  C   UNL     1      39.603 -12.337   1.838  1.00  0.00     0.156 A 
HETATM    9  C   UNL     1      39.547 -12.030   5.410  1.00  0.00     0.034 A 
HETATM   10  C   UNL     1      40.503 -12.941   5.876  1.00  0.00     0.032 A 
ENDROOT
BRANCH   1  11
HETATM   11  N   UNL     1      42.180 -14.627   5.593  1.00  0.00    -0.327 N 
HETATM   12  C   UNL     1      41.917 -15.891   6.075  1.00  0.00     0.227 C 
HETATM   13  O   UNL     1      40.857 -16.496   6.015  1.00  0.00    -0.273 OA
HETATM   14  H   UNL     1      43.132 -14.305   5.670  1.00  0.00     0.169 HD
BRANCH  12  15
HETATM   15  C   UNL     1      43.049 -16.547   6.789  1.00  0.00     0.087 A 
HETATM   16  C   UNL     1      43.843 -17.701   6.197  1.00  0.00     0.034 A 
HETATM   17  C   UNL     1      44.503 -16.365   6.466  1.00  0.00     0.025 A 
BRANCH  16  18
HETATM   18  C   UNL     1      43.733 -18.184   4.760  1.00  0.00    -0.031 A 
HETATM   19  C   UNL     1      43.423 -17.288   3.719  1.00  0.00     0.009 A 
HETATM   20  C   UNL     1      43.296 -17.709   2.392  1.00  0.00     0.001 A 
HETATM   21  C   UNL     1      43.454 -19.050   2.065  1.00  0.00     0.002 A 
HETATM   22  C   UNL     1      43.728 -19.971   3.071  1.00  0.00     0.024 A 
HETATM   23  C   UNL     1      43.857 -19.546   4.398  1.00  0.00     0.040 A 
HETATM   24 CL   UNL     1      44.142 -20.769   5.591  1.00  0.00    -0.084 Cl
ENDBRANCH  16  18
ENDBRANCH  12  15
ENDBRANCH   1  11
BRANCH   8  25
HETATM   25  C   UNL     1      40.012 -12.864   0.529  1.00  0.00     0.270 C 
HETATM   26  N   UNL     1      39.591 -14.144   0.287  1.00  0.00    -0.365 N 
HETATM   27  H   UNL     1      39.062 -14.625   1.006  1.00  0.00     0.159 HD
HETATM   28  H   UNL     1      39.844 -14.598  -0.576  1.00  0.00     0.159 HD
HETATM   29  O   UNL     1      40.676 -12.250  -0.298  1.00  0.00    -0.266 OA
ENDBRANCH   8  25
TORSDOF 4
ENDMDL
MODEL 6
REMARK VINA RESULT:      -7.7      3.359      7.888
REMARK  4 active torsions:
REMARK  status: ('A' for Active; 'I' for Inactive)
REMARK    1  A    between atoms: C_3  and  C_4 
REMARK    2  A    between atoms: C_5  and  C_6 
REMARK       I    between atoms: C_6  and  N_7 
REMARK    3  A    between atoms: N_7  and  C_8 
REMARK    4  A    between atoms: C_15  and  C_16 
REMARK       I    between atoms: C_16  and  N_17 
ROOT
HETATM    1  C   UNL     1      41.662 -14.875   2.787  1.00  0.00     0.035 A 
HETATM    2  C   UNL     1      41.881 -15.238   4.124  1.00  0.00     0.046 A 
HETATM    3  C   UNL     1      42.684 -16.362   4.419  1.00  0.00     0.030 A 
HETATM    4  C   UNL     1      43.256 -17.071   3.370  1.00  0.00     0.063 A 
HETATM    5  N   UNL     1      43.966 -18.080   3.957  1.00  0.00    -0.277 N 
HETATM    6  H   UNL     1      44.517 -18.794   3.493  1.00  0.00     0.189 HD
HETATM    7  N   UNL     1      43.891 -18.106   5.297  1.00  0.00    -0.168 NA
HETATM    8  C   UNL     1      43.101 -17.051   5.599  1.00  0.00     0.156 A 
HETATM    9  C   UNL     1      43.070 -16.732   2.028  1.00  0.00     0.034 A 
HETATM   10  C   UNL     1      42.254 -15.625   1.762  1.00  0.00     0.032 A 
ENDROOT
BRANCH   1  11
HETATM   11  N   UNL     1      40.838 -13.800   2.391  1.00  0.00    -0.327 N 
HETATM   12  C   UNL     1      41.210 -12.491   2.173  1.00  0.00     0.227 C 
HETATM   13  O   UNL     1      42.342 -12.031   2.213  1.00  0.00    -0.273 OA
HETATM   14  H   UNL     1      39.864 -14.020   2.255  1.00  0.00     0.169 HD
BRANCH  12  15
HETATM   15  C   UNL     1      40.088 -11.545   1.915  1.00  0.00     0.087 A 
HETATM   16  C   UNL     1      39.497 -11.319   0.533  1.00  0.00     0.034 A 
HETATM   17  C   UNL     1      38.666 -11.938   1.638  1.00  0.00     0.025 A 
BRANCH  16  18
HETATM   18  C   UNL     1      39.816 -12.155  -0.696  1.00  0.00    -0.031 A 
HETATM   19  C   UNL     1      39.227 -13.420  -0.880  1.00  0.00     0.009 A 
HETATM   20  C   UNL     1      39.518 -14.219  -1.991  1.00  0.00     0.001 A 
HETATM   21  C   UNL     1      40.430 -13.784  -2.945  1.00  0.00     0.002 A 
HETATM   22  C   UNL     1      41.059 -12.554  -2.780  1.00  0.00     0.024 A 
HETATM   23  C   UNL     1      40.762 -11.757  -1.668  1.00  0.00     0.040 A 
HETATM   24 CL   UNL     1      41.634 -10.268  -1.515  1.00  0.00    -0.084 Cl
ENDBRANCH  16  18
ENDBRANCH  12  15
ENDBRANCH   1  11
BRANCH   8  25
HETATM   25  C   UNL     1      42.754 -16.736   6.992  1.00  0.00     0.270 C 
HETATM   26  N   UNL     1      43.702 -17.116   7.902  1.00  0.00    -0.365 N 
HETATM   27  H   UNL     1      44.537 -17.583   7.567  1.00  0.00     0.159 HD
HETATM   28  H   UNL     1      43.542 -16.962   8.885  1.00  0.00     0.159 HD
HETATM   29  O   UNL     1      41.716 -16.191   7.350  1.00  0.00    -0.266 OA
ENDBRANCH   8  25
TORSDOF 4
ENDMDL
MODEL 7
REMARK VINA RESULT:      -7.6      5.128      7.451
REMARK  4 active torsions:
REMARK  status: ('A' for Active; 'I' for Inactive)
REMARK    1  A    between atoms: C_3  and  C_4 
REMARK    2  A    between atoms: C_5  and  C_6 
REMARK       I    between atoms: C_6  and  N_7 
REMARK    3  A    between atoms: N_7  and  C_8 
REMARK    4  A    between atoms: C_15  and  C_16 
REMARK       I    between atoms: C_16  and  N_17 
ROOT
HETATM    1  C   UNL     1      43.289 -15.927   4.862  1.00  0.00     0.035 A 
HETATM    2  C   UNL     1      43.349 -17.074   4.058  1.00  0.00     0.046 A 
HETATM    3  C   UNL     1      43.534 -18.339   4.661  1.00  0.00     0.030 A 
HETATM    4  C   UNL     1      43.631 -18.414   6.044  1.00  0.00     0.063 A 
HETATM    5  N   UNL     1      43.798 -19.741   6.325  1.00  0.00    -0.277 N 
HETATM    6  H   UNL     1      43.901 -20.167   7.240  1.00  0.00     0.189 HD
HETATM    7  N   UNL     1      43.839 -20.538   5.246  1.00  0.00    -0.168 NA
HETATM    8  C   UNL     1      43.679 -19.686   4.207  1.00  0.00     0.156 A 
HETATM    9  C   UNL     1      43.563 -17.295   6.876  1.00  0.00     0.034 A 
HETATM   10  C   UNL     1      43.399 -16.052   6.254  1.00  0.00     0.032 A 
ENDROOT
BRANCH   1  11
HETATM   11  N   UNL     1      43.155 -14.618   4.352  1.00  0.00    -0.327 N 
HETATM   12  C   UNL     1      42.104 -13.747   4.537  1.00  0.00     0.227 C 
HETATM   13  O   UNL     1      41.119 -13.920   5.239  1.00  0.00    -0.273 OA
HETATM   14  H   UNL     1      43.920 -14.286   3.785  1.00  0.00     0.169 HD
BRANCH  12  15
HETATM   15  C   UNL     1      42.173 -12.488   3.742  1.00  0.00     0.087 A 
HETATM   16  C   UNL     1      42.763 -11.197   4.287  1.00  0.00     0.034 A 
HETATM   17  C   UNL     1      43.416 -11.917   3.125  1.00  0.00     0.025 A 
BRANCH  16  18
HETATM   18  C   UNL     1      43.530 -11.076   5.594  1.00  0.00    -0.031 A 
HETATM   19  C   UNL     1      44.887 -11.444   5.671  1.00  0.00     0.009 A 
HETATM   20  C   UNL     1      45.610 -11.363   6.865  1.00  0.00     0.001 A 
HETATM   21  C   UNL     1      44.990 -10.928   8.030  1.00  0.00     0.002 A 
HETATM   22  C   UNL     1      43.642 -10.587   8.001  1.00  0.00     0.024 A 
HETATM   23  C   UNL     1      42.922 -10.668   6.803  1.00  0.00     0.040 A 
HETATM   24 CL   UNL     1      41.235 -10.278   6.873  1.00  0.00    -0.084 Cl
ENDBRANCH  16  18
ENDBRANCH  12  15
ENDBRANCH   1  11
BRANCH   8  25
HETATM   25  C   UNL     1      43.682 -20.170   2.820  1.00  0.00     0.270 C 
HETATM   26  N   UNL     1      43.015 -19.357   1.944  1.00  0.00    -0.365 N 
HETATM   27  H   UNL     1      42.572 -18.518   2.302  1.00  0.00     0.159 HD
HETATM   28  H   UNL     1      42.943 -19.620   0.974  1.00  0.00     0.159 HD
HETATM   29  O   UNL     1      44.213 -21.208   2.441  1.00  0.00    -0.266 OA
ENDBRANCH   8  25
TORSDOF 4
ENDMDL
MODEL 8
REMARK VINA RESULT:      -7.6      2.292      3.570
REMARK  4 active torsions:
REMARK  status: ('A' for Active; 'I' for Inactive)
REMARK    1  A    between atoms: C_3  and  C_4 
REMARK    2  A    between atoms: C_5  and  C_6 
REMARK       I    between atoms: C_6  and  N_7 
REMARK    3  A    between atoms: N_7  and  C_8 
REMARK    4  A    between atoms: C_15  and  C_16 
REMARK       I    between atoms: C_16  and  N_17 
ROOT
HETATM    1  C   UNL     1      39.479 -12.749   2.920  1.00  0.00     0.035 A 
HETATM    2  C   UNL     1      39.654 -13.290   1.638  1.00  0.00     0.046 A 
HETATM    3  C   UNL     1      39.457 -12.472   0.503  1.00  0.00     0.030 A 
HETATM    4  C   UNL     1      39.112 -11.139   0.689  1.00  0.00     0.063 A 
HETATM    5  N   UNL     1      38.996 -10.614  -0.567  1.00  0.00    -0.277 N 
HETATM    6  H   UNL     1      38.759  -9.660  -0.815  1.00  0.00     0.189 HD
HETATM    7  N   UNL     1      39.215 -11.492  -1.559  1.00  0.00    -0.168 NA
HETATM    8  C   UNL     1      39.499 -12.647  -0.914  1.00  0.00     0.156 A 
HETATM    9  C   UNL     1      38.942 -10.563   1.950  1.00  0.00     0.034 A 
HETATM   10  C   UNL     1      39.124 -11.400   3.058  1.00  0.00     0.032 A 
ENDROOT
BRANCH   1  11
HETATM   11  N   UNL     1      39.605 -13.496   4.110  1.00  0.00    -0.327 N 
HETATM   12  C   UNL     1      40.703 -13.576   4.940  1.00  0.00     0.227 C 
HETATM   13  O   UNL     1      41.751 -12.956   4.836  1.00  0.00    -0.273 OA
HETATM   14  H   UNL     1      38.797 -14.033   4.381  1.00  0.00     0.169 HD
BRANCH  12  15
HETATM   15  C   UNL     1      40.595 -14.573   6.043  1.00  0.00     0.087 A 
HETATM   16  C   UNL     1      41.056 -16.015   5.903  1.00  0.00     0.034 A 
HETATM   17  C   UNL     1      41.738 -15.075   6.876  1.00  0.00     0.025 A 
BRANCH  16  18
HETATM   18  C   UNL     1      41.857 -16.561   4.733  1.00  0.00    -0.031 A 
HETATM   19  C   UNL     1      41.365 -16.471   3.417  1.00  0.00     0.009 A 
HETATM   20  C   UNL     1      42.071 -16.983   2.324  1.00  0.00     0.001 A 
HETATM   21  C   UNL     1      43.289 -17.624   2.517  1.00  0.00     0.002 A 
HETATM   22  C   UNL     1      43.792 -17.763   3.806  1.00  0.00     0.024 A 
HETATM   23  C   UNL     1      43.083 -17.247   4.897  1.00  0.00     0.040 A 
HETATM   24 CL   UNL     1      43.757 -17.515   6.470  1.00  0.00    -0.084 Cl
ENDBRANCH  16  18
ENDBRANCH  12  15
ENDBRANCH   1  11
BRANCH   8  25
HETATM   25  C   UNL     1      39.789 -13.881  -1.658  1.00  0.00     0.270 C 
HETATM   26  N   UNL     1      40.764 -13.743  -2.608  1.00  0.00    -0.365 N 
HETATM   27  H   UNL     1      41.190 -12.832  -2.738  1.00  0.00     0.159 HD
HETATM   28  H   UNL     1      41.014 -14.530  -3.185  1.00  0.00     0.159 HD
HETATM   29  O   UNL     1      39.225 -14.955  -1.480  1.00  0.00    -0.266 OA
ENDBRANCH   8  25
TORSDOF 4
ENDMDL
MODEL 9
REMARK VINA RESULT:      -7.6      2.814      4.265
REMARK  4 active torsions:
REMARK  status: ('A' for Active; 'I' for Inactive)
REMARK    1  A    between atoms: C_3  and  C_4 
REMARK    2  A    between atoms: C_5  and  C_6 
REMARK       I    between atoms: C_6  and  N_7 
REMARK    3  A    between atoms: N_7  and  C_8 
REMARK    4  A    between atoms: C_15  and  C_16 
REMARK       I    between atoms: C_16  and  N_17 
ROOT
HETATM    1  C   UNL     1      40.405 -13.495   1.048  1.00  0.00     0.035 A 
HETATM    2  C   UNL     1      40.770 -12.251   0.513  1.00  0.00     0.046 A 
HETATM    3  C   UNL     1      40.786 -12.074  -0.889  1.00  0.00     0.030 A 
HETATM    4  C   UNL     1      40.417 -13.137  -1.704  1.00  0.00     0.063 A 
HETATM    5  N   UNL     1      40.526 -12.669  -2.983  1.00  0.00    -0.277 N 
HETATM    6  H   UNL     1      40.332 -13.175  -3.840  1.00  0.00     0.189 HD
HETATM    7  N   UNL     1      40.953 -11.400  -3.077  1.00  0.00    -0.168 NA
HETATM    8  C   UNL     1      41.120 -11.017  -1.791  1.00  0.00     0.156 A 
HETATM    9  C   UNL     1      40.037 -14.384  -1.205  1.00  0.00     0.034 A 
HETATM   10  C   UNL     1      40.048 -14.541   0.186  1.00  0.00     0.032 A 
ENDROOT
BRANCH   1  11
HETATM   11  N   UNL     1      40.406 -13.784   2.430  1.00  0.00    -0.327 N 
HETATM   12  C   UNL     1      41.484 -13.784   3.288  1.00  0.00     0.227 C 
HETATM   13  O   UNL     1      42.634 -13.463   3.026  1.00  0.00    -0.273 OA
HETATM   14  H   UNL     1      39.511 -14.020   2.830  1.00  0.00     0.169 HD
BRANCH  12  15
HETATM   15  C   UNL     1      41.202 -14.286   4.663  1.00  0.00     0.087 A 
HETATM   16  C   UNL     1      41.545 -15.697   5.116  1.00  0.00     0.034 A 
HETATM   17  C   UNL     1      42.227 -14.496   5.739  1.00  0.00     0.025 A 
BRANCH  16  18
HETATM   18  C   UNL     1      42.386 -16.683   4.322  1.00  0.00    -0.031 A 
HETATM   19  C   UNL     1      42.078 -16.978   2.980  1.00  0.00     0.009 A 
HETATM   20  C   UNL     1      42.823 -17.896   2.233  1.00  0.00     0.001 A 
HETATM   21  C   UNL     1      43.891 -18.568   2.814  1.00  0.00     0.002 A 
HETATM   22  C   UNL     1      44.206 -18.328   4.148  1.00  0.00     0.024 A 
HETATM   23  C   UNL     1      43.460 -17.406   4.892  1.00  0.00     0.040 A 
HETATM   24 CL   UNL     1      43.887 -17.213   6.559  1.00  0.00    -0.084 Cl
ENDBRANCH  16  18
ENDBRANCH  12  15
ENDBRANCH   1  11
BRANCH   8  25
HETATM   25  C   UNL     1      41.603  -9.670  -1.455  1.00  0.00     0.270 C 
HETATM   26  N   UNL     1      40.956  -8.665  -2.121  1.00  0.00    -0.365 N 
HETATM   27  H   UNL     1      40.229  -8.911  -2.784  1.00  0.00     0.159 HD
HETATM   28  H   UNL     1      41.235  -7.708  -1.974  1.00  0.00     0.159 HD
HETATM   29  O   UNL     1      42.507  -9.426  -0.664  1.00  0.00    -0.266 OA
ENDBRANCH   8  25
TORSDOF 4
ENDMDL
MODEL 10
REMARK VINA RESULT:      -7.6      2.193      3.354
REMARK  4 active torsions:
REMARK  status: ('A' for Active; 'I' for Inactive)
REMARK    1  A    between atoms: C_3  and  C_4 
REMARK    2  A    between atoms: C_5  and  C_6 
REMARK       I    between atoms: C_6  and  N_7 
REMARK    3  A    between atoms: N_7  and  C_8 
REMARK    4  A    between atoms: C_15  and  C_16 
REMARK       I    between atoms: C_16  and  N_17 
ROOT
HETATM    1  C   UNL     1      41.154 -11.899   1.629  1.00  0.00     0.035 A 
HETATM    2  C   UNL     1      40.597 -12.609   0.557  1.00  0.00     0.046 A 
HETATM    3  C   UNL     1      40.574 -12.024  -0.730  1.00  0.00     0.030 A 
HETATM    4  C   UNL     1      41.125 -10.761  -0.902  1.00  0.00     0.063 A 
HETATM    5  N   UNL     1      40.960 -10.470  -2.227  1.00  0.00    -0.277 N 
HETATM    6  H   UNL     1      41.249  -9.627  -2.711  1.00  0.00     0.189 HD
HETATM    7  N   UNL     1      40.331 -11.423  -2.932  1.00  0.00    -0.168 NA
HETATM    8  C   UNL     1      40.083 -12.391  -2.020  1.00  0.00     0.156 A 
HETATM    9  C   UNL     1      41.699 -10.030   0.140  1.00  0.00     0.034 A 
HETATM   10  C   UNL     1      41.693 -10.623   1.409  1.00  0.00     0.032 A 
ENDROOT
BRANCH   1  11
HETATM   11  N   UNL     1      41.180 -12.376   2.957  1.00  0.00    -0.327 N 
HETATM   12  C   UNL     1      42.240 -12.956   3.621  1.00  0.00     0.227 C 
HETATM   13  O   UNL     1      43.380 -13.101   3.204  1.00  0.00    -0.273 OA
HETATM   14  H   UNL     1      40.322 -12.282   3.476  1.00  0.00     0.169 HD
BRANCH  12  15
HETATM   15  C   UNL     1      41.922 -13.507   4.969  1.00  0.00     0.087 A 
HETATM   16  C   UNL     1      41.854 -14.998   5.259  1.00  0.00     0.034 A 
HETATM   17  C   UNL     1      42.911 -14.130   5.909  1.00  0.00     0.025 A 
BRANCH  16  18
HETATM   18  C   UNL     1      42.297 -16.090   4.299  1.00  0.00    -0.031 A 
HETATM   19  C   UNL     1      43.532 -16.745   4.471  1.00  0.00     0.009 A 
HETATM   20  C   UNL     1      43.973 -17.739   3.591  1.00  0.00     0.001 A 
HETATM   21  C   UNL     1      43.199 -18.095   2.494  1.00  0.00     0.002 A 
HETATM   22  C   UNL     1      41.988 -17.447   2.271  1.00  0.00     0.024 A 
HETATM   23  C   UNL     1      41.549 -16.455   3.155  1.00  0.00     0.040 A 
HETATM   24 CL   UNL     1      40.058 -15.663   2.769  1.00  0.00    -0.084 Cl
ENDBRANCH  16  18
ENDBRANCH  12  15
ENDBRANCH   1  11
BRANCH   8  25
HETATM   25  C   UNL     1      39.379 -13.626  -2.395  1.00  0.00     0.270 C 
HETATM   26  N   UNL     1      38.325 -13.936  -1.580  1.00  0.00    -0.365 N 
HETATM   27  H   UNL     1      38.120 -13.324  -0.797  1.00  0.00     0.159 HD
HETATM   28  H   UNL     1      37.796 -14.777  -1.745  1.00  0.00     0.159 HD
HETATM   29  O   UNL     1      39.682 -14.346  -3.340  1.00  0.00    -0.266 OA
ENDBRANCH   8  25
TORSDOF 4
ENDMDL
