MODEL 1
REMARK VINA RESULT:      -9.2      0.000      0.000
REMARK  7 active torsions:
REMARK  status: ('A' for Active; 'I' for Inactive)
REMARK    1  A    between atoms: C_2  and  C_3 
REMARK    2  A    between atoms: C_6  and  C_7 
REMARK       I    between atoms: C_7  and  N_8 
REMARK    3  A    between atoms: C_14  and  C_15 
REMARK       I    between atoms: C_15  and  N_16 
REMARK    4  A    between atoms: N_16  and  C_17 
REMARK    5  A    between atoms: C_17  and  C_18 
REMARK       I    between atoms: N_25  and  C_26 
REMARK    6  A    between atoms: C_26  and  C_27 
REMARK    7  A    between atoms: C_30  and  O_31 
ROOT
HETATM    1  C   UNL     1      42.761 -12.837   3.928  1.00  0.00     0.253 C 
HETATM    2  N   UNL     1      41.772 -11.965   3.444  1.00  0.00    -0.348 N 
HETATM    3  C   UNL     1      40.752 -12.390   2.488  1.00  0.00     0.131 C 
HETATM    4  C   UNL     1      39.536 -11.490   2.479  1.00  0.00     0.081 C 
HETATM    5  C   UNL     1      39.865 -10.004   2.334  1.00  0.00     0.142 C 
HETATM    6  O   UNL     1      38.634  -9.325   2.740  1.00  0.00    -0.358 OA
HETATM    7  C   UNL     1      38.461  -8.174   1.906  1.00  0.00     0.206 C 
HETATM    8  C   UNL     1      39.033  -8.592   0.577  1.00  0.00     0.206 C 
HETATM    9  N   UNL     1      40.103  -9.513   0.964  1.00  0.00    -0.300 N 
HETATM   10  C   UNL     1      41.248  -9.758   0.225  1.00  0.00     0.257 C 
HETATM   11  O   UNL     1      42.118 -10.560   0.544  1.00  0.00    -0.267 OA
HETATM   12  C   UNL     1      40.920  -9.595   3.371  1.00  0.00     0.081 C 
HETATM   13  C   UNL     1      42.105 -10.543   3.500  1.00  0.00     0.131 C 
HETATM   14  O   UNL     1      43.639 -12.500   4.719  1.00  0.00    -0.267 OA
ENDROOT
BRANCH   8  15
HETATM   15  C   UNL     1      37.916  -9.253  -0.266  1.00  0.00     0.243 C 
HETATM   16  N   UNL     1      38.192 -10.525  -0.688  1.00  0.00    -0.354 N 
HETATM   17  H   UNL     1      39.133 -10.883  -0.553  1.00  0.00     0.162 HD
HETATM   18  O   UNL     1      36.873  -8.669  -0.547  1.00  0.00    -0.271 OA
BRANCH  16  19
HETATM   19  C   UNL     1      37.406 -11.274  -1.646  1.00  0.00     0.181 C 
BRANCH  19  20
HETATM   20  C   UNL     1      38.033 -12.638  -1.869  1.00  0.00     0.051 A 
HETATM   21  N   UNL     1      37.575 -13.363  -2.931  1.00  0.00    -0.264 NA
HETATM   22  C   UNL     1      38.094 -14.594  -3.120  1.00  0.00     0.117 A 
HETATM   23  C   UNL     1      39.068 -15.144  -2.306  1.00  0.00     0.019 A 
HETATM   24  C   UNL     1      39.539 -14.387  -1.238  1.00  0.00     0.003 A 
HETATM   25  C   UNL     1      39.018 -13.115  -1.012  1.00  0.00     0.029 A 
ENDBRANCH  19  20
ENDBRANCH  16  19
ENDBRANCH   8  15
BRANCH  10  26
HETATM   26  C   UNL     1      41.528  -8.968  -0.996  1.00  0.00     0.032 A 
HETATM   27  C   UNL     1      42.392  -7.875  -0.876  1.00  0.00     0.020 A 
HETATM   28  C   UNL     1      42.753  -7.144  -2.011  1.00  0.00     0.038 A 
HETATM   29  C   UNL     1      42.268  -7.502  -3.272  1.00  0.00     0.068 A 
HETATM   30  C   UNL     1      41.415  -8.600  -3.389  1.00  0.00     0.038 A 
HETATM   31  C   UNL     1      41.058  -9.341  -2.256  1.00  0.00     0.020 A 
BRANCH  29  32
HETATM   32  O   UNL     1      42.710  -6.716  -4.298  1.00  0.00    -0.356 OA
HETATM   33  C   UNL     1      42.072  -5.455  -4.464  1.00  0.00     0.210 C 
ENDBRANCH  29  32
ENDBRANCH  10  26
BRANCH   1  34
HETATM   34  C   UNL     1      42.767 -14.244   3.467  1.00  0.00     0.032 A 
HETATM   35  C   UNL     1      43.316 -14.579   2.226  1.00  0.00     0.017 A 
HETATM   36  C   UNL     1      43.317 -15.908   1.803  1.00  0.00     0.008 A 
HETATM   37  C   UNL     1      42.802 -16.918   2.631  1.00  0.00    -0.059 A 
HETATM   38  C   UNL     1      42.291 -16.573   3.891  1.00  0.00     0.008 A 
HETATM   39  C   UNL     1      42.276 -15.242   4.312  1.00  0.00     0.017 A 
BRANCH  37  40
HETATM   40  C   UNL     1      42.810 -18.356   2.173  1.00  0.00     0.034 C 
HETATM   41  C   UNL     1      43.896 -19.176   2.854  1.00  0.00     0.010 C 
ENDBRANCH  37  40
ENDBRANCH   1  34
TORSDOF 7
ENDMDL
MODEL 2
REMARK VINA RESULT:      -8.8      2.977      9.414
REMARK  7 active torsions:
REMARK  status: ('A' for Active; 'I' for Inactive)
REMARK    1  A    between atoms: C_2  and  C_3 
REMARK    2  A    between atoms: C_6  and  C_7 
REMARK       I    between atoms: C_7  and  N_8 
REMARK    3  A    between atoms: C_14  and  C_15 
REMARK       I    between atoms: C_15  and  N_16 
REMARK    4  A    between atoms: N_16  and  C_17 
REMARK    5  A    between atoms: C_17  and  C_18 
REMARK       I    between atoms: N_25  and  C_26 
REMARK    6  A    between atoms: C_26  and  C_27 
REMARK    7  A    between atoms: C_30  and  O_31 
ROOT
HETATM    1  C   UNL     1      38.643  -9.672  -0.448  1.00  0.00     0.253 C 
HETATM    2  N   UNL     1      39.301 -10.005   0.747  1.00  0.00    -0.348 N 
HETATM    3  C   UNL     1      40.738  -9.807   0.933  1.00  0.00     0.131 C 
HETATM    4  C   UNL     1      41.146  -9.756   2.388  1.00  0.00     0.081 C 
HETATM    5  C   UNL     1      40.624 -10.927   3.220  1.00  0.00     0.142 C 
HETATM    6  O   UNL     1      40.787 -10.482   4.605  1.00  0.00    -0.358 OA
HETATM    7  C   UNL     1      41.178 -11.610   5.395  1.00  0.00     0.206 C 
HETATM    8  C   UNL     1      42.017 -12.442   4.461  1.00  0.00     0.206 C 
HETATM    9  N   UNL     1      41.403 -12.178   3.158  1.00  0.00    -0.300 N 
HETATM   10  C   UNL     1      41.414 -13.049   2.082  1.00  0.00     0.257 C 
HETATM   11  O   UNL     1      40.928 -12.799   0.985  1.00  0.00    -0.267 OA
HETATM   12  C   UNL     1      39.111 -11.085   3.016  1.00  0.00     0.081 C 
HETATM   13  C   UNL     1      38.641 -11.018   1.568  1.00  0.00     0.131 C 
HETATM   14  O   UNL     1      37.442  -9.845  -0.635  1.00  0.00    -0.267 OA
ENDROOT
BRANCH   8  15
HETATM   15  C   UNL     1      43.490 -11.981   4.561  1.00  0.00     0.243 C 
HETATM   16  N   UNL     1      44.050 -12.111   5.803  1.00  0.00    -0.354 N 
HETATM   17  H   UNL     1      43.443 -12.352   6.581  1.00  0.00     0.162 HD
HETATM   18  O   UNL     1      44.101 -11.519   3.600  1.00  0.00    -0.271 OA
BRANCH  16  19
HETATM   19  C   UNL     1      45.334 -11.572   6.199  1.00  0.00     0.181 C 
BRANCH  19  20
HETATM   20  C   UNL     1      45.201 -10.857   7.531  1.00  0.00     0.051 A 
HETATM   21  N   UNL     1      44.274 -11.345   8.405  1.00  0.00    -0.264 NA
HETATM   22  C   UNL     1      44.116 -10.696   9.578  1.00  0.00     0.117 A 
HETATM   23  C   UNL     1      44.853  -9.582   9.939  1.00  0.00     0.019 A 
HETATM   24  C   UNL     1      45.808  -9.107   9.046  1.00  0.00     0.003 A 
HETATM   25  C   UNL     1      45.990  -9.749   7.823  1.00  0.00     0.029 A 
ENDBRANCH  19  20
ENDBRANCH  16  19
ENDBRANCH   8  15
BRANCH  10  26
HETATM   26  C   UNL     1      41.963 -14.416   2.237  1.00  0.00     0.032 A 
HETATM   27  C   UNL     1      41.104 -15.408   2.719  1.00  0.00     0.020 A 
HETATM   28  C   UNL     1      41.547 -16.730   2.809  1.00  0.00     0.038 A 
HETATM   29  C   UNL     1      42.842 -17.075   2.411  1.00  0.00     0.068 A 
HETATM   30  C   UNL     1      43.693 -16.084   1.920  1.00  0.00     0.038 A 
HETATM   31  C   UNL     1      43.249 -14.760   1.820  1.00  0.00     0.020 A 
BRANCH  29  32
HETATM   32  O   UNL     1      43.143 -18.403   2.535  1.00  0.00    -0.356 OA
HETATM   33  C   UNL     1      44.071 -18.759   3.553  1.00  0.00     0.210 C 
ENDBRANCH  29  32
ENDBRANCH  10  26
BRANCH   1  34
HETATM   34  C   UNL     1      39.424  -9.084  -1.560  1.00  0.00     0.032 A 
HETATM   35  C   UNL     1      40.010  -9.909  -2.526  1.00  0.00     0.017 A 
HETATM   36  C   UNL     1      40.742  -9.342  -3.569  1.00  0.00     0.008 A 
HETATM   37  C   UNL     1      40.867  -7.948  -3.676  1.00  0.00    -0.059 A 
HETATM   38  C   UNL     1      40.241  -7.131  -2.723  1.00  0.00     0.008 A 
HETATM   39  C   UNL     1      39.517  -7.695  -1.669  1.00  0.00     0.017 A 
BRANCH  37  40
HETATM   40  C   UNL     1      41.655  -7.339  -4.810  1.00  0.00     0.034 C 
HETATM   41  C   UNL     1      43.065  -6.947  -4.393  1.00  0.00     0.010 C 
ENDBRANCH  37  40
ENDBRANCH   1  34
TORSDOF 7
ENDMDL
MODEL 3
REMARK VINA RESULT:      -8.2     12.147     16.189
REMARK  7 active torsions:
REMARK  status: ('A' for Active; 'I' for Inactive)
REMARK    1  A    between atoms: C_2  and  C_3 
REMARK    2  A    between atoms: C_6  and  C_7 
REMARK       I    between atoms: C_7  and  N_8 
REMARK    3  A    between atoms: C_14  and  C_15 
REMARK       I    between atoms: C_15  and  N_16 
REMARK    4  A    between atoms: N_16  and  C_17 
REMARK    5  A    between atoms: C_17  and  C_18 
REMARK       I    between atoms: N_25  and  C_26 
REMARK    6  A    between atoms: C_26  and  C_27 
REMARK    7  A    between atoms: C_30  and  O_31 
ROOT
HETATM    1  C   UNL     1      40.531  -9.171  11.214  1.00  0.00     0.253 C 
HETATM    2  N   UNL     1      40.279  -8.051  12.023  1.00  0.00    -0.348 N 
HETATM    3  C   UNL     1      41.318  -7.078  12.361  1.00  0.00     0.131 C 
HETATM    4  C   UNL     1      40.760  -5.743  12.799  1.00  0.00     0.081 C 
HETATM    5  C   UNL     1      39.699  -5.843  13.895  1.00  0.00     0.142 C 
HETATM    6  O   UNL     1      39.041  -4.536  13.875  1.00  0.00    -0.358 OA
HETATM    7  C   UNL     1      38.728  -4.171  15.224  1.00  0.00     0.206 C 
HETATM    8  C   UNL     1      39.850  -4.762  16.036  1.00  0.00     0.206 C 
HETATM    9  N   UNL     1      40.193  -5.968  15.279  1.00  0.00    -0.300 N 
HETATM   10  C   UNL     1      40.747  -7.115  15.820  1.00  0.00     0.257 C 
HETATM   11  O   UNL     1      41.063  -8.104  15.168  1.00  0.00    -0.267 OA
HETATM   12  C   UNL     1      38.617  -6.853  13.491  1.00  0.00     0.081 C 
HETATM   13  C   UNL     1      39.137  -8.170  12.927  1.00  0.00     0.131 C 
HETATM   14  O   UNL     1      39.680 -10.010  10.930  1.00  0.00    -0.267 OA
ENDROOT
BRANCH   8  15
HETATM   15  C   UNL     1      41.002  -3.733  16.126  1.00  0.00     0.243 C 
HETATM   16  N   UNL     1      41.079  -2.863  15.073  1.00  0.00    -0.354 N 
HETATM   17  H   UNL     1      40.492  -3.037  14.262  1.00  0.00     0.162 HD
HETATM   18  O   UNL     1      41.794  -3.715  17.065  1.00  0.00    -0.271 OA
BRANCH  16  19
HETATM   19  C   UNL     1      42.174  -1.949  14.825  1.00  0.00     0.181 C 
BRANCH  19  20
HETATM   20  C   UNL     1      42.469  -1.891  13.338  1.00  0.00     0.051 A 
HETATM   21  N   UNL     1      42.157  -0.730  12.690  1.00  0.00    -0.264 NA
HETATM   22  C   UNL     1      42.376  -0.677  11.360  1.00  0.00     0.117 A 
HETATM   23  C   UNL     1      42.911  -1.726  10.632  1.00  0.00     0.019 A 
HETATM   24  C   UNL     1      43.242  -2.896  11.308  1.00  0.00     0.003 A 
HETATM   25  C   UNL     1      43.020  -2.985  12.681  1.00  0.00     0.029 A 
ENDBRANCH  19  20
ENDBRANCH  16  19
ENDBRANCH   8  15
BRANCH  10  26
HETATM   26  C   UNL     1      40.914  -7.241  17.286  1.00  0.00     0.032 A 
HETATM   27  C   UNL     1      39.828  -7.724  18.022  1.00  0.00     0.020 A 
HETATM   28  C   UNL     1      39.958  -7.938  19.397  1.00  0.00     0.038 A 
HETATM   29  C   UNL     1      41.170  -7.684  20.045  1.00  0.00     0.068 A 
HETATM   30  C   UNL     1      42.255  -7.213  19.305  1.00  0.00     0.038 A 
HETATM   31  C   UNL     1      42.132  -7.006  17.926  1.00  0.00     0.020 A 
BRANCH  29  32
HETATM   32  O   UNL     1      41.167  -7.950  21.386  1.00  0.00    -0.356 OA
HETATM   33  C   UNL     1      39.915  -8.281  21.974  1.00  0.00     0.210 C 
ENDBRANCH  29  32
ENDBRANCH  10  26
BRANCH   1  34
HETATM   34  C   UNL     1      41.892  -9.374  10.668  1.00  0.00     0.032 A 
HETATM   35  C   UNL     1      42.861 -10.045  11.420  1.00  0.00     0.017 A 
HETATM   36  C   UNL     1      44.140 -10.231  10.894  1.00  0.00     0.008 A 
HETATM   37  C   UNL     1      44.451  -9.779   9.602  1.00  0.00    -0.059 A 
HETATM   38  C   UNL     1      43.456  -9.143   8.844  1.00  0.00     0.008 A 
HETATM   39  C   UNL     1      42.178  -8.943   9.372  1.00  0.00     0.017 A 
BRANCH  37  40
HETATM   40  C   UNL     1      45.833  -9.987   9.034  1.00  0.00     0.034 C 
HETATM   41  C   UNL     1      45.803 -10.595   7.639  1.00  0.00     0.010 C 
ENDBRANCH  37  40
ENDBRANCH   1  34
TORSDOF 7
ENDMDL
MODEL 4
REMARK VINA RESULT:      -8.1      3.130      9.489
REMARK  7 active torsions:
REMARK  status: ('A' for Active; 'I' for Inactive)
REMARK    1  A    between atoms: C_2  and  C_3 
REMARK    2  A    between atoms: C_6  and  C_7 
REMARK       I    between atoms: C_7  and  N_8 
REMARK    3  A    between atoms: C_14  and  C_15 
REMARK       I    between atoms: C_15  and  N_16 
REMARK    4  A    between atoms: N_16  and  C_17 
REMARK    5  A    between atoms: C_17  and  C_18 
REMARK       I    between atoms: N_25  and  C_26 
REMARK    6  A    between atoms: C_26  and  C_27 
REMARK    7  A    between atoms: C_30  and  O_31 
ROOT
HETATM    1  C   UNL     1      39.802  -8.588   1.003  1.00  0.00     0.253 C 
HETATM    2  N   UNL     1      40.072  -9.395   2.120  1.00  0.00    -0.348 N 
HETATM    3  C   UNL     1      41.411  -9.514   2.695  1.00  0.00     0.131 C 
HETATM    4  C   UNL     1      41.400 -10.003   4.126  1.00  0.00     0.081 C 
HETATM    5  C   UNL     1      40.576 -11.273   4.341  1.00  0.00     0.142 C 
HETATM    6  O   UNL     1      40.381 -11.330   5.791  1.00  0.00    -0.358 OA
HETATM    7  C   UNL     1      40.446 -12.702   6.198  1.00  0.00     0.206 C 
HETATM    8  C   UNL     1      41.443 -13.319   5.253  1.00  0.00     0.206 C 
HETATM    9  N   UNL     1      41.240 -12.551   4.024  1.00  0.00    -0.300 N 
HETATM   10  C   UNL     1      41.481 -13.019   2.744  1.00  0.00     0.257 C 
HETATM   11  O   UNL     1      41.341 -12.351   1.726  1.00  0.00    -0.267 OA
HETATM   12  C   UNL     1      39.172 -11.097   3.746  1.00  0.00     0.081 C 
HETATM   13  C   UNL     1      39.131 -10.489   2.349  1.00  0.00     0.131 C 
HETATM   14  O   UNL     1      38.689  -8.485   0.491  1.00  0.00    -0.267 OA
ENDROOT
BRANCH   8  15
HETATM   15  C   UNL     1      42.862 -13.173   5.852  1.00  0.00     0.243 C 
HETATM   16  N   UNL     1      43.153 -11.930   6.345  1.00  0.00    -0.354 N 
HETATM   17  H   UNL     1      42.500 -11.174   6.158  1.00  0.00     0.162 HD
HETATM   18  O   UNL     1      43.668 -14.101   5.867  1.00  0.00    -0.271 OA
BRANCH  16  19
HETATM   19  C   UNL     1      44.464 -11.487   6.769  1.00  0.00     0.181 C 
BRANCH  19  20
HETATM   20  C   UNL     1      44.336 -10.607   7.999  1.00  0.00     0.051 A 
HETATM   21  N   UNL     1      43.111 -10.054   8.238  1.00  0.00    -0.264 NA
HETATM   22  C   UNL     1      42.991  -9.238   9.306  1.00  0.00     0.117 A 
HETATM   23  C   UNL     1      44.034  -8.950  10.168  1.00  0.00     0.019 A 
HETATM   24  C   UNL     1      45.272  -9.536   9.923  1.00  0.00     0.003 A 
HETATM   25  C   UNL     1      45.431 -10.378   8.824  1.00  0.00     0.029 A 
ENDBRANCH  19  20
ENDBRANCH  16  19
ENDBRANCH   8  15
BRANCH  10  26
HETATM   26  C   UNL     1      41.855 -14.435   2.528  1.00  0.00     0.032 A 
HETATM   27  C   UNL     1      43.092 -14.693   1.928  1.00  0.00     0.020 A 
HETATM   28  C   UNL     1      43.530 -16.011   1.774  1.00  0.00     0.038 A 
HETATM   29  C   UNL     1      42.749 -17.079   2.225  1.00  0.00     0.068 A 
HETATM   30  C   UNL     1      41.520 -16.816   2.833  1.00  0.00     0.038 A 
HETATM   31  C   UNL     1      41.082 -15.497   2.998  1.00  0.00     0.020 A 
BRANCH  29  32
HETATM   32  O   UNL     1      43.300 -18.314   2.028  1.00  0.00    -0.356 OA
HETATM   33  C   UNL     1      43.795 -18.988   3.178  1.00  0.00     0.210 C 
ENDBRANCH  29  32
ENDBRANCH  10  26
BRANCH   1  34
HETATM   34  C   UNL     1      40.905  -7.817   0.388  1.00  0.00     0.032 A 
HETATM   35  C   UNL     1      41.769  -8.426  -0.528  1.00  0.00     0.017 A 
HETATM   36  C   UNL     1      42.804  -7.688  -1.101  1.00  0.00     0.008 A 
HETATM   37  C   UNL     1      42.965  -6.328  -0.792  1.00  0.00    -0.059 A 
HETATM   38  C   UNL     1      42.067  -5.720   0.097  1.00  0.00     0.008 A 
HETATM   39  C   UNL     1      41.036  -6.458   0.683  1.00  0.00     0.017 A 
BRANCH  37  40
HETATM   40  C   UNL     1      44.083  -5.531  -1.419  1.00  0.00     0.034 C 
HETATM   41  C   UNL     1      43.889  -4.031  -1.255  1.00  0.00     0.010 C 
ENDBRANCH  37  40
ENDBRANCH   1  34
TORSDOF 7
ENDMDL
MODEL 5
REMARK VINA RESULT:      -7.8     13.560     17.744
REMARK  7 active torsions:
REMARK  status: ('A' for Active; 'I' for Inactive)
REMARK    1  A    between atoms: C_2  and  C_3 
REMARK    2  A    between atoms: C_6  and  C_7 
REMARK       I    between atoms: C_7  and  N_8 
REMARK    3  A    between atoms: C_14  and  C_15 
REMARK       I    between atoms: C_15  and  N_16 
REMARK    4  A    between atoms: N_16  and  C_17 
REMARK    5  A    between atoms: C_17  and  C_18 
REMARK       I    between atoms: N_25  and  C_26 
REMARK    6  A    between atoms: C_26  and  C_27 
REMARK    7  A    between atoms: C_30  and  O_31 
ROOT
HETATM    1  C   UNL     1      40.658  -8.854  11.197  1.00  0.00     0.253 C 
HETATM    2  N   UNL     1      40.368  -7.821  12.103  1.00  0.00    -0.348 N 
HETATM    3  C   UNL     1      41.369  -6.839  12.519  1.00  0.00     0.131 C 
HETATM    4  C   UNL     1      40.760  -5.572  13.077  1.00  0.00     0.081 C 
HETATM    5  C   UNL     1      39.715  -5.813  14.167  1.00  0.00     0.142 C 
HETATM    6  O   UNL     1      39.003  -4.538  14.266  1.00  0.00    -0.358 OA
HETATM    7  C   UNL     1      38.688  -4.308  15.644  1.00  0.00     0.206 C 
HETATM    8  C   UNL     1      39.841  -4.920  16.393  1.00  0.00     0.206 C 
HETATM    9  N   UNL     1      40.227  -6.039  15.531  1.00  0.00    -0.300 N 
HETATM   10  C   UNL     1      40.833  -7.205  15.965  1.00  0.00     0.257 C 
HETATM   11  O   UNL     1      41.184  -8.118  15.226  1.00  0.00    -0.267 OA
HETATM   12  C   UNL     1      38.672  -6.829  13.680  1.00  0.00     0.081 C 
HETATM   13  C   UNL     1      39.241  -8.067  12.999  1.00  0.00     0.131 C 
HETATM   14  O   UNL     1      39.840  -9.700  10.844  1.00  0.00    -0.267 OA
ENDROOT
BRANCH   8  15
HETATM   15  C   UNL     1      40.951  -3.856  16.568  1.00  0.00     0.243 C 
HETATM   16  N   UNL     1      41.582  -3.877  17.782  1.00  0.00    -0.354 N 
HETATM   17  H   UNL     1      41.196  -4.467  18.514  1.00  0.00     0.162 HD
HETATM   18  O   UNL     1      41.228  -3.046  15.687  1.00  0.00    -0.271 OA
BRANCH  16  19
HETATM   19  C   UNL     1      42.505  -2.869  18.259  1.00  0.00     0.181 C 
BRANCH  19  20
HETATM   20  C   UNL     1      42.959  -3.214  19.666  1.00  0.00     0.051 A 
HETATM   21  N   UNL     1      44.033  -2.528  20.154  1.00  0.00    -0.264 NA
HETATM   22  C   UNL     1      44.474  -2.851  21.389  1.00  0.00     0.117 A 
HETATM   23  C   UNL     1      43.885  -3.822  22.179  1.00  0.00     0.019 A 
HETATM   24  C   UNL     1      42.779  -4.500  21.676  1.00  0.00     0.003 A 
HETATM   25  C   UNL     1      42.305  -4.196  20.402  1.00  0.00     0.029 A 
ENDBRANCH  19  20
ENDBRANCH  16  19
ENDBRANCH   8  15
BRANCH  10  26
HETATM   26  C   UNL     1      41.020  -7.453  17.413  1.00  0.00     0.032 A 
HETATM   27  C   UNL     1      39.925  -7.940  18.132  1.00  0.00     0.020 A 
HETATM   28  C   UNL     1      40.068  -8.266  19.484  1.00  0.00     0.038 A 
HETATM   29  C   UNL     1      41.302  -8.121  20.124  1.00  0.00     0.068 A 
HETATM   30  C   UNL     1      42.396  -7.645  19.399  1.00  0.00     0.038 A 
HETATM   31  C   UNL     1      42.258  -7.326  18.043  1.00  0.00     0.020 A 
BRANCH  29  32
HETATM   32  O   UNL     1      41.310  -8.490  21.440  1.00  0.00    -0.356 OA
HETATM   33  C   UNL     1      40.295  -9.394  21.861  1.00  0.00     0.210 C 
ENDBRANCH  29  32
ENDBRANCH  10  26
BRANCH   1  34
HETATM   34  C   UNL     1      42.021  -8.950  10.627  1.00  0.00     0.032 A 
HETATM   35  C   UNL     1      42.977  -9.782  11.218  1.00  0.00     0.017 A 
HETATM   36  C   UNL     1      44.258  -9.865  10.672  1.00  0.00     0.008 A 
HETATM   37  C   UNL     1      44.584  -9.145   9.511  1.00  0.00    -0.059 A 
HETATM   38  C   UNL     1      43.603  -8.346   8.905  1.00  0.00     0.008 A 
HETATM   39  C   UNL     1      42.323  -8.250   9.457  1.00  0.00     0.017 A 
BRANCH  37  40
HETATM   40  C   UNL     1      45.968  -9.242   8.919  1.00  0.00     0.034 C 
HETATM   41  C   UNL     1      46.098 -10.391   7.930  1.00  0.00     0.010 C 
ENDBRANCH  37  40
ENDBRANCH   1  34
TORSDOF 7
ENDMDL
MODEL 6
REMARK VINA RESULT:      -7.6      3.414      8.985
REMARK  7 active torsions:
REMARK  status: ('A' for Active; 'I' for Inactive)
REMARK    1  A    between atoms: C_2  and  C_3 
REMARK    2  A    between atoms: C_6  and  C_7 
REMARK       I    between atoms: C_7  and  N_8 
REMARK    3  A    between atoms: C_14  and  C_15 
REMARK       I    between atoms: C_15  and  N_16 
REMARK    4  A    between atoms: N_16  and  C_17 
REMARK    5  A    between atoms: C_17  and  C_18 
REMARK       I    between atoms: N_25  and  C_26 
REMARK    6  A    between atoms: C_26  and  C_27 
REMARK    7  A    between atoms: C_30  and  O_31 
ROOT
HETATM    1  C   UNL     1      35.806  -9.219  -3.667  1.00  0.00     0.253 C 
HETATM    2  N   UNL     1      36.779 -10.190  -3.377  1.00  0.00    -0.348 N 
HETATM    3  C   UNL     1      36.452 -11.455  -2.722  1.00  0.00     0.131 C 
HETATM    4  C   UNL     1      37.497 -12.525  -2.945  1.00  0.00     0.081 C 
HETATM    5  C   UNL     1      38.923 -12.075  -2.628  1.00  0.00     0.142 C 
HETATM    6  O   UNL     1      39.767 -13.083  -3.271  1.00  0.00    -0.358 OA
HETATM    7  C   UNL     1      40.900 -13.323  -2.428  1.00  0.00     0.206 C 
HETATM    8  C   UNL     1      40.365 -13.146  -1.032  1.00  0.00     0.206 C 
HETATM    9  N   UNL     1      39.330 -12.126  -1.212  1.00  0.00    -0.300 N 
HETATM   10  C   UNL     1      38.916 -11.232  -0.238  1.00  0.00     0.257 C 
HETATM   11  O   UNL     1      38.023 -10.408  -0.392  1.00  0.00    -0.267 OA
HETATM   12  C   UNL     1      39.234 -10.758  -3.354  1.00  0.00     0.081 C 
HETATM   13  C   UNL     1      38.148  -9.693  -3.257  1.00  0.00     0.131 C 
HETATM   14  O   UNL     1      36.058  -8.142  -4.201  1.00  0.00    -0.267 OA
ENDROOT
BRANCH   8  15
HETATM   15  C   UNL     1      39.821 -14.503  -0.525  1.00  0.00     0.243 C 
HETATM   16  N   UNL     1      40.138 -14.800   0.773  1.00  0.00    -0.354 N 
HETATM   17  H   UNL     1      40.807 -14.205   1.253  1.00  0.00     0.162 HD
HETATM   18  O   UNL     1      39.170 -15.259  -1.241  1.00  0.00    -0.271 OA
BRANCH  16  19
HETATM   19  C   UNL     1      39.921 -16.081   1.412  1.00  0.00     0.181 C 
BRANCH  19  20
HETATM   20  C   UNL     1      40.936 -16.278   2.523  1.00  0.00     0.051 A 
HETATM   21  N   UNL     1      40.597 -15.810   3.760  1.00  0.00    -0.264 NA
HETATM   22  C   UNL     1      41.505 -15.943   4.750  1.00  0.00     0.117 A 
HETATM   23  C   UNL     1      42.741 -16.538   4.576  1.00  0.00     0.019 A 
HETATM   24  C   UNL     1      43.065 -17.028   3.315  1.00  0.00     0.003 A 
HETATM   25  C   UNL     1      42.153 -16.900   2.270  1.00  0.00     0.029 A 
ENDBRANCH  19  20
ENDBRANCH  16  19
ENDBRANCH   8  15
BRANCH  10  26
HETATM   26  C   UNL     1      39.619 -11.172   1.064  1.00  0.00     0.032 A 
HETATM   27  C   UNL     1      39.015 -11.804   2.155  1.00  0.00     0.020 A 
HETATM   28  C   UNL     1      39.673 -11.847   3.387  1.00  0.00     0.038 A 
HETATM   29  C   UNL     1      40.938 -11.273   3.539  1.00  0.00     0.068 A 
HETATM   30  C   UNL     1      41.543 -10.653   2.444  1.00  0.00     0.038 A 
HETATM   31  C   UNL     1      40.891 -10.616   1.206  1.00  0.00     0.020 A 
BRANCH  29  32
HETATM   32  O   UNL     1      41.477 -11.398   4.789  1.00  0.00    -0.356 OA
HETATM   33  C   UNL     1      40.816 -12.279   5.689  1.00  0.00     0.210 C 
ENDBRANCH  29  32
ENDBRANCH  10  26
BRANCH   1  34
HETATM   34  C   UNL     1      34.394  -9.486  -3.312  1.00  0.00     0.032 A 
HETATM   35  C   UNL     1      33.572 -10.209  -4.181  1.00  0.00     0.017 A 
HETATM   36  C   UNL     1      32.243 -10.455  -3.835  1.00  0.00     0.008 A 
HETATM   37  C   UNL     1      31.734 -10.011  -2.604  1.00  0.00    -0.059 A 
HETATM   38  C   UNL     1      32.582  -9.322  -1.724  1.00  0.00     0.008 A 
HETATM   39  C   UNL     1      33.909  -9.062  -2.073  1.00  0.00     0.017 A 
BRANCH  37  40
HETATM   40  C   UNL     1      30.298 -10.284  -2.230  1.00  0.00     0.034 C 
HETATM   41  C   UNL     1      29.821  -9.411  -1.080  1.00  0.00     0.010 C 
ENDBRANCH  37  40
ENDBRANCH   1  34
TORSDOF 7
ENDMDL
MODEL 7
REMARK VINA RESULT:      -7.5      2.750      6.001
REMARK  7 active torsions:
REMARK  status: ('A' for Active; 'I' for Inactive)
REMARK    1  A    between atoms: C_2  and  C_3 
REMARK    2  A    between atoms: C_6  and  C_7 
REMARK       I    between atoms: C_7  and  N_8 
REMARK    3  A    between atoms: C_14  and  C_15 
REMARK       I    between atoms: C_15  and  N_16 
REMARK    4  A    between atoms: N_16  and  C_17 
REMARK    5  A    between atoms: C_17  and  C_18 
REMARK       I    between atoms: N_25  and  C_26 
REMARK    6  A    between atoms: C_26  and  C_27 
REMARK    7  A    between atoms: C_30  and  O_31 
ROOT
HETATM    1  C   UNL     1      41.607 -13.573   5.574  1.00  0.00     0.253 C 
HETATM    2  N   UNL     1      41.356 -13.631   4.194  1.00  0.00    -0.348 N 
HETATM    3  C   UNL     1      42.095 -12.819   3.228  1.00  0.00     0.131 C 
HETATM    4  C   UNL     1      42.032 -13.369   1.821  1.00  0.00     0.081 C 
HETATM    5  C   UNL     1      40.615 -13.676   1.337  1.00  0.00     0.142 C 
HETATM    6  O   UNL     1      40.815 -14.534   0.168  1.00  0.00    -0.358 OA
HETATM    7  C   UNL     1      39.823 -14.198  -0.809  1.00  0.00     0.206 C 
HETATM    8  C   UNL     1      39.610 -12.719  -0.625  1.00  0.00     0.206 C 
HETATM    9  N   UNL     1      39.838 -12.538   0.810  1.00  0.00    -0.300 N 
HETATM   10  C   UNL     1      39.273 -11.541   1.586  1.00  0.00     0.257 C 
HETATM   11  O   UNL     1      39.502 -11.380   2.779  1.00  0.00    -0.267 OA
HETATM   12  C   UNL     1      39.884 -14.549   2.366  1.00  0.00     0.081 C 
HETATM   13  C   UNL     1      40.025 -14.099   3.815  1.00  0.00     0.131 C 
HETATM   14  O   UNL     1      40.990 -14.232   6.407  1.00  0.00    -0.267 OA
ENDROOT
BRANCH   8  15
HETATM   15  C   UNL     1      40.614 -11.950  -1.517  1.00  0.00     0.243 C 
HETATM   16  N   UNL     1      41.250 -10.907  -0.899  1.00  0.00    -0.354 N 
HETATM   17  H   UNL     1      40.926 -10.624   0.021  1.00  0.00     0.162 HD
HETATM   18  O   UNL     1      40.808 -12.246  -2.693  1.00  0.00    -0.271 OA
BRANCH  16  19
HETATM   19  C   UNL     1      42.074  -9.921  -1.566  1.00  0.00     0.181 C 
BRANCH  19  20
HETATM   20  C   UNL     1      41.310  -8.617  -1.696  1.00  0.00     0.051 A 
HETATM   21  N   UNL     1      41.580  -7.647  -0.774  1.00  0.00    -0.264 NA
HETATM   22  C   UNL     1      40.879  -6.496  -0.853  1.00  0.00     0.117 A 
HETATM   23  C   UNL     1      39.924  -6.249  -1.822  1.00  0.00     0.019 A 
HETATM   24  C   UNL     1      39.673  -7.239  -2.767  1.00  0.00     0.003 A 
HETATM   25  C   UNL     1      40.373  -8.442  -2.709  1.00  0.00     0.029 A 
ENDBRANCH  19  20
ENDBRANCH  16  19
ENDBRANCH   8  15
BRANCH  10  26
HETATM   26  C   UNL     1      38.257 -10.633   1.007  1.00  0.00     0.032 A 
HETATM   27  C   UNL     1      36.924 -11.057   1.027  1.00  0.00     0.020 A 
HETATM   28  C   UNL     1      35.916 -10.206   0.566  1.00  0.00     0.038 A 
HETATM   29  C   UNL     1      36.224  -8.927   0.093  1.00  0.00     0.068 A 
HETATM   30  C   UNL     1      37.554  -8.504   0.085  1.00  0.00     0.038 A 
HETATM   31  C   UNL     1      38.566  -9.350   0.555  1.00  0.00     0.020 A 
BRANCH  29  32
HETATM   32  O   UNL     1      35.145  -8.193  -0.312  1.00  0.00    -0.356 OA
HETATM   33  C   UNL     1      34.071  -8.905  -0.915  1.00  0.00     0.210 C 
ENDBRANCH  29  32
ENDBRANCH  10  26
BRANCH   1  34
HETATM   34  C   UNL     1      42.667 -12.669   6.076  1.00  0.00     0.032 A 
HETATM   35  C   UNL     1      42.369 -11.341   6.397  1.00  0.00     0.017 A 
HETATM   36  C   UNL     1      43.376 -10.499   6.869  1.00  0.00     0.008 A 
HETATM   37  C   UNL     1      44.679 -10.985   7.058  1.00  0.00    -0.059 A 
HETATM   38  C   UNL     1      44.954 -12.330   6.771  1.00  0.00     0.008 A 
HETATM   39  C   UNL     1      43.952 -13.173   6.285  1.00  0.00     0.017 A 
BRANCH  37  40
HETATM   40  C   UNL     1      45.764 -10.073   7.576  1.00  0.00     0.034 C 
HETATM   41  C   UNL     1      45.455  -9.530   8.963  1.00  0.00     0.010 C 
ENDBRANCH  37  40
ENDBRANCH   1  34
TORSDOF 7
ENDMDL
MODEL 8
REMARK VINA RESULT:      -7.4      6.730     10.837
REMARK  7 active torsions:
REMARK  status: ('A' for Active; 'I' for Inactive)
REMARK    1  A    between atoms: C_2  and  C_3 
REMARK    2  A    between atoms: C_6  and  C_7 
REMARK       I    between atoms: C_7  and  N_8 
REMARK    3  A    between atoms: C_14  and  C_15 
REMARK       I    between atoms: C_15  and  N_16 
REMARK    4  A    between atoms: N_16  and  C_17 
REMARK    5  A    between atoms: C_17  and  C_18 
REMARK       I    between atoms: N_25  and  C_26 
REMARK    6  A    between atoms: C_26  and  C_27 
REMARK    7  A    between atoms: C_30  and  O_31 
ROOT
HETATM    1  C   UNL     1      39.416 -11.040   4.396  1.00  0.00     0.253 C 
HETATM    2  N   UNL     1      40.041  -9.957   5.035  1.00  0.00    -0.348 N 
HETATM    3  C   UNL     1      41.134 -10.135   5.989  1.00  0.00     0.131 C 
HETATM    4  C   UNL     1      41.969  -8.887   6.174  1.00  0.00     0.081 C 
HETATM    5  C   UNL     1      41.149  -7.633   6.478  1.00  0.00     0.142 C 
HETATM    6  O   UNL     1      42.078  -6.530   6.226  1.00  0.00    -0.358 OA
HETATM    7  C   UNL     1      41.837  -5.509   7.201  1.00  0.00     0.206 C 
HETATM    8  C   UNL     1      41.429  -6.268   8.436  1.00  0.00     0.206 C 
HETATM    9  N   UNL     1      40.743  -7.437   7.882  1.00  0.00    -0.300 N 
HETATM   10  C   UNL     1      39.742  -8.149   8.521  1.00  0.00     0.257 C 
HETATM   11  O   UNL     1      39.203  -9.148   8.060  1.00  0.00    -0.267 OA
HETATM   12  C   UNL     1      40.030  -7.470   5.441  1.00  0.00     0.081 C 
HETATM   13  C   UNL     1      39.242  -8.737   5.133  1.00  0.00     0.131 C 
HETATM   14  O   UNL     1      38.485 -10.918   3.604  1.00  0.00    -0.267 OA
ENDROOT
BRANCH   8  15
HETATM   15  C   UNL     1      42.694  -6.618   9.255  1.00  0.00     0.243 C 
HETATM   16  N   UNL     1      42.861  -7.951   9.513  1.00  0.00    -0.354 N 
HETATM   17  H   UNL     1      42.098  -8.584   9.288  1.00  0.00     0.162 HD
HETATM   18  O   UNL     1      43.476  -5.759   9.654  1.00  0.00    -0.271 OA
BRANCH  16  19
HETATM   19  C   UNL     1      43.844  -8.509  10.417  1.00  0.00     0.181 C 
BRANCH  19  20
HETATM   20  C   UNL     1      43.233  -8.684  11.795  1.00  0.00     0.051 A 
HETATM   21  N   UNL     1      42.573  -9.854  12.035  1.00  0.00    -0.264 NA
HETATM   22  C   UNL     1      41.990 -10.009  13.242  1.00  0.00     0.117 A 
HETATM   23  C   UNL     1      42.042  -9.055  14.242  1.00  0.00     0.019 A 
HETATM   24  C   UNL     1      42.734  -7.874  13.991  1.00  0.00     0.003 A 
HETATM   25  C   UNL     1      43.341  -7.681  12.752  1.00  0.00     0.029 A 
ENDBRANCH  19  20
ENDBRANCH  16  19
ENDBRANCH   8  15
BRANCH  10  26
HETATM   26  C   UNL     1      39.195  -7.669   9.811  1.00  0.00     0.032 A 
HETATM   27  C   UNL     1      39.478  -8.424  10.954  1.00  0.00     0.020 A 
HETATM   28  C   UNL     1      39.055  -7.974  12.208  1.00  0.00     0.038 A 
HETATM   29  C   UNL     1      38.359  -6.769  12.334  1.00  0.00     0.068 A 
HETATM   30  C   UNL     1      38.089  -6.013  11.192  1.00  0.00     0.038 A 
HETATM   31  C   UNL     1      38.519  -6.456   9.936  1.00  0.00     0.020 A 
BRANCH  29  32
HETATM   32  O   UNL     1      38.017  -6.437  13.615  1.00  0.00    -0.356 OA
HETATM   33  C   UNL     1      37.482  -5.135  13.822  1.00  0.00     0.210 C 
ENDBRANCH  29  32
ENDBRANCH  10  26
BRANCH   1  34
HETATM   34  C   UNL     1      39.886 -12.414   4.683  1.00  0.00     0.032 A 
HETATM   35  C   UNL     1      40.525 -13.164   3.690  1.00  0.00     0.017 A 
HETATM   36  C   UNL     1      40.964 -14.457   3.972  1.00  0.00     0.008 A 
HETATM   37  C   UNL     1      40.801 -15.000   5.256  1.00  0.00    -0.059 A 
HETATM   38  C   UNL     1      40.194 -14.221   6.254  1.00  0.00     0.008 A 
HETATM   39  C   UNL     1      39.741 -12.931   5.972  1.00  0.00     0.017 A 
BRANCH  37  40
HETATM   40  C   UNL     1      41.283 -16.397   5.560  1.00  0.00     0.034 C 
HETATM   41  C   UNL     1      42.159 -16.452   6.803  1.00  0.00     0.010 C 
ENDBRANCH  37  40
ENDBRANCH   1  34
TORSDOF 7
ENDMDL
MODEL 9
REMARK VINA RESULT:      -7.4      2.377      8.442
REMARK  7 active torsions:
REMARK  status: ('A' for Active; 'I' for Inactive)
REMARK    1  A    between atoms: C_2  and  C_3 
REMARK    2  A    between atoms: C_6  and  C_7 
REMARK       I    between atoms: C_7  and  N_8 
REMARK    3  A    between atoms: C_14  and  C_15 
REMARK       I    between atoms: C_15  and  N_16 
REMARK    4  A    between atoms: N_16  and  C_17 
REMARK    5  A    between atoms: C_17  and  C_18 
REMARK       I    between atoms: N_25  and  C_26 
REMARK    6  A    between atoms: C_26  and  C_27 
REMARK    7  A    between atoms: C_30  and  O_31 
ROOT
HETATM    1  C   UNL     1      40.864  -7.512  -2.638  1.00  0.00     0.253 C 
HETATM    2  N   UNL     1      40.143  -8.238  -1.676  1.00  0.00    -0.348 N 
HETATM    3  C   UNL     1      40.391  -8.100  -0.242  1.00  0.00     0.131 C 
HETATM    4  C   UNL     1      39.228  -8.563   0.608  1.00  0.00     0.081 C 
HETATM    5  C   UNL     1      38.718  -9.960   0.253  1.00  0.00     0.142 C 
HETATM    6  O   UNL     1      37.403 -10.032   0.891  1.00  0.00    -0.358 OA
HETATM    7  C   UNL     1      37.219 -11.362   1.390  1.00  0.00     0.206 C 
HETATM    8  C   UNL     1      38.602 -11.797   1.797  1.00  0.00     0.206 C 
HETATM    9  N   UNL     1      39.455 -11.097   0.835  1.00  0.00    -0.300 N 
HETATM   10  C   UNL     1      40.701 -11.530   0.413  1.00  0.00     0.257 C 
HETATM   11  O   UNL     1      41.420 -10.914  -0.365  1.00  0.00    -0.267 OA
HETATM   12  C   UNL     1      38.448 -10.055  -1.255  1.00  0.00     0.081 C 
HETATM   13  C   UNL     1      39.544  -9.485  -2.147  1.00  0.00     0.131 C 
HETATM   14  O   UNL     1      40.686  -7.623  -3.848  1.00  0.00    -0.267 OA
ENDROOT
BRANCH   8  15
HETATM   15  C   UNL     1      38.849 -11.383   3.267  1.00  0.00     0.243 C 
HETATM   16  N   UNL     1      39.455 -12.336   4.039  1.00  0.00    -0.354 N 
HETATM   17  H   UNL     1      39.564 -13.270   3.652  1.00  0.00     0.162 HD
HETATM   18  O   UNL     1      38.509 -10.287   3.706  1.00  0.00    -0.271 OA
BRANCH  16  19
HETATM   19  C   UNL     1      39.612 -12.270   5.476  1.00  0.00     0.181 C 
BRANCH  19  20
HETATM   20  C   UNL     1      40.444 -13.444   5.957  1.00  0.00     0.051 A 
HETATM   21  N   UNL     1      39.768 -14.567   6.336  1.00  0.00    -0.264 NA
HETATM   22  C   UNL     1      40.492 -15.606   6.803  1.00  0.00     0.117 A 
HETATM   23  C   UNL     1      41.871 -15.592   6.901  1.00  0.00     0.019 A 
HETATM   24  C   UNL     1      42.549 -14.448   6.493  1.00  0.00     0.003 A 
HETATM   25  C   UNL     1      41.831 -13.355   6.013  1.00  0.00     0.029 A 
ENDBRANCH  19  20
ENDBRANCH  16  19
ENDBRANCH   8  15
BRANCH  10  26
HETATM   26  C   UNL     1      41.209 -12.856   0.835  1.00  0.00     0.032 A 
HETATM   27  C   UNL     1      42.214 -12.883   1.807  1.00  0.00     0.020 A 
HETATM   28  C   UNL     1      42.673 -14.108   2.299  1.00  0.00     0.038 A 
HETATM   29  C   UNL     1      42.130 -15.310   1.837  1.00  0.00     0.068 A 
HETATM   30  C   UNL     1      41.120 -15.277   0.874  1.00  0.00     0.038 A 
HETATM   31  C   UNL     1      40.651 -14.052   0.386  1.00  0.00     0.020 A 
BRANCH  29  32
HETATM   32  O   UNL     1      42.657 -16.433   2.411  1.00  0.00    -0.356 OA
HETATM   33  C   UNL     1      41.993 -16.939   3.563  1.00  0.00     0.210 C 
ENDBRANCH  29  32
ENDBRANCH  10  26
BRANCH   1  34
HETATM   34  C   UNL     1      41.903  -6.558  -2.190  1.00  0.00     0.032 A 
HETATM   35  C   UNL     1      43.230  -6.975  -2.046  1.00  0.00     0.017 A 
HETATM   36  C   UNL     1      44.201  -6.066  -1.624  1.00  0.00     0.008 A 
HETATM   37  C   UNL     1      43.861  -4.727  -1.376  1.00  0.00    -0.059 A 
HETATM   38  C   UNL     1      42.534  -4.313  -1.563  1.00  0.00     0.008 A 
HETATM   39  C   UNL     1      41.557  -5.222  -1.973  1.00  0.00     0.017 A 
BRANCH  37  40
HETATM   40  C   UNL     1      44.915  -3.745  -0.925  1.00  0.00     0.034 C 
HETATM   41  C   UNL     1      45.070  -3.712   0.588  1.00  0.00     0.010 C 
ENDBRANCH  37  40
ENDBRANCH   1  34
TORSDOF 7
ENDMDL
MODEL 10
REMARK VINA RESULT:      -7.4     10.148     13.888
REMARK  7 active torsions:
REMARK  status: ('A' for Active; 'I' for Inactive)
REMARK    1  A    between atoms: C_2  and  C_3 
REMARK    2  A    between atoms: C_6  and  C_7 
REMARK       I    between atoms: C_7  and  N_8 
REMARK    3  A    between atoms: C_14  and  C_15 
REMARK       I    between atoms: C_15  and  N_16 
REMARK    4  A    between atoms: N_16  and  C_17 
REMARK    5  A    between atoms: C_17  and  C_18 
REMARK       I    between atoms: N_25  and  C_26 
REMARK    6  A    between atoms: C_26  and  C_27 
REMARK    7  A    between atoms: C_30  and  O_31 
ROOT
HETATM    1  C   UNL     1      37.967  -4.459  15.095  1.00  0.00     0.253 C 
HETATM    2  N   UNL     1      38.483  -5.562  14.395  1.00  0.00    -0.348 N 
HETATM    3  C   UNL     1      39.919  -5.809  14.270  1.00  0.00     0.131 C 
HETATM    4  C   UNL     1      40.246  -7.246  13.932  1.00  0.00     0.081 C 
HETATM    5  C   UNL     1      39.471  -7.792  12.733  1.00  0.00     0.142 C 
HETATM    6  O   UNL     1      39.634  -9.244  12.834  1.00  0.00    -0.358 OA
HETATM    7  C   UNL     1      39.765  -9.773  11.509  1.00  0.00     0.206 C 
HETATM    8  C   UNL     1      40.488  -8.692  10.751  1.00  0.00     0.206 C 
HETATM    9  N   UNL     1      40.009  -7.470  11.398  1.00  0.00    -0.300 N 
HETATM   10  C   UNL     1      39.920  -6.229  10.790  1.00  0.00     0.257 C 
HETATM   11  O   UNL     1      39.552  -5.207  11.355  1.00  0.00    -0.267 OA
HETATM   12  C   UNL     1      37.969  -7.535  12.915  1.00  0.00     0.081 C 
HETATM   13  C   UNL     1      37.603  -6.130  13.377  1.00  0.00     0.131 C 
HETATM   14  O   UNL     1      36.766  -4.221  15.199  1.00  0.00    -0.267 OA
ENDROOT
BRANCH   8  15
HETATM   15  C   UNL     1      42.014  -8.914  10.888  1.00  0.00     0.243 C 
HETATM   16  N   UNL     1      42.460 -10.130  10.448  1.00  0.00    -0.354 N 
HETATM   17  H   UNL     1      41.770 -10.837  10.207  1.00  0.00     0.162 HD
HETATM   18  O   UNL     1      42.759  -8.066  11.372  1.00  0.00    -0.271 OA
BRANCH  16  19
HETATM   19  C   UNL     1      43.795 -10.651  10.650  1.00  0.00     0.181 C 
BRANCH  19  20
HETATM   20  C   UNL     1      44.567 -10.605   9.344  1.00  0.00     0.051 A 
HETATM   21  N   UNL     1      44.272 -11.562   8.417  1.00  0.00    -0.264 NA
HETATM   22  C   UNL     1      44.977 -11.558   7.266  1.00  0.00     0.117 A 
HETATM   23  C   UNL     1      45.964 -10.632   6.979  1.00  0.00     0.019 A 
HETATM   24  C   UNL     1      46.241  -9.651   7.925  1.00  0.00     0.003 A 
HETATM   25  C   UNL     1      45.536  -9.632   9.127  1.00  0.00     0.029 A 
ENDBRANCH  19  20
ENDBRANCH  16  19
ENDBRANCH   8  15
BRANCH  10  26
HETATM   26  C   UNL     1      40.200  -6.089   9.342  1.00  0.00     0.032 A 
HETATM   27  C   UNL     1      41.510  -5.780   8.963  1.00  0.00     0.020 A 
HETATM   28  C   UNL     1      41.846  -5.715   7.608  1.00  0.00     0.038 A 
HETATM   29  C   UNL     1      40.887  -5.968   6.624  1.00  0.00     0.068 A 
HETATM   30  C   UNL     1      39.583  -6.287   7.007  1.00  0.00     0.038 A 
HETATM   31  C   UNL     1      39.245  -6.362   8.363  1.00  0.00     0.020 A 
BRANCH  29  32
HETATM   32  O   UNL     1      41.350  -5.887   5.340  1.00  0.00    -0.356 OA
HETATM   33  C   UNL     1      42.120  -4.739   5.006  1.00  0.00     0.210 C 
ENDBRANCH  29  32
ENDBRANCH  10  26
BRANCH   1  34
HETATM   34  C   UNL     1      38.904  -3.516  15.745  1.00  0.00     0.032 A 
HETATM   35  C   UNL     1      39.278  -3.698  17.080  1.00  0.00     0.017 A 
HETATM   36  C   UNL     1      40.163  -2.803  17.682  1.00  0.00     0.008 A 
HETATM   37  C   UNL     1      40.708  -1.739  16.945  1.00  0.00    -0.059 A 
HETATM   38  C   UNL     1      40.356  -1.592  15.595  1.00  0.00     0.008 A 
HETATM   39  C   UNL     1      39.460  -2.479  14.993  1.00  0.00     0.017 A 
BRANCH  37  40
HETATM   40  C   UNL     1      41.670  -0.776  17.597  1.00  0.00     0.034 C 
HETATM   41  C   UNL     1      43.112  -1.025  17.182  1.00  0.00     0.010 C 
ENDBRANCH  37  40
ENDBRANCH   1  34
TORSDOF 7
ENDMDL
