MODEL 1
REMARK VINA RESULT:      -8.7      0.000      0.000
REMARK  4 active torsions:
REMARK  status: ('A' for Active; 'I' for Inactive)
REMARK    1  A    between atoms: C_9  and  C_10 
REMARK       I    between atoms: C_10  and  N_11 
REMARK    2  A    between atoms: N_11  and  C_12 
REMARK    3  A    between atoms: C_14  and  C_15 
REMARK       I    between atoms: C_15  and  N_16 
REMARK    4  A    between atoms: N_16  and  C_17 
ROOT
HETATM    1  C   UNL     1      42.663 -15.392   4.102  1.00  0.00     0.277 C 
HETATM    2  N   UNL     1      41.340 -15.061   4.332  1.00  0.00    -0.322 N 
HETATM    3  O   UNL     1      43.443 -14.788   3.373  1.00  0.00    -0.266 OA
HETATM    4  H   UNL     1      40.874 -15.704   4.968  1.00  0.00     0.169 HD
ENDROOT
BRANCH   2   5
HETATM    5  C   UNL     1      40.600 -13.986   3.812  1.00  0.00     0.036 A 
HETATM    6  C   UNL     1      40.244 -13.866   2.467  1.00  0.00     0.046 A 
HETATM    7  C   UNL     1      39.526 -12.747   2.020  1.00  0.00     0.034 A 
HETATM    8  C   UNL     1      39.122 -11.768   2.935  1.00  0.00     0.017 A 
HETATM    9  C   UNL     1      39.466 -11.887   4.280  1.00  0.00     0.003 A 
HETATM   10  C   UNL     1      40.209 -12.986   4.713  1.00  0.00     0.029 A 
BRANCH   7  11
HETATM   11  C   UNL     1      39.164 -12.564   0.588  1.00  0.00     0.252 C 
HETATM   12  N   UNL     1      39.314 -13.673  -0.224  1.00  0.00    -0.352 N 
HETATM   13  H   UNL     1      39.727 -14.515   0.159  1.00  0.00     0.163 HD
HETATM   14  O   UNL     1      38.800 -11.463   0.187  1.00  0.00    -0.268 OA
BRANCH  12  15
HETATM   15  C   UNL     1      39.039 -13.646  -1.627  1.00  0.00     0.084 A 
HETATM   16  C   UNL     1      40.115 -13.993  -2.620  1.00  0.00     0.027 A 
HETATM   17  C   UNL     1      38.962 -14.929  -2.407  1.00  0.00     0.027 A 
ENDBRANCH  12  15
ENDBRANCH   7  11
ENDBRANCH   2   5
BRANCH   1  18
HETATM   18  C   UNL     1      43.060 -16.597   4.854  1.00  0.00     0.157 A 
HETATM   19  C   UNL     1      43.354 -17.890   4.331  1.00  0.00     0.029 A 
HETATM   20  C   UNL     1      43.371 -18.491   3.057  1.00  0.00     0.023 A 
HETATM   21  C   UNL     1      43.683 -18.662   5.439  1.00  0.00     0.063 A 
HETATM   22  C   UNL     1      43.710 -19.850   2.936  1.00  0.00    -0.061 A 
HETATM   23  C   UNL     1      43.725 -20.513   1.588  1.00  0.00     0.048 C 
HETATM   24  C   UNL     1      44.048 -20.587   4.077  1.00  0.00     0.009 A 
HETATM   25  C   UNL     1      44.042 -20.010   5.353  1.00  0.00     0.032 A 
HETATM   26  N   UNL     1      43.568 -17.822   6.512  1.00  0.00    -0.277 N 
HETATM   27  H   UNL     1      43.737 -18.047   7.485  1.00  0.00     0.189 HD
HETATM   28  N   UNL     1      43.176 -16.572   6.202  1.00  0.00    -0.168 NA
ENDBRANCH   1  18
TORSDOF 4
ENDMDL
MODEL 2
REMARK VINA RESULT:      -8.5      5.188      7.887
REMARK  4 active torsions:
REMARK  status: ('A' for Active; 'I' for Inactive)
REMARK    1  A    between atoms: C_9  and  C_10 
REMARK       I    between atoms: C_10  and  N_11 
REMARK    2  A    between atoms: N_11  and  C_12 
REMARK    3  A    between atoms: C_14  and  C_15 
REMARK       I    between atoms: C_15  and  N_16 
REMARK    4  A    between atoms: N_16  and  C_17 
ROOT
HETATM    1  C   UNL     1      43.232 -13.724   6.133  1.00  0.00     0.277 C 
HETATM    2  N   UNL     1      43.779 -12.464   5.974  1.00  0.00    -0.322 N 
HETATM    3  O   UNL     1      43.174 -14.360   7.182  1.00  0.00    -0.266 OA
HETATM    4  H   UNL     1      43.727 -12.127   5.015  1.00  0.00     0.169 HD
ENDROOT
BRANCH   2   5
HETATM    5  C   UNL     1      44.371 -11.634   6.940  1.00  0.00     0.036 A 
HETATM    6  C   UNL     1      43.691 -11.126   8.050  1.00  0.00     0.046 A 
HETATM    7  C   UNL     1      44.346 -10.280   8.956  1.00  0.00     0.034 A 
HETATM    8  C   UNL     1      45.701  -9.980   8.776  1.00  0.00     0.017 A 
HETATM    9  C   UNL     1      46.387 -10.491   7.676  1.00  0.00     0.003 A 
HETATM   10  C   UNL     1      45.721 -11.306   6.758  1.00  0.00     0.029 A 
BRANCH   7  11
HETATM   11  C   UNL     1      43.644  -9.686  10.128  1.00  0.00     0.252 C 
HETATM   12  N   UNL     1      42.268  -9.825  10.147  1.00  0.00    -0.352 N 
HETATM   13  H   UNL     1      41.801 -10.240   9.350  1.00  0.00     0.163 HD
HETATM   14  O   UNL     1      44.286  -9.082  10.980  1.00  0.00    -0.268 OA
BRANCH  12  15
HETATM   15  C   UNL     1      41.452  -9.282  11.187  1.00  0.00     0.084 A 
HETATM   16  C   UNL     1      40.045  -9.777  11.387  1.00  0.00     0.027 A 
HETATM   17  C   UNL     1      41.108 -10.115  12.390  1.00  0.00     0.027 A 
ENDBRANCH  12  15
ENDBRANCH   7  11
ENDBRANCH   2   5
BRANCH   1  18
HETATM   18  C   UNL     1      42.702 -14.251   4.862  1.00  0.00     0.157 A 
HETATM   19  C   UNL     1      42.926 -15.539   4.294  1.00  0.00     0.029 A 
HETATM   20  C   UNL     1      43.661 -16.690   4.644  1.00  0.00     0.023 A 
HETATM   21  C   UNL     1      42.202 -15.542   3.108  1.00  0.00     0.063 A 
HETATM   22  C   UNL     1      43.652 -17.804   3.788  1.00  0.00    -0.061 A 
HETATM   23  C   UNL     1      44.435 -19.037   4.136  1.00  0.00     0.048 C 
HETATM   24  C   UNL     1      42.897 -17.770   2.608  1.00  0.00     0.009 A 
HETATM   25  C   UNL     1      42.157 -16.639   2.243  1.00  0.00     0.032 A 
HETATM   26  N   UNL     1      41.616 -14.309   3.039  1.00  0.00    -0.277 N 
HETATM   27  H   UNL     1      41.010 -13.961   2.305  1.00  0.00     0.189 HD
HETATM   28  N   UNL     1      41.908 -13.494   4.069  1.00  0.00    -0.168 NA
ENDBRANCH   1  18
TORSDOF 4
ENDMDL
MODEL 3
REMARK VINA RESULT:      -8.4      4.783      8.062
REMARK  4 active torsions:
REMARK  status: ('A' for Active; 'I' for Inactive)
REMARK    1  A    between atoms: C_9  and  C_10 
REMARK       I    between atoms: C_10  and  N_11 
REMARK    2  A    between atoms: N_11  and  C_12 
REMARK    3  A    between atoms: C_14  and  C_15 
REMARK       I    between atoms: C_15  and  N_16 
REMARK    4  A    between atoms: N_16  and  C_17 
ROOT
HETATM    1  C   UNL     1      43.987 -12.184   6.155  1.00  0.00     0.277 C 
HETATM    2  N   UNL     1      43.883 -13.464   6.669  1.00  0.00    -0.322 N 
HETATM    3  O   UNL     1      43.448 -11.768   5.133  1.00  0.00    -0.266 OA
HETATM    4  H   UNL     1      44.419 -13.594   7.523  1.00  0.00     0.169 HD
ENDROOT
BRANCH   2   5
HETATM    5  C   UNL     1      43.153 -14.555   6.169  1.00  0.00     0.036 A 
HETATM    6  C   UNL     1      43.559 -15.328   5.079  1.00  0.00     0.046 A 
HETATM    7  C   UNL     1      42.760 -16.386   4.623  1.00  0.00     0.034 A 
HETATM    8  C   UNL     1      41.571 -16.700   5.292  1.00  0.00     0.017 A 
HETATM    9  C   UNL     1      41.165 -15.938   6.385  1.00  0.00     0.003 A 
HETATM   10  C   UNL     1      41.948 -14.865   6.814  1.00  0.00     0.029 A 
BRANCH   7  11
HETATM   11  C   UNL     1      43.139 -17.207   3.440  1.00  0.00     0.252 C 
HETATM   12  N   UNL     1      43.556 -18.498   3.704  1.00  0.00    -0.352 N 
HETATM   13  H   UNL     1      43.660 -18.798   4.665  1.00  0.00     0.163 HD
HETATM   14  O   UNL     1      43.108 -16.710   2.319  1.00  0.00    -0.268 OA
BRANCH  12  15
HETATM   15  C   UNL     1      43.982 -19.397   2.677  1.00  0.00     0.084 A 
HETATM   16  C   UNL     1      43.905 -20.885   2.888  1.00  0.00     0.027 A 
HETATM   17  C   UNL     1      42.972 -20.216   1.922  1.00  0.00     0.027 A 
ENDBRANCH  12  15
ENDBRANCH   7  11
ENDBRANCH   2   5
BRANCH   1  18
HETATM   18  C   UNL     1      44.850 -11.330   6.993  1.00  0.00     0.157 A 
HETATM   19  C   UNL     1      44.525 -10.726   8.242  1.00  0.00     0.029 A 
HETATM   20  C   UNL     1      43.396 -10.677   9.084  1.00  0.00     0.023 A 
HETATM   21  C   UNL     1      45.673 -10.041   8.622  1.00  0.00     0.063 A 
HETATM   22  C   UNL     1      43.452  -9.934  10.276  1.00  0.00    -0.061 A 
HETATM   23  C   UNL     1      42.257  -9.860  11.183  1.00  0.00     0.048 C 
HETATM   24  C   UNL     1      44.633  -9.269  10.626  1.00  0.00     0.009 A 
HETATM   25  C   UNL     1      45.768  -9.308   9.808  1.00  0.00     0.032 A 
HETATM   26  N   UNL     1      46.575 -10.263   7.619  1.00  0.00    -0.277 N 
HETATM   27  H   UNL     1      47.525  -9.916   7.563  1.00  0.00     0.189 HD
HETATM   28  N   UNL     1      46.110 -11.021   6.608  1.00  0.00    -0.168 NA
ENDBRANCH   1  18
TORSDOF 4
ENDMDL
MODEL 4
REMARK VINA RESULT:      -8.2      4.460      7.319
REMARK  4 active torsions:
REMARK  status: ('A' for Active; 'I' for Inactive)
REMARK    1  A    between atoms: C_9  and  C_10 
REMARK       I    between atoms: C_10  and  N_11 
REMARK    2  A    between atoms: N_11  and  C_12 
REMARK    3  A    between atoms: C_14  and  C_15 
REMARK       I    between atoms: C_15  and  N_16 
REMARK    4  A    between atoms: N_16  and  C_17 
ROOT
HETATM    1  C   UNL     1      42.218 -14.105   4.523  1.00  0.00     0.277 C 
HETATM    2  N   UNL     1      43.010 -12.971   4.560  1.00  0.00    -0.322 N 
HETATM    3  O   UNL     1      41.295 -14.368   5.287  1.00  0.00    -0.266 OA
HETATM    4  H   UNL     1      43.723 -12.961   3.834  1.00  0.00     0.169 HD
ENDROOT
BRANCH   2   5
HETATM    5  C   UNL     1      42.944 -11.882   5.444  1.00  0.00     0.036 A 
HETATM    6  C   UNL     1      43.576 -11.854   6.690  1.00  0.00     0.046 A 
HETATM    7  C   UNL     1      43.439 -10.738   7.528  1.00  0.00     0.034 A 
HETATM    8  C   UNL     1      42.706  -9.626   7.096  1.00  0.00     0.017 A 
HETATM    9  C   UNL     1      42.083  -9.645   5.850  1.00  0.00     0.003 A 
HETATM   10  C   UNL     1      42.194 -10.772   5.034  1.00  0.00     0.029 A 
BRANCH   7  11
HETATM   11  C   UNL     1      44.062 -10.687   8.880  1.00  0.00     0.252 C 
HETATM   12  N   UNL     1      43.219 -10.359   9.926  1.00  0.00    -0.352 N 
HETATM   13  H   UNL     1      42.261 -10.097   9.727  1.00  0.00     0.163 HD
HETATM   14  O   UNL     1      45.265 -10.888   9.004  1.00  0.00    -0.268 OA
BRANCH  12  15
HETATM   15  C   UNL     1      43.675 -10.239  11.275  1.00  0.00     0.084 A 
HETATM   16  C   UNL     1      43.492  -8.948  12.028  1.00  0.00     0.027 A 
HETATM   17  C   UNL     1      42.684 -10.155  12.403  1.00  0.00     0.027 A 
ENDBRANCH  12  15
ENDBRANCH   7  11
ENDBRANCH   2   5
BRANCH   1  18
HETATM   18  C   UNL     1      42.612 -15.007   3.424  1.00  0.00     0.157 A 
HETATM   19  C   UNL     1      43.043 -16.362   3.523  1.00  0.00     0.029 A 
HETATM   20  C   UNL     1      43.264 -17.284   4.566  1.00  0.00     0.023 A 
HETATM   21  C   UNL     1      43.280 -16.763   2.214  1.00  0.00     0.063 A 
HETATM   22  C   UNL     1      43.725 -18.577   4.262  1.00  0.00    -0.061 A 
HETATM   23  C   UNL     1      43.977 -19.572   5.358  1.00  0.00     0.048 C 
HETATM   24  C   UNL     1      43.938 -18.943   2.927  1.00  0.00     0.009 A 
HETATM   25  C   UNL     1      43.721 -18.045   1.875  1.00  0.00     0.032 A 
HETATM   26  N   UNL     1      42.993 -15.671   1.444  1.00  0.00    -0.277 N 
HETATM   27  H   UNL     1      43.051 -15.602   0.434  1.00  0.00     0.189 HD
HETATM   28  N   UNL     1      42.604 -14.585   2.138  1.00  0.00    -0.168 NA
ENDBRANCH   1  18
TORSDOF 4
ENDMDL
MODEL 5
REMARK VINA RESULT:      -8.0      5.205      8.121
REMARK  4 active torsions:
REMARK  status: ('A' for Active; 'I' for Inactive)
REMARK    1  A    between atoms: C_9  and  C_10 
REMARK       I    between atoms: C_10  and  N_11 
REMARK    2  A    between atoms: N_11  and  C_12 
REMARK    3  A    between atoms: C_14  and  C_15 
REMARK       I    between atoms: C_15  and  N_16 
REMARK    4  A    between atoms: N_16  and  C_17 
ROOT
HETATM    1  C   UNL     1      43.313 -12.053   3.889  1.00  0.00     0.277 C 
HETATM    2  N   UNL     1      43.160 -12.178   5.258  1.00  0.00    -0.322 N 
HETATM    3  O   UNL     1      44.102 -11.309   3.315  1.00  0.00    -0.266 OA
HETATM    4  H   UNL     1      42.441 -12.849   5.517  1.00  0.00     0.169 HD
ENDROOT
BRANCH   2   5
HETATM    5  C   UNL     1      43.853 -11.516   6.284  1.00  0.00     0.036 A 
HETATM    6  C   UNL     1      43.229 -10.788   7.300  1.00  0.00     0.046 A 
HETATM    7  C   UNL     1      43.994 -10.131   8.274  1.00  0.00     0.034 A 
HETATM    8  C   UNL     1      45.389 -10.244   8.259  1.00  0.00     0.017 A 
HETATM    9  C   UNL     1      46.017 -10.977   7.253  1.00  0.00     0.003 A 
HETATM   10  C   UNL     1      45.252 -11.601   6.266  1.00  0.00     0.029 A 
BRANCH   7  11
HETATM   11  C   UNL     1      43.367  -9.312   9.348  1.00  0.00     0.252 C 
HETATM   12  N   UNL     1      42.801 -10.014  10.396  1.00  0.00    -0.352 N 
HETATM   13  H   UNL     1      42.765 -11.025  10.353  1.00  0.00     0.163 HD
HETATM   14  O   UNL     1      43.340  -8.090   9.245  1.00  0.00    -0.268 OA
BRANCH  12  15
HETATM   15  C   UNL     1      42.134  -9.371  11.485  1.00  0.00     0.084 A 
HETATM   16  C   UNL     1      42.148  -9.988  12.857  1.00  0.00     0.027 A 
HETATM   17  C   UNL     1      42.931  -8.736  12.590  1.00  0.00     0.027 A 
ENDBRANCH  12  15
ENDBRANCH   7  11
ENDBRANCH   2   5
BRANCH   1  18
HETATM   18  C   UNL     1      42.391 -12.940   3.155  1.00  0.00     0.157 A 
HETATM   19  C   UNL     1      42.416 -14.364   3.099  1.00  0.00     0.029 A 
HETATM   20  C   UNL     1      43.227 -15.388   3.628  1.00  0.00     0.023 A 
HETATM   21  C   UNL     1      41.339 -14.713   2.293  1.00  0.00     0.063 A 
HETATM   22  C   UNL     1      42.935 -16.729   3.325  1.00  0.00    -0.061 A 
HETATM   23  C   UNL     1      43.792 -17.836   3.870  1.00  0.00     0.048 C 
HETATM   24  C   UNL     1      41.832 -17.036   2.520  1.00  0.00     0.009 A 
HETATM   25  C   UNL     1      41.010 -16.036   1.987  1.00  0.00     0.032 A 
HETATM   26  N   UNL     1      40.761 -13.528   1.929  1.00  0.00    -0.277 N 
HETATM   27  H   UNL     1      39.945 -13.401   1.342  1.00  0.00     0.189 HD
HETATM   28  N   UNL     1      41.378 -12.434   2.414  1.00  0.00    -0.168 NA
ENDBRANCH   1  18
TORSDOF 4
ENDMDL
MODEL 6
REMARK VINA RESULT:      -7.9      1.807      3.497
REMARK  4 active torsions:
REMARK  status: ('A' for Active; 'I' for Inactive)
REMARK    1  A    between atoms: C_9  and  C_10 
REMARK       I    between atoms: C_10  and  N_11 
REMARK    2  A    between atoms: N_11  and  C_12 
REMARK    3  A    between atoms: C_14  and  C_15 
REMARK       I    between atoms: C_15  and  N_16 
REMARK    4  A    between atoms: N_16  and  C_17 
ROOT
HETATM    1  C   UNL     1      42.669 -14.814   2.512  1.00  0.00     0.277 C 
HETATM    2  N   UNL     1      41.320 -14.925   2.225  1.00  0.00    -0.322 N 
HETATM    3  O   UNL     1      43.467 -14.063   1.960  1.00  0.00    -0.266 OA
HETATM    4  H   UNL     1      40.847 -15.618   2.801  1.00  0.00     0.169 HD
ENDROOT
BRANCH   2   5
HETATM    5  C   UNL     1      40.564 -14.223   1.272  1.00  0.00     0.036 A 
HETATM    6  C   UNL     1      40.110 -12.914   1.452  1.00  0.00     0.046 A 
HETATM    7  C   UNL     1      39.336 -12.290   0.463  1.00  0.00     0.034 A 
HETATM    8  C   UNL     1      39.057 -12.964  -0.732  1.00  0.00     0.017 A 
HETATM    9  C   UNL     1      39.515 -14.266  -0.921  1.00  0.00     0.003 A 
HETATM   10  C   UNL     1      40.257 -14.894   0.081  1.00  0.00     0.029 A 
BRANCH   7  11
HETATM   11  C   UNL     1      38.799 -10.912   0.635  1.00  0.00     0.252 C 
HETATM   12  N   UNL     1      38.487 -10.539   1.930  1.00  0.00    -0.352 N 
HETATM   13  H   UNL     1      38.557 -11.223   2.673  1.00  0.00     0.163 HD
HETATM   14  O   UNL     1      38.622 -10.200  -0.347  1.00  0.00    -0.268 OA
BRANCH  12  15
HETATM   15  C   UNL     1      37.933  -9.261   2.252  1.00  0.00     0.084 A 
HETATM   16  C   UNL     1      38.106  -8.683   3.630  1.00  0.00     0.027 A 
HETATM   17  C   UNL     1      38.836  -8.079   2.467  1.00  0.00     0.027 A 
ENDBRANCH  12  15
ENDBRANCH   7  11
ENDBRANCH   2   5
BRANCH   1  18
HETATM   18  C   UNL     1      43.070 -15.730   3.596  1.00  0.00     0.157 A 
HETATM   19  C   UNL     1      43.342 -17.126   3.499  1.00  0.00     0.029 A 
HETATM   20  C   UNL     1      43.327 -18.095   2.476  1.00  0.00     0.023 A 
HETATM   21  C   UNL     1      43.687 -17.518   4.787  1.00  0.00     0.063 A 
HETATM   22  C   UNL     1      43.651 -19.429   2.780  1.00  0.00    -0.061 A 
HETATM   23  C   UNL     1      43.632 -20.480   1.708  1.00  0.00     0.048 C 
HETATM   24  C   UNL     1      44.006 -19.777   4.090  1.00  0.00     0.009 A 
HETATM   25  C   UNL     1      44.031 -18.830   5.120  1.00  0.00     0.032 A 
HETATM   26  N   UNL     1      43.602 -16.383   5.545  1.00  0.00    -0.277 N 
HETATM   27  H   UNL     1      43.789 -16.295   6.537  1.00  0.00     0.189 HD
HETATM   28  N   UNL     1      43.215 -15.287   4.867  1.00  0.00    -0.168 NA
ENDBRANCH   1  18
TORSDOF 4
ENDMDL
MODEL 7
REMARK VINA RESULT:      -7.9      2.622      3.677
REMARK  4 active torsions:
REMARK  status: ('A' for Active; 'I' for Inactive)
REMARK    1  A    between atoms: C_9  and  C_10 
REMARK       I    between atoms: C_10  and  N_11 
REMARK    2  A    between atoms: N_11  and  C_12 
REMARK    3  A    between atoms: C_14  and  C_15 
REMARK       I    between atoms: C_15  and  N_16 
REMARK    4  A    between atoms: N_16  and  C_17 
ROOT
HETATM    1  C   UNL     1      40.947 -14.630   2.671  1.00  0.00     0.277 C 
HETATM    2  N   UNL     1      41.420 -14.480   1.380  1.00  0.00    -0.322 N 
HETATM    3  O   UNL     1      39.820 -14.346   3.067  1.00  0.00    -0.266 OA
HETATM    4  H   UNL     1      42.388 -14.772   1.275  1.00  0.00     0.169 HD
ENDROOT
BRANCH   2   5
HETATM    5  C   UNL     1      40.745 -13.992   0.248  1.00  0.00     0.036 A 
HETATM    6  C   UNL     1      40.897 -12.695  -0.248  1.00  0.00     0.046 A 
HETATM    7  C   UNL     1      40.166 -12.275  -1.369  1.00  0.00     0.034 A 
HETATM    8  C   UNL     1      39.316 -13.174  -2.024  1.00  0.00     0.017 A 
HETATM    9  C   UNL     1      39.169 -14.472  -1.539  1.00  0.00     0.003 A 
HETATM   10  C   UNL     1      39.873 -14.875  -0.403  1.00  0.00     0.029 A 
BRANCH   7  11
HETATM   11  C   UNL     1      40.269 -10.889  -1.902  1.00  0.00     0.252 C 
HETATM   12  N   UNL     1      39.721 -10.677  -3.154  1.00  0.00    -0.352 N 
HETATM   13  H   UNL     1      39.356 -11.465  -3.675  1.00  0.00     0.163 HD
HETATM   14  O   UNL     1      40.853 -10.028  -1.252  1.00  0.00    -0.268 OA
BRANCH  12  15
HETATM   15  C   UNL     1      39.770  -9.409  -3.813  1.00  0.00     0.084 A 
HETATM   16  C   UNL     1      38.675  -9.003  -4.763  1.00  0.00     0.027 A 
HETATM   17  C   UNL     1      38.803  -8.322  -3.432  1.00  0.00     0.027 A 
ENDBRANCH  12  15
ENDBRANCH   7  11
ENDBRANCH   2   5
BRANCH   1  18
HETATM   18  C   UNL     1      41.978 -15.190   3.566  1.00  0.00     0.157 A 
HETATM   19  C   UNL     1      42.622 -16.457   3.464  1.00  0.00     0.029 A 
HETATM   20  C   UNL     1      42.549 -17.567   2.599  1.00  0.00     0.023 A 
HETATM   21  C   UNL     1      43.511 -16.497   4.532  1.00  0.00     0.063 A 
HETATM   22  C   UNL     1      43.364 -18.687   2.839  1.00  0.00    -0.061 A 
HETATM   23  C   UNL     1      43.295 -19.886   1.937  1.00  0.00     0.048 C 
HETATM   24  C   UNL     1      44.255 -18.680   3.920  1.00  0.00     0.009 A 
HETATM   25  C   UNL     1      44.347 -17.587   4.789  1.00  0.00     0.032 A 
HETATM   26  N   UNL     1      43.349 -15.306   5.182  1.00  0.00    -0.277 N 
HETATM   27  H   UNL     1      43.841 -14.989   6.009  1.00  0.00     0.189 HD
HETATM   28  N   UNL     1      42.419 -14.496   4.641  1.00  0.00    -0.168 NA
ENDBRANCH   1  18
TORSDOF 4
ENDMDL
MODEL 8
REMARK VINA RESULT:      -7.7      6.067      8.724
REMARK  4 active torsions:
REMARK  status: ('A' for Active; 'I' for Inactive)
REMARK    1  A    between atoms: C_9  and  C_10 
REMARK       I    between atoms: C_10  and  N_11 
REMARK    2  A    between atoms: N_11  and  C_12 
REMARK    3  A    between atoms: C_14  and  C_15 
REMARK       I    between atoms: C_15  and  N_16 
REMARK    4  A    between atoms: N_16  and  C_17 
ROOT
HETATM    1  C   UNL     1      43.692 -12.523   5.901  1.00  0.00     0.277 C 
HETATM    2  N   UNL     1      44.213 -12.312   7.165  1.00  0.00    -0.322 N 
HETATM    3  O   UNL     1      43.429 -11.657   5.073  1.00  0.00    -0.266 OA
HETATM    4  H   UNL     1      44.346 -13.174   7.689  1.00  0.00     0.169 HD
ENDROOT
BRANCH   2   5
HETATM    5  C   UNL     1      44.563 -11.099   7.779  1.00  0.00     0.036 A 
HETATM    6  C   UNL     1      43.726 -10.400   8.654  1.00  0.00     0.046 A 
HETATM    7  C   UNL     1      44.139  -9.179   9.206  1.00  0.00     0.034 A 
HETATM    8  C   UNL     1      45.415  -8.680   8.918  1.00  0.00     0.017 A 
HETATM    9  C   UNL     1      46.257  -9.377   8.055  1.00  0.00     0.003 A 
HETATM   10  C   UNL     1      45.828 -10.575   7.481  1.00  0.00     0.029 A 
BRANCH   7  11
HETATM   11  C   UNL     1      43.260  -8.385  10.108  1.00  0.00     0.252 C 
HETATM   12  N   UNL     1      43.504  -8.516  11.463  1.00  0.00    -0.352 N 
HETATM   13  H   UNL     1      44.194  -9.186  11.780  1.00  0.00     0.163 HD
HETATM   14  O   UNL     1      42.359  -7.702   9.634  1.00  0.00    -0.268 OA
BRANCH  12  15
HETATM   15  C   UNL     1      42.724  -7.844  12.455  1.00  0.00     0.084 A 
HETATM   16  C   UNL     1      42.355  -8.544  13.735  1.00  0.00     0.027 A 
HETATM   17  C   UNL     1      43.354  -7.425  13.755  1.00  0.00     0.027 A 
ENDBRANCH  12  15
ENDBRANCH   7  11
ENDBRANCH   2   5
BRANCH   1  18
HETATM   18  C   UNL     1      43.473 -13.958   5.636  1.00  0.00     0.157 A 
HETATM   19  C   UNL     1      42.911 -14.551   4.468  1.00  0.00     0.029 A 
HETATM   20  C   UNL     1      42.381 -14.086   3.248  1.00  0.00     0.023 A 
HETATM   21  C   UNL     1      42.936 -15.919   4.709  1.00  0.00     0.063 A 
HETATM   22  C   UNL     1      41.886 -15.010   2.311  1.00  0.00    -0.061 A 
HETATM   23  C   UNL     1      41.308 -14.537   1.008  1.00  0.00     0.048 C 
HETATM   24  C   UNL     1      41.943 -16.381   2.590  1.00  0.00     0.009 A 
HETATM   25  C   UNL     1      42.468 -16.865   3.794  1.00  0.00     0.032 A 
HETATM   26  N   UNL     1      43.484 -16.056   5.954  1.00  0.00    -0.277 N 
HETATM   27  H   UNL     1      43.659 -16.921   6.453  1.00  0.00     0.189 HD
HETATM   28  N   UNL     1      43.805 -14.895   6.555  1.00  0.00    -0.168 NA
ENDBRANCH   1  18
TORSDOF 4
ENDMDL
MODEL 9
REMARK VINA RESULT:      -7.6      4.975      8.309
REMARK  4 active torsions:
REMARK  status: ('A' for Active; 'I' for Inactive)
REMARK    1  A    between atoms: C_9  and  C_10 
REMARK       I    between atoms: C_10  and  N_11 
REMARK    2  A    between atoms: N_11  and  C_12 
REMARK    3  A    between atoms: C_14  and  C_15 
REMARK       I    between atoms: C_15  and  N_16 
REMARK    4  A    between atoms: N_16  and  C_17 
ROOT
HETATM    1  C   UNL     1      43.709 -11.082   6.938  1.00  0.00     0.277 C 
HETATM    2  N   UNL     1      42.915 -12.210   7.055  1.00  0.00    -0.322 N 
HETATM    3  O   UNL     1      44.035 -10.533   5.891  1.00  0.00    -0.266 OA
HETATM    4  H   UNL     1      42.777 -12.500   8.020  1.00  0.00     0.169 HD
ENDROOT
BRANCH   2   5
HETATM    5  C   UNL     1      42.305 -12.964   6.039  1.00  0.00     0.036 A 
HETATM    6  C   UNL     1      42.996 -13.844   5.203  1.00  0.00     0.046 A 
HETATM    7  C   UNL     1      42.319 -14.542   4.193  1.00  0.00     0.034 A 
HETATM    8  C   UNL     1      40.934 -14.393   4.051  1.00  0.00     0.017 A 
HETATM    9  C   UNL     1      40.238 -13.523   4.888  1.00  0.00     0.003 A 
HETATM   10  C   UNL     1      40.923 -12.806   5.870  1.00  0.00     0.029 A 
BRANCH   7  11
HETATM   11  C   UNL     1      43.027 -15.457   3.256  1.00  0.00     0.252 C 
HETATM   12  N   UNL     1      43.101 -16.783   3.641  1.00  0.00    -0.352 N 
HETATM   13  H   UNL     1      42.752 -17.054   4.552  1.00  0.00     0.163 HD
HETATM   14  O   UNL     1      43.537 -15.008   2.235  1.00  0.00    -0.268 OA
BRANCH  12  15
HETATM   15  C   UNL     1      43.776 -17.776   2.865  1.00  0.00     0.084 A 
HETATM   16  C   UNL     1      43.901 -19.186   3.375  1.00  0.00     0.027 A 
HETATM   17  C   UNL     1      42.997 -18.886   2.216  1.00  0.00     0.027 A 
ENDBRANCH  12  15
ENDBRANCH   7  11
ENDBRANCH   2   5
BRANCH   1  18
HETATM   18  C   UNL     1      44.144 -10.585   8.257  1.00  0.00     0.157 A 
HETATM   19  C   UNL     1      43.422  -9.741   9.150  1.00  0.00     0.029 A 
HETATM   20  C   UNL     1      42.169  -9.096   9.148  1.00  0.00     0.023 A 
HETATM   21  C   UNL     1      44.257  -9.578  10.249  1.00  0.00     0.063 A 
HETATM   22  C   UNL     1      41.798  -8.300  10.246  1.00  0.00    -0.061 A 
HETATM   23  C   UNL     1      40.472  -7.595  10.260  1.00  0.00     0.048 C 
HETATM   24  C   UNL     1      42.664  -8.174  11.338  1.00  0.00     0.009 A 
HETATM   25  C   UNL     1      43.912  -8.810  11.364  1.00  0.00     0.032 A 
HETATM   26  N   UNL     1      45.380 -10.301   9.959  1.00  0.00    -0.277 N 
HETATM   27  H   UNL     1      46.203 -10.411  10.540  1.00  0.00     0.189 HD
HETATM   28  N   UNL     1      45.359 -10.908   8.758  1.00  0.00    -0.168 NA
ENDBRANCH   1  18
TORSDOF 4
ENDMDL
MODEL 10
REMARK VINA RESULT:      -7.5      6.564      9.436
REMARK  4 active torsions:
REMARK  status: ('A' for Active; 'I' for Inactive)
REMARK    1  A    between atoms: C_9  and  C_10 
REMARK       I    between atoms: C_10  and  N_11 
REMARK    2  A    between atoms: N_11  and  C_12 
REMARK    3  A    between atoms: C_14  and  C_15 
REMARK       I    between atoms: C_15  and  N_16 
REMARK    4  A    between atoms: N_16  and  C_17 
ROOT
HETATM    1  C   UNL     1      43.720 -12.103   6.679  1.00  0.00     0.277 C 
HETATM    2  N   UNL     1      43.744 -10.795   7.128  1.00  0.00    -0.322 N 
HETATM    3  O   UNL     1      43.833 -13.108   7.373  1.00  0.00    -0.266 OA
HETATM    4  H   UNL     1      43.640 -10.115   6.379  1.00  0.00     0.169 HD
ENDROOT
BRANCH   2   5
HETATM    5  C   UNL     1      43.888 -10.319   8.442  1.00  0.00     0.036 A 
HETATM    6  C   UNL     1      42.814  -9.971   9.265  1.00  0.00     0.046 A 
HETATM    7  C   UNL     1      43.043  -9.478  10.558  1.00  0.00     0.034 A 
HETATM    8  C   UNL     1      44.351  -9.379  11.045  1.00  0.00     0.017 A 
HETATM    9  C   UNL     1      45.426  -9.734  10.232  1.00  0.00     0.003 A 
HETATM   10  C   UNL     1      45.194 -10.192   8.934  1.00  0.00     0.029 A 
BRANCH   7  11
HETATM   11  C   UNL     1      41.927  -9.058  11.449  1.00  0.00     0.252 C 
HETATM   12  N   UNL     1      42.152  -9.185  12.807  1.00  0.00    -0.352 N 
HETATM   13  H   UNL     1      43.008  -9.620  13.129  1.00  0.00     0.163 HD
HETATM   14  O   UNL     1      40.871  -8.668  10.961  1.00  0.00    -0.268 OA
BRANCH  12  15
HETATM   15  C   UNL     1      41.166  -8.854  13.788  1.00  0.00     0.084 A 
HETATM   16  C   UNL     1      41.581  -8.395  15.160  1.00  0.00     0.027 A 
HETATM   17  C   UNL     1      40.961  -7.423  14.200  1.00  0.00     0.027 A 
ENDBRANCH  12  15
ENDBRANCH   7  11
ENDBRANCH   2   5
BRANCH   1  18
HETATM   18  C   UNL     1      43.538 -12.172   5.217  1.00  0.00     0.157 A 
HETATM   19  C   UNL     1      43.262 -13.327   4.429  1.00  0.00     0.029 A 
HETATM   20  C   UNL     1      43.088 -14.704   4.671  1.00  0.00     0.023 A 
HETATM   21  C   UNL     1      43.171 -12.860   3.123  1.00  0.00     0.063 A 
HETATM   22  C   UNL     1      42.837 -15.570   3.593  1.00  0.00    -0.061 A 
HETATM   23  C   UNL     1      42.658 -17.043   3.826  1.00  0.00     0.048 C 
HETATM   24  C   UNL     1      42.740 -15.055   2.294  1.00  0.00     0.009 A 
HETATM   25  C   UNL     1      42.905 -13.690   2.031  1.00  0.00     0.032 A 
HETATM   26  N   UNL     1      43.392 -11.513   3.204  1.00  0.00    -0.277 N 
HETATM   27  H   UNL     1      43.396 -10.847   2.440  1.00  0.00     0.189 HD
HETATM   28  N   UNL     1      43.635 -11.061   4.449  1.00  0.00    -0.168 NA
ENDBRANCH   1  18
TORSDOF 4
ENDMDL
