MODEL 1
REMARK VINA RESULT:      -8.0      0.000      0.000
REMARK  8 active torsions:
REMARK  status: ('A' for Active; 'I' for Inactive)
REMARK    1  A    between atoms: C_2  and  C_3 
REMARK    2  A    between atoms: C_3  and  O_4 
REMARK    3  A    between atoms: O_4  and  C_5 
REMARK    4  A    between atoms: C_6  and  C_7 
REMARK    5  A    between atoms: C_11  and  C_12 
REMARK       I    between atoms: C_12  and  N_13 
REMARK    6  A    between atoms: N_13  and  N_14 
REMARK    7  A    between atoms: C_15  and  C_16 
REMARK    8  A    between atoms: C_17  and  O_18 
ROOT
HETATM    1  C   UNL     1      42.853 -16.907   2.310  1.00  0.00     0.092 A 
HETATM    2  N   UNL     1      43.707 -16.153   1.605  1.00  0.00    -0.174 NA
HETATM    3  N   UNL     1      42.970 -15.128   1.157  1.00  0.00    -0.272 N 
HETATM    4  H   UNL     1      43.418 -14.406   0.597  1.00  0.00     0.189 HD
HETATM    5  C   UNL     1      41.647 -15.199   1.497  1.00  0.00     0.121 A 
HETATM    6  C   UNL     1      41.546 -16.338   2.269  1.00  0.00     0.071 A 
ENDROOT
BRANCH   5   7
HETATM    7  C   UNL     1      40.705 -14.206   1.045  1.00  0.00     0.289 C 
HETATM    8  N   UNL     1      40.990 -13.662  -0.199  1.00  0.00    -0.242 N 
HETATM    9  H   UNL     1      41.828 -13.934  -0.696  1.00  0.00     0.192 HD
HETATM   10  O   UNL     1      39.753 -13.863   1.741  1.00  0.00    -0.264 OA
BRANCH   8  11
HETATM   11  N   UNL     1      40.224 -12.643  -0.685  1.00  0.00    -0.183 NA
HETATM   12  C   UNL     1      39.501 -12.925  -1.723  1.00  0.00     0.153 C 
BRANCH  12  13
HETATM   13  C   UNL     1      38.650 -11.901  -2.358  1.00  0.00     0.016 A 
HETATM   14  C   UNL     1      39.184 -10.751  -2.953  1.00  0.00     0.077 A 
HETATM   15  C   UNL     1      38.341  -9.817  -3.550  1.00  0.00     0.037 A 
HETATM   16  C   UNL     1      36.962 -10.028  -3.561  1.00  0.00     0.003 A 
HETATM   17  C   UNL     1      36.425 -11.173  -2.971  1.00  0.00     0.001 A 
HETATM   18  C   UNL     1      37.266 -12.110  -2.368  1.00  0.00     0.016 A 
BRANCH  14  19
HETATM   19  O   UNL     1      40.523 -10.473  -2.990  1.00  0.00    -0.360 OA
HETATM   20  H   UNL     1      40.904 -10.881  -3.800  1.00  0.00     0.217 HD
ENDBRANCH  14  19
ENDBRANCH  12  13
ENDBRANCH   8  11
ENDBRANCH   5   7
BRANCH   1  21
HETATM   21  C   UNL     1      43.251 -18.155   2.965  1.00  0.00     0.028 A 
HETATM   22  C   UNL     1      43.680 -18.239   4.302  1.00  0.00     0.081 A 
HETATM   23  C   UNL     1      44.124 -19.463   4.823  1.00  0.00     0.038 A 
HETATM   24  C   UNL     1      44.100 -20.620   4.046  1.00  0.00     0.003 A 
HETATM   25  C   UNL     1      43.648 -20.559   2.734  1.00  0.00     0.001 A 
HETATM   26  C   UNL     1      43.234 -19.337   2.197  1.00  0.00     0.017 A 
BRANCH  22  27
HETATM   27  O   UNL     1      43.761 -17.193   5.185  1.00  0.00    -0.350 OA
BRANCH  27  28
HETATM   28  C   UNL     1      43.147 -17.458   6.449  1.00  0.00     0.175 C 
BRANCH  28  29
HETATM   29  C   UNL     1      42.276 -16.264   6.838  1.00  0.00     0.022 C 
HETATM   30  C   UNL     1      41.014 -16.168   5.992  1.00  0.00     0.007 C 
ENDBRANCH  28  29
ENDBRANCH  27  28
ENDBRANCH  22  27
ENDBRANCH   1  21
TORSDOF 8
ENDMDL
MODEL 2
REMARK VINA RESULT:      -7.6      2.249      2.722
REMARK  8 active torsions:
REMARK  status: ('A' for Active; 'I' for Inactive)
REMARK    1  A    between atoms: C_2  and  C_3 
REMARK    2  A    between atoms: C_3  and  O_4 
REMARK    3  A    between atoms: O_4  and  C_5 
REMARK    4  A    between atoms: C_6  and  C_7 
REMARK    5  A    between atoms: C_11  and  C_12 
REMARK       I    between atoms: C_12  and  N_13 
REMARK    6  A    between atoms: N_13  and  N_14 
REMARK    7  A    between atoms: C_15  and  C_16 
REMARK    8  A    between atoms: C_17  and  O_18 
ROOT
HETATM    1  C   UNL     1      41.527 -16.098   2.353  1.00  0.00     0.092 A 
HETATM    2  N   UNL     1      40.216 -16.124   2.629  1.00  0.00    -0.174 NA
HETATM    3  N   UNL     1      39.690 -15.141   1.887  1.00  0.00    -0.272 N 
HETATM    4  H   UNL     1      38.687 -14.978   1.924  1.00  0.00     0.189 HD
HETATM    5  C   UNL     1      40.610 -14.429   1.168  1.00  0.00     0.121 A 
HETATM    6  C   UNL     1      41.815 -15.046   1.435  1.00  0.00     0.071 A 
ENDROOT
BRANCH   5   7
HETATM    7  C   UNL     1      40.219 -13.299   0.362  1.00  0.00     0.289 C 
HETATM    8  N   UNL     1      41.008 -13.087  -0.759  1.00  0.00    -0.242 N 
HETATM    9  H   UNL     1      41.812 -13.675  -0.936  1.00  0.00     0.192 HD
HETATM   10  O   UNL     1      39.279 -12.577   0.685  1.00  0.00    -0.264 OA
BRANCH   8  11
HETATM   11  N   UNL     1      40.794 -11.991  -1.542  1.00  0.00    -0.183 NA
HETATM   12  C   UNL     1      41.636 -11.018  -1.391  1.00  0.00     0.153 C 
BRANCH  12  13
HETATM   13  C   UNL     1      41.497  -9.766  -2.161  1.00  0.00     0.016 A 
HETATM   14  C   UNL     1      42.087  -8.566  -1.747  1.00  0.00     0.077 A 
HETATM   15  C   UNL     1      41.936  -7.412  -2.512  1.00  0.00     0.037 A 
HETATM   16  C   UNL     1      41.201  -7.452  -3.698  1.00  0.00     0.003 A 
HETATM   17  C   UNL     1      40.612  -8.646  -4.116  1.00  0.00     0.001 A 
HETATM   18  C   UNL     1      40.757  -9.805  -3.349  1.00  0.00     0.016 A 
BRANCH  14  19
HETATM   19  O   UNL     1      42.827  -8.444  -0.603  1.00  0.00    -0.360 OA
HETATM   20  H   UNL     1      42.229  -8.166   0.127  1.00  0.00     0.217 HD
ENDBRANCH  14  19
ENDBRANCH  12  13
ENDBRANCH   8  11
ENDBRANCH   5   7
BRANCH   1  21
HETATM   21  C   UNL     1      42.487 -17.011   2.978  1.00  0.00     0.028 A 
HETATM   22  C   UNL     1      43.096 -16.780   4.224  1.00  0.00     0.081 A 
HETATM   23  C   UNL     1      44.069 -17.667   4.707  1.00  0.00     0.038 A 
HETATM   24  C   UNL     1      44.410 -18.812   3.990  1.00  0.00     0.003 A 
HETATM   25  C   UNL     1      43.793 -19.071   2.772  1.00  0.00     0.001 A 
HETATM   26  C   UNL     1      42.845 -18.175   2.268  1.00  0.00     0.017 A 
BRANCH  22  27
HETATM   27  O   UNL     1      42.867 -15.702   5.040  1.00  0.00    -0.350 OA
BRANCH  27  28
HETATM   28  C   UNL     1      42.688 -16.051   6.416  1.00  0.00     0.175 C 
BRANCH  28  29
HETATM   29  C   UNL     1      41.204 -15.946   6.765  1.00  0.00     0.022 C 
HETATM   30  C   UNL     1      40.532 -14.763   6.083  1.00  0.00     0.007 C 
ENDBRANCH  28  29
ENDBRANCH  27  28
ENDBRANCH  22  27
ENDBRANCH   1  21
TORSDOF 8
ENDMDL
MODEL 3
REMARK VINA RESULT:      -7.4      2.117      2.883
REMARK  8 active torsions:
REMARK  status: ('A' for Active; 'I' for Inactive)
REMARK    1  A    between atoms: C_2  and  C_3 
REMARK    2  A    between atoms: C_3  and  O_4 
REMARK    3  A    between atoms: O_4  and  C_5 
REMARK    4  A    between atoms: C_6  and  C_7 
REMARK    5  A    between atoms: C_11  and  C_12 
REMARK       I    between atoms: C_12  and  N_13 
REMARK    6  A    between atoms: N_13  and  N_14 
REMARK    7  A    between atoms: C_15  and  C_16 
REMARK    8  A    between atoms: C_17  and  O_18 
ROOT
HETATM    1  C   UNL     1      41.456 -16.076   2.377  1.00  0.00     0.092 A 
HETATM    2  N   UNL     1      40.181 -15.849   2.720  1.00  0.00    -0.174 NA
HETATM    3  N   UNL     1      39.667 -15.160   1.692  1.00  0.00    -0.272 N 
HETATM    4  H   UNL     1      38.689 -14.882   1.725  1.00  0.00     0.189 HD
HETATM    5  C   UNL     1      40.567 -14.878   0.701  1.00  0.00     0.121 A 
HETATM    6  C   UNL     1      41.737 -15.484   1.110  1.00  0.00     0.071 A 
ENDROOT
BRANCH   5   7
HETATM    7  C   UNL     1      40.192 -14.095  -0.449  1.00  0.00     0.289 C 
HETATM    8  N   UNL     1      41.133 -13.151  -0.837  1.00  0.00    -0.242 N 
HETATM    9  H   UNL     1      41.981 -13.025  -0.300  1.00  0.00     0.192 HD
HETATM   10  O   UNL     1      39.106 -14.246  -1.001  1.00  0.00    -0.264 OA
BRANCH   8  11
HETATM   11  N   UNL     1      40.846 -12.285  -1.850  1.00  0.00    -0.183 NA
HETATM   12  C   UNL     1      40.899 -11.026  -1.548  1.00  0.00     0.153 C 
BRANCH  12  13
HETATM   13  C   UNL     1      40.584  -9.990  -2.551  1.00  0.00     0.016 A 
HETATM   14  C   UNL     1      39.506 -10.111  -3.436  1.00  0.00     0.077 A 
HETATM   15  C   UNL     1      39.242  -9.101  -4.359  1.00  0.00     0.037 A 
HETATM   16  C   UNL     1      40.048  -7.963  -4.398  1.00  0.00     0.003 A 
HETATM   17  C   UNL     1      41.123  -7.837  -3.517  1.00  0.00     0.001 A 
HETATM   18  C   UNL     1      41.394  -8.849  -2.593  1.00  0.00     0.016 A 
BRANCH  14  19
HETATM   19  O   UNL     1      38.665 -11.190  -3.458  1.00  0.00    -0.360 OA
HETATM   20  H   UNL     1      37.857 -10.945  -3.963  1.00  0.00     0.217 HD
ENDBRANCH  14  19
ENDBRANCH  12  13
ENDBRANCH   8  11
ENDBRANCH   5   7
BRANCH   1  21
HETATM   21  C   UNL     1      42.395 -16.794   3.243  1.00  0.00     0.028 A 
HETATM   22  C   UNL     1      42.695 -16.412   4.563  1.00  0.00     0.081 A 
HETATM   23  C   UNL     1      43.671 -17.107   5.292  1.00  0.00     0.038 A 
HETATM   24  C   UNL     1      44.319 -18.213   4.743  1.00  0.00     0.003 A 
HETATM   25  C   UNL     1      44.008 -18.622   3.452  1.00  0.00     0.001 A 
HETATM   26  C   UNL     1      43.060 -17.915   2.707  1.00  0.00     0.017 A 
BRANCH  22  27
HETATM   27  O   UNL     1      42.146 -15.350   5.234  1.00  0.00    -0.350 OA
BRANCH  27  28
HETATM   28  C   UNL     1      42.995 -14.200   5.282  1.00  0.00     0.175 C 
BRANCH  28  29
HETATM   29  C   UNL     1      42.386 -13.096   4.418  1.00  0.00     0.022 C 
HETATM   30  C   UNL     1      43.221 -12.805   3.179  1.00  0.00     0.007 C 
ENDBRANCH  28  29
ENDBRANCH  27  28
ENDBRANCH  22  27
ENDBRANCH   1  21
TORSDOF 8
ENDMDL
MODEL 4
REMARK VINA RESULT:      -7.4      1.302      1.566
REMARK  8 active torsions:
REMARK  status: ('A' for Active; 'I' for Inactive)
REMARK    1  A    between atoms: C_2  and  C_3 
REMARK    2  A    between atoms: C_3  and  O_4 
REMARK    3  A    between atoms: O_4  and  C_5 
REMARK    4  A    between atoms: C_6  and  C_7 
REMARK    5  A    between atoms: C_11  and  C_12 
REMARK       I    between atoms: C_12  and  N_13 
REMARK    6  A    between atoms: N_13  and  N_14 
REMARK    7  A    between atoms: C_15  and  C_16 
REMARK    8  A    between atoms: C_17  and  O_18 
ROOT
HETATM    1  C   UNL     1      42.883 -16.691   2.472  1.00  0.00     0.092 A 
HETATM    2  N   UNL     1      43.608 -16.049   1.545  1.00  0.00    -0.174 NA
HETATM    3  N   UNL     1      42.935 -14.914   1.309  1.00  0.00    -0.272 N 
HETATM    4  H   UNL     1      43.310 -14.250   0.637  1.00  0.00     0.189 HD
HETATM    5  C   UNL     1      41.764 -14.803   2.007  1.00  0.00     0.121 A 
HETATM    6  C   UNL     1      41.716 -15.937   2.791  1.00  0.00     0.071 A 
ENDROOT
BRANCH   5   7
HETATM    7  C   UNL     1      40.890 -13.671   1.826  1.00  0.00     0.289 C 
HETATM    8  N   UNL     1      40.116 -13.717   0.675  1.00  0.00    -0.242 N 
HETATM    9  H   UNL     1      40.222 -14.479   0.019  1.00  0.00     0.192 HD
HETATM   10  O   UNL     1      40.877 -12.738   2.623  1.00  0.00    -0.264 OA
BRANCH   8  11
HETATM   11  N   UNL     1      39.325 -12.656   0.347  1.00  0.00    -0.183 NA
HETATM   12  C   UNL     1      38.828 -12.670  -0.849  1.00  0.00     0.153 C 
BRANCH  12  13
HETATM   13  C   UNL     1      37.978 -11.565  -1.333  1.00  0.00     0.016 A 
HETATM   14  C   UNL     1      37.126 -10.851  -0.482  1.00  0.00     0.077 A 
HETATM   15  C   UNL     1      36.350  -9.809  -0.983  1.00  0.00     0.037 A 
HETATM   16  C   UNL     1      36.424  -9.471  -2.335  1.00  0.00     0.003 A 
HETATM   17  C   UNL     1      37.272 -10.179  -3.188  1.00  0.00     0.001 A 
HETATM   18  C   UNL     1      38.049 -11.227  -2.690  1.00  0.00     0.016 A 
BRANCH  14  19
HETATM   19  O   UNL     1      37.000 -11.115   0.854  1.00  0.00    -0.360 OA
HETATM   20  H   UNL     1      37.873 -11.412   1.197  1.00  0.00     0.217 HD
ENDBRANCH  14  19
ENDBRANCH  12  13
ENDBRANCH   8  11
ENDBRANCH   5   7
BRANCH   1  21
HETATM   21  C   UNL     1      43.260 -18.002   3.005  1.00  0.00     0.028 A 
HETATM   22  C   UNL     1      43.765 -18.208   4.301  1.00  0.00     0.081 A 
HETATM   23  C   UNL     1      44.181 -19.487   4.699  1.00  0.00     0.038 A 
HETATM   24  C   UNL     1      44.054 -20.578   3.841  1.00  0.00     0.003 A 
HETATM   25  C   UNL     1      43.526 -20.395   2.569  1.00  0.00     0.001 A 
HETATM   26  C   UNL     1      43.139 -19.119   2.153  1.00  0.00     0.017 A 
BRANCH  22  27
HETATM   27  O   UNL     1      43.952 -17.238   5.252  1.00  0.00    -0.350 OA
BRANCH  27  28
HETATM   28  C   UNL     1      43.042 -17.331   6.352  1.00  0.00     0.175 C 
BRANCH  28  29
HETATM   29  C   UNL     1      42.403 -15.962   6.585  1.00  0.00     0.022 C 
HETATM   30  C   UNL     1      40.886 -16.007   6.475  1.00  0.00     0.007 C 
ENDBRANCH  28  29
ENDBRANCH  27  28
ENDBRANCH  22  27
ENDBRANCH   1  21
TORSDOF 8
ENDMDL
MODEL 5
REMARK VINA RESULT:      -7.4      6.625      9.976
REMARK  8 active torsions:
REMARK  status: ('A' for Active; 'I' for Inactive)
REMARK    1  A    between atoms: C_2  and  C_3 
REMARK    2  A    between atoms: C_3  and  O_4 
REMARK    3  A    between atoms: O_4  and  C_5 
REMARK    4  A    between atoms: C_6  and  C_7 
REMARK    5  A    between atoms: C_11  and  C_12 
REMARK       I    between atoms: C_12  and  N_13 
REMARK    6  A    between atoms: N_13  and  N_14 
REMARK    7  A    between atoms: C_15  and  C_16 
REMARK    8  A    between atoms: C_17  and  O_18 
ROOT
HETATM    1  C   UNL     1      42.906 -13.044   4.600  1.00  0.00     0.092 A 
HETATM    2  N   UNL     1      42.715 -11.761   4.263  1.00  0.00    -0.174 NA
HETATM    3  N   UNL     1      43.100 -11.063   5.339  1.00  0.00    -0.272 N 
HETATM    4  H   UNL     1      43.054 -10.047   5.310  1.00  0.00     0.189 HD
HETATM    5  C   UNL     1      43.491 -11.835   6.397  1.00  0.00     0.121 A 
HETATM    6  C   UNL     1      43.397 -13.132   5.936  1.00  0.00     0.071 A 
ENDROOT
BRANCH   5   7
HETATM    7  C   UNL     1      43.880 -11.243   7.653  1.00  0.00     0.289 C 
HETATM    8  N   UNL     1      42.895 -10.476   8.260  1.00  0.00    -0.242 N 
HETATM    9  H   UNL     1      42.005 -10.332   7.801  1.00  0.00     0.192 HD
HETATM   10  O   UNL     1      45.009 -11.393   8.110  1.00  0.00    -0.264 OA
BRANCH   8  11
HETATM   11  N   UNL     1      43.180  -9.786   9.401  1.00  0.00    -0.183 NA
HETATM   12  C   UNL     1      42.179  -9.184   9.961  1.00  0.00     0.153 C 
BRANCH  12  13
HETATM   13  C   UNL     1      42.363  -8.382  11.187  1.00  0.00     0.016 A 
HETATM   14  C   UNL     1      42.750  -8.957  12.403  1.00  0.00     0.077 A 
HETATM   15  C   UNL     1      42.921  -8.157  13.531  1.00  0.00     0.037 A 
HETATM   16  C   UNL     1      42.712  -6.780  13.449  1.00  0.00     0.003 A 
HETATM   17  C   UNL     1      42.328  -6.202  12.238  1.00  0.00     0.001 A 
HETATM   18  C   UNL     1      42.151  -7.000  11.105  1.00  0.00     0.016 A 
BRANCH  14  19
HETATM   19  O   UNL     1      42.980 -10.295  12.566  1.00  0.00    -0.360 OA
HETATM   20  H   UNL     1      43.213 -10.459  13.507  1.00  0.00     0.217 HD
ENDBRANCH  14  19
ENDBRANCH  12  13
ENDBRANCH   8  11
ENDBRANCH   5   7
BRANCH   1  21
HETATM   21  C   UNL     1      42.588 -14.156   3.702  1.00  0.00     0.028 A 
HETATM   22  C   UNL     1      41.537 -15.065   3.917  1.00  0.00     0.081 A 
HETATM   23  C   UNL     1      41.358 -16.152   3.050  1.00  0.00     0.038 A 
HETATM   24  C   UNL     1      42.180 -16.320   1.937  1.00  0.00     0.003 A 
HETATM   25  C   UNL     1      43.202 -15.411   1.692  1.00  0.00     0.001 A 
HETATM   26  C   UNL     1      43.408 -14.343   2.570  1.00  0.00     0.017 A 
BRANCH  22  27
HETATM   27  O   UNL     1      40.652 -15.033   4.964  1.00  0.00    -0.350 OA
BRANCH  27  28
HETATM   28  C   UNL     1      40.644 -16.231   5.746  1.00  0.00     0.175 C 
BRANCH  28  29
HETATM   29  C   UNL     1      41.647 -16.082   6.891  1.00  0.00     0.022 C 
HETATM   30  C   UNL     1      42.857 -16.990   6.720  1.00  0.00     0.007 C 
ENDBRANCH  28  29
ENDBRANCH  27  28
ENDBRANCH  22  27
ENDBRANCH   1  21
TORSDOF 8
ENDMDL
MODEL 6
REMARK VINA RESULT:      -7.4      7.382     11.238
REMARK  8 active torsions:
REMARK  status: ('A' for Active; 'I' for Inactive)
REMARK    1  A    between atoms: C_2  and  C_3 
REMARK    2  A    between atoms: C_3  and  O_4 
REMARK    3  A    between atoms: O_4  and  C_5 
REMARK    4  A    between atoms: C_6  and  C_7 
REMARK    5  A    between atoms: C_11  and  C_12 
REMARK       I    between atoms: C_12  and  N_13 
REMARK    6  A    between atoms: N_13  and  N_14 
REMARK    7  A    between atoms: C_15  and  C_16 
REMARK    8  A    between atoms: C_17  and  O_18 
ROOT
HETATM    1  C   UNL     1      43.323  -9.202  10.532  1.00  0.00     0.092 A 
HETATM    2  N   UNL     1      43.787  -8.337   9.620  1.00  0.00    -0.174 NA
HETATM    3  N   UNL     1      44.192  -9.101   8.597  1.00  0.00    -0.272 N 
HETATM    4  H   UNL     1      44.578  -8.653   7.769  1.00  0.00     0.189 HD
HETATM    5  C   UNL     1      44.061 -10.445   8.816  1.00  0.00     0.121 A 
HETATM    6  C   UNL     1      43.475 -10.539  10.062  1.00  0.00     0.071 A 
ENDROOT
BRANCH   5   7
HETATM    7  C   UNL     1      44.505 -11.409   7.841  1.00  0.00     0.289 C 
HETATM    8  N   UNL     1      43.602 -12.431   7.586  1.00  0.00    -0.242 N 
HETATM    9  H   UNL     1      42.732 -12.484   8.100  1.00  0.00     0.192 HD
HETATM   10  O   UNL     1      45.613 -11.328   7.318  1.00  0.00    -0.264 OA
BRANCH   8  11
HETATM   11  N   UNL     1      43.953 -13.455   6.756  1.00  0.00    -0.183 NA
HETATM   12  C   UNL     1      42.972 -14.089   6.196  1.00  0.00     0.153 C 
BRANCH  12  13
HETATM   13  C   UNL     1      43.220 -15.233   5.297  1.00  0.00     0.016 A 
HETATM   14  C   UNL     1      43.873 -16.393   5.730  1.00  0.00     0.077 A 
HETATM   15  C   UNL     1      44.076 -17.452   4.847  1.00  0.00     0.037 A 
HETATM   16  C   UNL     1      43.622 -17.360   3.531  1.00  0.00     0.003 A 
HETATM   17  C   UNL     1      42.968 -16.207   3.095  1.00  0.00     0.001 A 
HETATM   18  C   UNL     1      42.767 -15.141   3.976  1.00  0.00     0.016 A 
BRANCH  14  19
HETATM   19  O   UNL     1      44.343 -16.565   7.003  1.00  0.00    -0.360 OA
HETATM   20  H   UNL     1      44.032 -17.437   7.335  1.00  0.00     0.217 HD
ENDBRANCH  14  19
ENDBRANCH  12  13
ENDBRANCH   8  11
ENDBRANCH   5   7
BRANCH   1  21
HETATM   21  C   UNL     1      42.793  -8.778  11.830  1.00  0.00     0.028 A 
HETATM   22  C   UNL     1      41.495  -9.073  12.284  1.00  0.00     0.081 A 
HETATM   23  C   UNL     1      41.042  -8.554  13.505  1.00  0.00     0.038 A 
HETATM   24  C   UNL     1      41.881  -7.784  14.309  1.00  0.00     0.003 A 
HETATM   25  C   UNL     1      43.177  -7.512  13.889  1.00  0.00     0.001 A 
HETATM   26  C   UNL     1      43.626  -7.999  12.658  1.00  0.00     0.017 A 
BRANCH  22  27
HETATM   27  O   UNL     1      40.558  -9.811  11.607  1.00  0.00    -0.350 OA
BRANCH  27  28
HETATM   28  C   UNL     1      39.462  -9.034  11.116  1.00  0.00     0.175 C 
BRANCH  28  29
HETATM   29  C   UNL     1      39.084  -9.535   9.722  1.00  0.00     0.022 C 
HETATM   30  C   UNL     1      40.174  -9.262   8.695  1.00  0.00     0.007 C 
ENDBRANCH  28  29
ENDBRANCH  27  28
ENDBRANCH  22  27
ENDBRANCH   1  21
TORSDOF 8
ENDMDL
MODEL 7
REMARK VINA RESULT:      -7.3      4.323      5.641
REMARK  8 active torsions:
REMARK  status: ('A' for Active; 'I' for Inactive)
REMARK    1  A    between atoms: C_2  and  C_3 
REMARK    2  A    between atoms: C_3  and  O_4 
REMARK    3  A    between atoms: O_4  and  C_5 
REMARK    4  A    between atoms: C_6  and  C_7 
REMARK    5  A    between atoms: C_11  and  C_12 
REMARK       I    between atoms: C_12  and  N_13 
REMARK    6  A    between atoms: N_13  and  N_14 
REMARK    7  A    between atoms: C_15  and  C_16 
REMARK    8  A    between atoms: C_17  and  O_18 
ROOT
HETATM    1  C   UNL     1      43.275 -16.589   2.725  1.00  0.00     0.092 A 
HETATM    2  N   UNL     1      43.580 -16.094   1.518  1.00  0.00    -0.174 NA
HETATM    3  N   UNL     1      43.244 -14.798   1.584  1.00  0.00    -0.272 N 
HETATM    4  H   UNL     1      43.401 -14.207   0.772  1.00  0.00     0.189 HD
HETATM    5  C   UNL     1      42.680 -14.426   2.773  1.00  0.00     0.121 A 
HETATM    6  C   UNL     1      42.709 -15.570   3.545  1.00  0.00     0.071 A 
ENDROOT
BRANCH   5   7
HETATM    7  C   UNL     1      42.208 -13.082   2.989  1.00  0.00     0.289 C 
HETATM    8  N   UNL     1      42.087 -12.719   4.323  1.00  0.00    -0.242 N 
HETATM    9  H   UNL     1      42.281 -13.390   5.055  1.00  0.00     0.192 HD
HETATM   10  O   UNL     1      41.910 -12.349   2.050  1.00  0.00    -0.264 OA
BRANCH   8  11
HETATM   11  N   UNL     1      41.556 -11.506   4.650  1.00  0.00    -0.183 NA
HETATM   12  C   UNL     1      42.232 -10.806   5.505  1.00  0.00     0.153 C 
BRANCH  12  13
HETATM   13  C   UNL     1      41.748  -9.488   5.960  1.00  0.00     0.016 A 
HETATM   14  C   UNL     1      41.512  -8.432   5.071  1.00  0.00     0.077 A 
HETATM   15  C   UNL     1      41.046  -7.209   5.548  1.00  0.00     0.037 A 
HETATM   16  C   UNL     1      40.807  -7.035   6.911  1.00  0.00     0.003 A 
HETATM   17  C   UNL     1      41.040  -8.085   7.801  1.00  0.00     0.001 A 
HETATM   18  C   UNL     1      41.511  -9.312   7.329  1.00  0.00     0.016 A 
BRANCH  14  19
HETATM   19  O   UNL     1      41.714  -8.522   3.722  1.00  0.00    -0.360 OA
HETATM   20  H   UNL     1      40.852  -8.715   3.290  1.00  0.00     0.217 HD
ENDBRANCH  14  19
ENDBRANCH  12  13
ENDBRANCH   8  11
ENDBRANCH   5   7
BRANCH   1  21
HETATM   21  C   UNL     1      43.470 -17.998   3.077  1.00  0.00     0.028 A 
HETATM   22  C   UNL     1      43.956 -18.438   4.321  1.00  0.00     0.081 A 
HETATM   23  C   UNL     1      44.192 -19.802   4.541  1.00  0.00     0.038 A 
HETATM   24  C   UNL     1      43.902 -20.745   3.557  1.00  0.00     0.003 A 
HETATM   25  C   UNL     1      43.390 -20.328   2.334  1.00  0.00     0.001 A 
HETATM   26  C   UNL     1      43.182 -18.967   2.094  1.00  0.00     0.017 A 
BRANCH  22  27
HETATM   27  O   UNL     1      44.288 -17.634   5.381  1.00  0.00    -0.350 OA
BRANCH  27  28
HETATM   28  C   UNL     1      43.459 -17.826   6.530  1.00  0.00     0.175 C 
BRANCH  28  29
HETATM   29  C   UNL     1      43.790 -16.753   7.567  1.00  0.00     0.022 C 
HETATM   30  C   UNL     1      43.141 -15.415   7.241  1.00  0.00     0.007 C 
ENDBRANCH  28  29
ENDBRANCH  27  28
ENDBRANCH  22  27
ENDBRANCH   1  21
TORSDOF 8
ENDMDL
MODEL 8
REMARK VINA RESULT:      -7.1      3.676      4.416
REMARK  8 active torsions:
REMARK  status: ('A' for Active; 'I' for Inactive)
REMARK    1  A    between atoms: C_2  and  C_3 
REMARK    2  A    between atoms: C_3  and  O_4 
REMARK    3  A    between atoms: O_4  and  C_5 
REMARK    4  A    between atoms: C_6  and  C_7 
REMARK    5  A    between atoms: C_11  and  C_12 
REMARK       I    between atoms: C_12  and  N_13 
REMARK    6  A    between atoms: N_13  and  N_14 
REMARK    7  A    between atoms: C_15  and  C_16 
REMARK    8  A    between atoms: C_17  and  O_18 
ROOT
HETATM    1  C   UNL     1      43.193 -16.645   2.626  1.00  0.00     0.092 A 
HETATM    2  N   UNL     1      43.600 -16.174   1.439  1.00  0.00    -0.174 NA
HETATM    3  N   UNL     1      43.223 -14.889   1.433  1.00  0.00    -0.272 N 
HETATM    4  H   UNL     1      43.441 -14.315   0.621  1.00  0.00     0.189 HD
HETATM    5  C   UNL     1      42.535 -14.501   2.549  1.00  0.00     0.121 A 
HETATM    6  C   UNL     1      42.521 -15.621   3.356  1.00  0.00     0.071 A 
ENDROOT
BRANCH   5   7
HETATM    7  C   UNL     1      42.006 -13.167   2.677  1.00  0.00     0.289 C 
HETATM    8  N   UNL     1      41.506 -12.861   3.935  1.00  0.00    -0.242 N 
HETATM    9  H   UNL     1      41.491 -13.562   4.663  1.00  0.00     0.192 HD
HETATM   10  O   UNL     1      41.979 -12.394   1.723  1.00  0.00    -0.264 OA
BRANCH   8  11
HETATM   11  N   UNL     1      40.890 -11.662   4.146  1.00  0.00    -0.183 NA
HETATM   12  C   UNL     1      39.651 -11.591   3.775  1.00  0.00     0.153 C 
BRANCH  12  13
HETATM   13  C   UNL     1      38.882 -10.340   3.927  1.00  0.00     0.016 A 
HETATM   14  C   UNL     1      38.537  -9.824   5.182  1.00  0.00     0.077 A 
HETATM   15  C   UNL     1      37.819  -8.634   5.274  1.00  0.00     0.037 A 
HETATM   16  C   UNL     1      37.447  -7.951   4.116  1.00  0.00     0.003 A 
HETATM   17  C   UNL     1      37.790  -8.461   2.862  1.00  0.00     0.001 A 
HETATM   18  C   UNL     1      38.506  -9.656   2.765  1.00  0.00     0.016 A 
BRANCH  14  19
HETATM   19  O   UNL     1      38.869 -10.428   6.363  1.00  0.00    -0.360 OA
HETATM   20  H   UNL     1      38.316 -10.039   7.078  1.00  0.00     0.217 HD
ENDBRANCH  14  19
ENDBRANCH  12  13
ENDBRANCH   8  11
ENDBRANCH   5   7
BRANCH   1  21
HETATM   21  C   UNL     1      43.393 -18.036   3.038  1.00  0.00     0.028 A 
HETATM   22  C   UNL     1      43.894 -18.420   4.295  1.00  0.00     0.081 A 
HETATM   23  C   UNL     1      44.133 -19.773   4.574  1.00  0.00     0.038 A 
HETATM   24  C   UNL     1      43.833 -20.759   3.636  1.00  0.00     0.003 A 
HETATM   25  C   UNL     1      43.306 -20.398   2.402  1.00  0.00     0.001 A 
HETATM   26  C   UNL     1      43.094 -19.049   2.104  1.00  0.00     0.017 A 
BRANCH  22  27
HETATM   27  O   UNL     1      44.238 -17.568   5.314  1.00  0.00    -0.350 OA
BRANCH  27  28
HETATM   28  C   UNL     1      43.464 -17.755   6.503  1.00  0.00     0.175 C 
BRANCH  28  29
HETATM   29  C   UNL     1      43.657 -16.543   7.415  1.00  0.00     0.022 C 
HETATM   30  C   UNL     1      43.983 -15.278   6.634  1.00  0.00     0.007 C 
ENDBRANCH  28  29
ENDBRANCH  27  28
ENDBRANCH  22  27
ENDBRANCH   1  21
TORSDOF 8
ENDMDL
MODEL 9
REMARK VINA RESULT:      -7.0      7.447     11.059
REMARK  8 active torsions:
REMARK  status: ('A' for Active; 'I' for Inactive)
REMARK    1  A    between atoms: C_2  and  C_3 
REMARK    2  A    between atoms: C_3  and  O_4 
REMARK    3  A    between atoms: O_4  and  C_5 
REMARK    4  A    between atoms: C_6  and  C_7 
REMARK    5  A    between atoms: C_11  and  C_12 
REMARK       I    between atoms: C_12  and  N_13 
REMARK    6  A    between atoms: N_13  and  N_14 
REMARK    7  A    between atoms: C_15  and  C_16 
REMARK    8  A    between atoms: C_17  and  O_18 
ROOT
HETATM    1  C   UNL     1      43.008  -9.170   9.359  1.00  0.00     0.092 A 
HETATM    2  N   UNL     1      43.486 -10.205  10.063  1.00  0.00    -0.174 NA
HETATM    3  N   UNL     1      43.850 -11.107   9.142  1.00  0.00    -0.272 N 
HETATM    4  H   UNL     1      44.259 -11.987   9.448  1.00  0.00     0.189 HD
HETATM    5  C   UNL     1      43.586 -10.731   7.854  1.00  0.00     0.121 A 
HETATM    6  C   UNL     1      43.057  -9.461   7.964  1.00  0.00     0.071 A 
ENDROOT
BRANCH   5   7
HETATM    7  C   UNL     1      43.862 -11.610   6.746  1.00  0.00     0.289 C 
HETATM    8  N   UNL     1      43.363 -12.897   6.891  1.00  0.00    -0.242 N 
HETATM    9  H   UNL     1      42.889 -13.168   7.742  1.00  0.00     0.192 HD
HETATM   10  O   UNL     1      44.518 -11.235   5.779  1.00  0.00    -0.264 OA
BRANCH   8  11
HETATM   11  N   UNL     1      43.647 -13.844   5.951  1.00  0.00    -0.183 NA
HETATM   12  C   UNL     1      43.049 -14.984   6.100  1.00  0.00     0.153 C 
BRANCH  12  13
HETATM   13  C   UNL     1      43.294 -16.099   5.165  1.00  0.00     0.016 A 
HETATM   14  C   UNL     1      42.970 -16.017   3.805  1.00  0.00     0.077 A 
HETATM   15  C   UNL     1      43.229 -17.093   2.959  1.00  0.00     0.037 A 
HETATM   16  C   UNL     1      43.818 -18.252   3.464  1.00  0.00     0.003 A 
HETATM   17  C   UNL     1      44.145 -18.339   4.818  1.00  0.00     0.001 A 
HETATM   18  C   UNL     1      43.882 -17.264   5.671  1.00  0.00     0.016 A 
BRANCH  14  19
HETATM   19  O   UNL     1      42.397 -14.916   3.231  1.00  0.00    -0.360 OA
HETATM   20  H   UNL     1      42.263 -14.235   3.928  1.00  0.00     0.217 HD
ENDBRANCH  14  19
ENDBRANCH  12  13
ENDBRANCH   8  11
ENDBRANCH   5   7
BRANCH   1  21
HETATM   21  C   UNL     1      42.477  -7.959   9.989  1.00  0.00     0.028 A 
HETATM   22  C   UNL     1      41.317  -7.931  10.784  1.00  0.00     0.081 A 
HETATM   23  C   UNL     1      40.833  -6.711  11.278  1.00  0.00     0.038 A 
HETATM   24  C   UNL     1      41.516  -5.521  11.037  1.00  0.00     0.003 A 
HETATM   25  C   UNL     1      42.682  -5.538  10.281  1.00  0.00     0.001 A 
HETATM   26  C   UNL     1      43.155  -6.745   9.757  1.00  0.00     0.017 A 
BRANCH  22  27
HETATM   27  O   UNL     1      40.539  -9.014  11.105  1.00  0.00    -0.350 OA
BRANCH  27  28
HETATM   28  C   UNL     1      40.330  -9.173  12.511  1.00  0.00     0.175 C 
BRANCH  28  29
HETATM   29  C   UNL     1      41.599  -9.748  13.140  1.00  0.00     0.022 C 
HETATM   30  C   UNL     1      42.150  -8.859  14.246  1.00  0.00     0.007 C 
ENDBRANCH  28  29
ENDBRANCH  27  28
ENDBRANCH  22  27
ENDBRANCH   1  21
TORSDOF 8
ENDMDL
MODEL 10
REMARK VINA RESULT:      -7.0     24.359     27.197
REMARK  8 active torsions:
REMARK  status: ('A' for Active; 'I' for Inactive)
REMARK    1  A    between atoms: C_2  and  C_3 
REMARK    2  A    between atoms: C_3  and  O_4 
REMARK    3  A    between atoms: O_4  and  C_5 
REMARK    4  A    between atoms: C_6  and  C_7 
REMARK    5  A    between atoms: C_11  and  C_12 
REMARK       I    between atoms: C_12  and  N_13 
REMARK    6  A    between atoms: N_13  and  N_14 
REMARK    7  A    between atoms: C_15  and  C_16 
REMARK    8  A    between atoms: C_17  and  O_18 
ROOT
HETATM    1  C   UNL     1      57.797 -29.202  19.241  1.00  0.00     0.092 A 
HETATM    2  N   UNL     1      57.917 -29.594  17.966  1.00  0.00    -0.174 NA
HETATM    3  N   UNL     1      56.703 -30.055  17.634  1.00  0.00    -0.272 N 
HETATM    4  H   UNL     1      56.549 -30.402  16.690  1.00  0.00     0.189 HD
HETATM    5  C   UNL     1      55.796 -30.031  18.656  1.00  0.00     0.121 A 
HETATM    6  C   UNL     1      56.476 -29.458  19.712  1.00  0.00     0.071 A 
ENDROOT
BRANCH   5   7
HETATM    7  C   UNL     1      54.461 -30.546  18.485  1.00  0.00     0.289 C 
HETATM    8  N   UNL     1      53.520 -29.598  18.109  1.00  0.00    -0.242 N 
HETATM    9  H   UNL     1      53.782 -28.625  18.019  1.00  0.00     0.192 HD
HETATM   10  O   UNL     1      54.197 -31.726  18.695  1.00  0.00    -0.264 OA
BRANCH   8  11
HETATM   11  N   UNL     1      52.205 -29.948  18.013  1.00  0.00    -0.183 NA
HETATM   12  C   UNL     1      51.501 -29.799  19.091  1.00  0.00     0.153 C 
BRANCH  12  13
HETATM   13  C   UNL     1      50.072 -30.168  19.123  1.00  0.00     0.016 A 
HETATM   14  C   UNL     1      49.259 -30.100  17.986  1.00  0.00     0.077 A 
HETATM   15  C   UNL     1      47.918 -30.469  18.063  1.00  0.00     0.037 A 
HETATM   16  C   UNL     1      47.384 -30.912  19.274  1.00  0.00     0.003 A 
HETATM   17  C   UNL     1      48.191 -30.983  20.410  1.00  0.00     0.001 A 
HETATM   18  C   UNL     1      49.536 -30.610  20.338  1.00  0.00     0.016 A 
BRANCH  14  19
HETATM   19  O   UNL     1      49.705 -29.683  16.762  1.00  0.00    -0.360 OA
HETATM   20  H   UNL     1      49.972 -28.739  16.833  1.00  0.00     0.217 HD
ENDBRANCH  14  19
ENDBRANCH  12  13
ENDBRANCH   8  11
ENDBRANCH   5   7
BRANCH   1  21
HETATM   21  C   UNL     1      58.914 -28.645  20.008  1.00  0.00     0.028 A 
HETATM   22  C   UNL     1      58.829 -27.477  20.787  1.00  0.00     0.081 A 
HETATM   23  C   UNL     1      59.972 -26.968  21.419  1.00  0.00     0.038 A 
HETATM   24  C   UNL     1      61.193 -27.634  21.331  1.00  0.00     0.003 A 
HETATM   25  C   UNL     1      61.285 -28.807  20.593  1.00  0.00     0.001 A 
HETATM   26  C   UNL     1      60.158 -29.305  19.932  1.00  0.00     0.017 A 
BRANCH  22  27
HETATM   27  O   UNL     1      57.703 -26.714  20.965  1.00  0.00    -0.350 OA
BRANCH  27  28
HETATM   28  C   UNL     1      57.525 -25.711  19.961  1.00  0.00     0.175 C 
BRANCH  28  29
HETATM   29  C   UNL     1      56.034 -25.401  19.827  1.00  0.00     0.022 C 
HETATM   30  C   UNL     1      55.702 -23.972  20.231  1.00  0.00     0.007 C 
ENDBRANCH  28  29
ENDBRANCH  27  28
ENDBRANCH  22  27
ENDBRANCH   1  21
TORSDOF 8
ENDMDL
