MODEL 1
REMARK VINA RESULT:      -8.2      0.000      0.000
REMARK  11 active torsions:
REMARK  status: ('A' for Active; 'I' for Inactive)
REMARK    1  A    between atoms: C_2  and  N_3 
REMARK    2  A    between atoms: N_3  and  C_5 
REMARK    3  A    between atoms: N_3  and  C_12 
REMARK    4  A    between atoms: C_5  and  C_6 
REMARK    5  A    between atoms: C_12  and  C_13 
REMARK    6  A    between atoms: C_13  and  N_14 
REMARK       I    between atoms: N_14  and  C_15 
REMARK    7  A    between atoms: C_15  and  C_16 
REMARK    8  A    between atoms: C_24  and  N_25 
REMARK    9  A    between atoms: N_25  and  C_26 
REMARK   10  A    between atoms: C_27  and  O_28 
REMARK   11  A    between atoms: C_31  and  O_32 
ROOT
HETATM    1  C   UNL     1      40.990 -13.985   1.644  1.00  0.00     0.048 A 
HETATM    2  C   UNL     1      40.442 -13.774   0.369  1.00  0.00     0.009 A 
HETATM    3  C   UNL     1      40.535 -12.459  -0.120  1.00  0.00     0.070 A 
HETATM    4  C   UNL     1      40.000 -12.175  -1.369  1.00  0.00     0.032 A 
HETATM    5  C   UNL     1      39.373 -13.154  -2.143  1.00  0.00     0.002 A 
HETATM    6  C   UNL     1      39.282 -14.455  -1.669  1.00  0.00     0.001 A 
HETATM    7  C   UNL     1      39.815 -14.770  -0.421  1.00  0.00     0.015 A 
HETATM    8  N   UNL     1      41.121 -11.466   0.571  1.00  0.00    -0.231 NA
HETATM    9  C   UNL     1      41.632 -11.696   1.795  1.00  0.00     0.129 A 
HETATM   10  C   UNL     1      41.575 -12.950   2.370  1.00  0.00     0.068 A 
ENDROOT
BRANCH   1  11
HETATM   11  C   UNL     1      41.038 -15.320   2.258  1.00  0.00     0.252 C 
HETATM   12  N   UNL     1      42.162 -16.057   1.987  1.00  0.00    -0.355 N 
HETATM   13  H   UNL     1      42.860 -15.618   1.389  1.00  0.00     0.162 HD
HETATM   14  O   UNL     1      40.090 -15.725   2.918  1.00  0.00    -0.268 OA
BRANCH  12  15
HETATM   15  C   UNL     1      42.321 -17.490   2.216  1.00  0.00     0.150 C 
BRANCH  15  16
HETATM   16  C   UNL     1      43.621 -17.988   2.890  1.00  0.00     0.255 C 
BRANCH  16  17
HETATM   17  N   UNL     1      43.526 -18.224   4.392  1.00  0.00    -0.062 N 
HETATM   18  H   UNL     1      42.502 -18.339   4.546  1.00  0.00     0.280 HD
BRANCH  17  19
HETATM   19  C   UNL     1      44.126 -19.523   4.908  1.00  0.00     0.180 C 
HETATM   20  C   UNL     1      43.950 -20.649   3.889  1.00  0.00     0.039 C 
HETATM   21  C   UNL     1      43.564 -19.898   6.273  1.00  0.00     0.039 C 
ENDBRANCH  17  19
BRANCH  17  22
HETATM   22  C   UNL     1      43.902 -16.985   5.183  1.00  0.00     0.273 C 
BRANCH  22  23
HETATM   23  C   UNL     1      42.732 -16.121   5.574  1.00  0.00    -0.033 A 
HETATM   24  C   UNL     1      41.550 -16.700   6.062  1.00  0.00     0.009 A 
HETATM   25  C   UNL     1      40.465 -15.899   6.420  1.00  0.00     0.001 A 
HETATM   26  C   UNL     1      40.550 -14.513   6.297  1.00  0.00     0.000 A 
HETATM   27  C   UNL     1      41.719 -13.927   5.818  1.00  0.00     0.001 A 
HETATM   28  C   UNL     1      42.806 -14.724   5.459  1.00  0.00     0.009 A 
ENDBRANCH  22  23
ENDBRANCH  17  22
ENDBRANCH  16  17
ENDBRANCH  15  16
ENDBRANCH  12  15
ENDBRANCH   1  11
BRANCH   9  29
HETATM   29  N   UNL     1      42.255 -10.669   2.527  1.00  0.00    -0.339 N 
HETATM   30  H   UNL     1      42.802 -10.055   1.930  1.00  0.00     0.167 HD
BRANCH  29  31
HETATM   31  C   UNL     1      42.865 -10.770   3.797  1.00  0.00     0.067 A 
HETATM   32  C   UNL     1      42.216 -10.236   4.923  1.00  0.00     0.097 A 
HETATM   33  C   UNL     1      42.710 -10.422   6.217  1.00  0.00     0.075 A 
HETATM   34  C   UNL     1      43.903 -11.118   6.400  1.00  0.00     0.070 A 
HETATM   35  C   UNL     1      44.585 -11.612   5.284  1.00  0.00     0.039 A 
HETATM   36  C   UNL     1      44.069 -11.445   3.994  1.00  0.00     0.035 A 
BRANCH  32  37
HETATM   37  O   UNL     1      41.039  -9.540   4.751  1.00  0.00    -0.354 OA
HETATM   38  C   UNL     1      39.942 -10.357   5.171  1.00  0.00     0.210 C 
ENDBRANCH  32  37
BRANCH  34  39
HETATM   39  O   UNL     1      44.505 -11.378   7.599  1.00  0.00    -0.356 OA
HETATM   40  C   UNL     1      43.986 -10.704   8.739  1.00  0.00     0.210 C 
ENDBRANCH  34  39
ENDBRANCH  29  31
ENDBRANCH   9  29
TORSDOF 11
ENDMDL
MODEL 2
REMARK VINA RESULT:      -8.0      2.045      6.700
REMARK  11 active torsions:
REMARK  status: ('A' for Active; 'I' for Inactive)
REMARK    1  A    between atoms: C_2  and  N_3 
REMARK    2  A    between atoms: N_3  and  C_5 
REMARK    3  A    between atoms: N_3  and  C_12 
REMARK    4  A    between atoms: C_5  and  C_6 
REMARK    5  A    between atoms: C_12  and  C_13 
REMARK    6  A    between atoms: C_13  and  N_14 
REMARK       I    between atoms: N_14  and  C_15 
REMARK    7  A    between atoms: C_15  and  C_16 
REMARK    8  A    between atoms: C_24  and  N_25 
REMARK    9  A    between atoms: N_25  and  C_26 
REMARK   10  A    between atoms: C_27  and  O_28 
REMARK   11  A    between atoms: C_31  and  O_32 
ROOT
HETATM    1  C   UNL     1      43.644 -16.938   4.455  1.00  0.00     0.048 A 
HETATM    2  C   UNL     1      43.752 -18.311   4.182  1.00  0.00     0.009 A 
HETATM    3  C   UNL     1      43.472 -18.689   2.857  1.00  0.00     0.070 A 
HETATM    4  C   UNL     1      43.544 -20.034   2.519  1.00  0.00     0.032 A 
HETATM    5  C   UNL     1      43.881 -21.012   3.457  1.00  0.00     0.002 A 
HETATM    6  C   UNL     1      44.163 -20.647   4.765  1.00  0.00     0.001 A 
HETATM    7  C   UNL     1      44.104 -19.304   5.131  1.00  0.00     0.015 A 
HETATM    8  N   UNL     1      43.138 -17.803   1.903  1.00  0.00    -0.231 NA
HETATM    9  C   UNL     1      43.035 -16.492   2.195  1.00  0.00     0.129 A 
HETATM   10  C   UNL     1      43.274 -16.024   3.472  1.00  0.00     0.068 A 
ENDROOT
BRANCH   1  11
HETATM   11  C   UNL     1      43.979 -16.380   5.773  1.00  0.00     0.252 C 
HETATM   12  N   UNL     1      42.929 -15.840   6.471  1.00  0.00    -0.355 N 
HETATM   13  H   UNL     1      42.018 -15.872   6.019  1.00  0.00     0.162 HD
HETATM   14  O   UNL     1      45.141 -16.375   6.159  1.00  0.00    -0.268 OA
BRANCH  12  15
HETATM   15  C   UNL     1      43.037 -14.972   7.641  1.00  0.00     0.150 C 
BRANCH  15  16
HETATM   16  C   UNL     1      43.218 -13.453   7.417  1.00  0.00     0.255 C 
BRANCH  16  17
HETATM   17  N   UNL     1      42.635 -12.913   6.117  1.00  0.00    -0.062 N 
HETATM   18  H   UNL     1      42.797 -13.694   5.446  1.00  0.00     0.280 HD
BRANCH  17  19
HETATM   19  C   UNL     1      41.128 -12.710   6.090  1.00  0.00     0.180 C 
HETATM   20  C   UNL     1      40.450 -13.757   5.206  1.00  0.00     0.039 C 
HETATM   21  C   UNL     1      40.760 -11.292   5.674  1.00  0.00     0.039 C 
ENDBRANCH  17  19
BRANCH  17  22
HETATM   22  C   UNL     1      43.448 -11.755   5.572  1.00  0.00     0.273 C 
BRANCH  22  23
HETATM   23  C   UNL     1      44.278 -11.039   6.605  1.00  0.00    -0.033 A 
HETATM   24  C   UNL     1      43.677 -10.153   7.512  1.00  0.00     0.009 A 
HETATM   25  C   UNL     1      44.447  -9.487   8.467  1.00  0.00     0.001 A 
HETATM   26  C   UNL     1      45.823  -9.700   8.526  1.00  0.00     0.000 A 
HETATM   27  C   UNL     1      46.430 -10.580   7.633  1.00  0.00     0.001 A 
HETATM   28  C   UNL     1      45.664 -11.249   6.678  1.00  0.00     0.009 A 
ENDBRANCH  22  23
ENDBRANCH  17  22
ENDBRANCH  16  17
ENDBRANCH  15  16
ENDBRANCH  12  15
ENDBRANCH   1  11
BRANCH   9  29
HETATM   29  N   UNL     1      42.695 -15.551   1.207  1.00  0.00    -0.339 N 
HETATM   30  H   UNL     1      43.428 -15.450   0.511  1.00  0.00     0.167 HD
BRANCH  29  31
HETATM   31  C   UNL     1      42.034 -14.316   1.390  1.00  0.00     0.067 A 
HETATM   32  C   UNL     1      40.687 -14.188   1.012  1.00  0.00     0.097 A 
HETATM   33  C   UNL     1      39.950 -13.033   1.289  1.00  0.00     0.075 A 
HETATM   34  C   UNL     1      40.574 -11.958   1.918  1.00  0.00     0.070 A 
HETATM   35  C   UNL     1      41.928 -12.054   2.255  1.00  0.00     0.039 A 
HETATM   36  C   UNL     1      42.651 -13.223   1.999  1.00  0.00     0.035 A 
BRANCH  32  37
HETATM   37  O   UNL     1      40.064 -15.243   0.383  1.00  0.00    -0.354 OA
HETATM   38  C   UNL     1      39.575 -14.811  -0.891  1.00  0.00     0.210 C 
ENDBRANCH  32  37
BRANCH  34  39
HETATM   39  O   UNL     1      39.985 -10.771   2.253  1.00  0.00    -0.356 OA
HETATM   40  C   UNL     1      38.567 -10.769   2.375  1.00  0.00     0.210 C 
ENDBRANCH  34  39
ENDBRANCH  29  31
ENDBRANCH   9  29
TORSDOF 11
ENDMDL
MODEL 3
REMARK VINA RESULT:      -7.9      2.636      7.579
REMARK  11 active torsions:
REMARK  status: ('A' for Active; 'I' for Inactive)
REMARK    1  A    between atoms: C_2  and  N_3 
REMARK    2  A    between atoms: N_3  and  C_5 
REMARK    3  A    between atoms: N_3  and  C_12 
REMARK    4  A    between atoms: C_5  and  C_6 
REMARK    5  A    between atoms: C_12  and  C_13 
REMARK    6  A    between atoms: C_13  and  N_14 
REMARK       I    between atoms: N_14  and  C_15 
REMARK    7  A    between atoms: C_15  and  C_16 
REMARK    8  A    between atoms: C_24  and  N_25 
REMARK    9  A    between atoms: N_25  and  C_26 
REMARK   10  A    between atoms: C_27  and  O_28 
REMARK   11  A    between atoms: C_31  and  O_32 
ROOT
HETATM    1  C   UNL     1      41.803 -15.462   4.599  1.00  0.00     0.048 A 
HETATM    2  C   UNL     1      42.577 -16.546   4.155  1.00  0.00     0.009 A 
HETATM    3  C   UNL     1      42.284 -17.007   2.859  1.00  0.00     0.070 A 
HETATM    4  C   UNL     1      43.000 -18.087   2.361  1.00  0.00     0.032 A 
HETATM    5  C   UNL     1      43.992 -18.724   3.110  1.00  0.00     0.002 A 
HETATM    6  C   UNL     1      44.290 -18.271   4.387  1.00  0.00     0.001 A 
HETATM    7  C   UNL     1      43.591 -17.186   4.911  1.00  0.00     0.015 A 
HETATM    8  N   UNL     1      41.341 -16.446   2.083  1.00  0.00    -0.231 NA
HETATM    9  C   UNL     1      40.609 -15.411   2.539  1.00  0.00     0.129 A 
HETATM   10  C   UNL     1      40.809 -14.897   3.804  1.00  0.00     0.068 A 
ENDROOT
BRANCH   1  11
HETATM   11  C   UNL     1      42.042 -14.819   5.900  1.00  0.00     0.252 C 
HETATM   12  N   UNL     1      42.622 -13.577   5.850  1.00  0.00    -0.355 N 
HETATM   13  H   UNL     1      42.834 -13.212   4.924  1.00  0.00     0.162 HD
HETATM   14  O   UNL     1      41.772 -15.414   6.936  1.00  0.00    -0.268 OA
BRANCH  12  15
HETATM   15  C   UNL     1      43.227 -12.870   6.975  1.00  0.00     0.150 C 
BRANCH  15  16
HETATM   16  C   UNL     1      43.377 -11.334   6.885  1.00  0.00     0.255 C 
BRANCH  16  17
HETATM   17  N   UNL     1      44.219 -10.697   7.984  1.00  0.00    -0.062 N 
HETATM   18  H   UNL     1      44.068 -11.335   8.793  1.00  0.00     0.280 HD
BRANCH  17  19
HETATM   19  C   UNL     1      45.726 -10.717   7.773  1.00  0.00     0.180 C 
HETATM   20  C   UNL     1      46.332  -9.337   8.030  1.00  0.00     0.039 C 
HETATM   21  C   UNL     1      46.092 -11.251   6.395  1.00  0.00     0.039 C 
ENDBRANCH  17  19
BRANCH  17  22
HETATM   22  C   UNL     1      43.652  -9.362   8.428  1.00  0.00     0.273 C 
BRANCH  22  23
HETATM   23  C   UNL     1      43.388  -9.263   9.907  1.00  0.00    -0.033 A 
HETATM   24  C   UNL     1      43.155  -8.015  10.507  1.00  0.00     0.009 A 
HETATM   25  C   UNL     1      42.914  -7.923  11.878  1.00  0.00     0.001 A 
HETATM   26  C   UNL     1      42.902  -9.074  12.664  1.00  0.00     0.000 A 
HETATM   27  C   UNL     1      43.128 -10.318  12.079  1.00  0.00     0.001 A 
HETATM   28  C   UNL     1      43.368 -10.415  10.709  1.00  0.00     0.009 A 
ENDBRANCH  22  23
ENDBRANCH  17  22
ENDBRANCH  16  17
ENDBRANCH  15  16
ENDBRANCH  12  15
ENDBRANCH   1  11
BRANCH   9  29
HETATM   29  N   UNL     1      39.625 -14.808   1.736  1.00  0.00    -0.339 N 
HETATM   30  H   UNL     1      38.763 -15.349   1.721  1.00  0.00     0.167 HD
BRANCH  29  31
HETATM   31  C   UNL     1      39.807 -14.164   0.492  1.00  0.00     0.067 A 
HETATM   32  C   UNL     1      40.249 -12.831   0.460  1.00  0.00     0.097 A 
HETATM   33  C   UNL     1      40.571 -12.190  -0.740  1.00  0.00     0.075 A 
HETATM   34  C   UNL     1      40.409 -12.871  -1.944  1.00  0.00     0.070 A 
HETATM   35  C   UNL     1      39.924 -14.182  -1.929  1.00  0.00     0.039 A 
HETATM   36  C   UNL     1      39.630 -14.826  -0.723  1.00  0.00     0.035 A 
BRANCH  32  37
HETATM   37  O   UNL     1      40.404 -12.147   1.645  1.00  0.00    -0.354 OA
HETATM   38  C   UNL     1      41.780 -11.791   1.809  1.00  0.00     0.210 C 
ENDBRANCH  32  37
BRANCH  34  39
HETATM   39  O   UNL     1      40.683 -12.377  -3.189  1.00  0.00    -0.356 OA
HETATM   40  C   UNL     1      40.672 -10.962  -3.336  1.00  0.00     0.210 C 
ENDBRANCH  34  39
ENDBRANCH  29  31
ENDBRANCH   9  29
TORSDOF 11
ENDMDL
MODEL 4
REMARK VINA RESULT:      -7.9      2.912      6.612
REMARK  11 active torsions:
REMARK  status: ('A' for Active; 'I' for Inactive)
REMARK    1  A    between atoms: C_2  and  N_3 
REMARK    2  A    between atoms: N_3  and  C_5 
REMARK    3  A    between atoms: N_3  and  C_12 
REMARK    4  A    between atoms: C_5  and  C_6 
REMARK    5  A    between atoms: C_12  and  C_13 
REMARK    6  A    between atoms: C_13  and  N_14 
REMARK       I    between atoms: N_14  and  C_15 
REMARK    7  A    between atoms: C_15  and  C_16 
REMARK    8  A    between atoms: C_24  and  N_25 
REMARK    9  A    between atoms: N_25  and  C_26 
REMARK   10  A    between atoms: C_27  and  O_28 
REMARK   11  A    between atoms: C_31  and  O_32 
ROOT
HETATM    1  C   UNL     1      43.739 -11.951   5.441  1.00  0.00     0.048 A 
HETATM    2  C   UNL     1      43.419 -13.275   5.784  1.00  0.00     0.009 A 
HETATM    3  C   UNL     1      43.428 -13.562   7.160  1.00  0.00     0.070 A 
HETATM    4  C   UNL     1      43.136 -14.856   7.571  1.00  0.00     0.032 A 
HETATM    5  C   UNL     1      42.840 -15.871   6.658  1.00  0.00     0.002 A 
HETATM    6  C   UNL     1      42.824 -15.593   5.299  1.00  0.00     0.001 A 
HETATM    7  C   UNL     1      43.108 -14.302   4.858  1.00  0.00     0.015 A 
HETATM    8  N   UNL     1      43.708 -12.637   8.094  1.00  0.00    -0.231 NA
HETATM    9  C   UNL     1      44.018 -11.377   7.736  1.00  0.00     0.129 A 
HETATM   10  C   UNL     1      44.052 -11.000   6.408  1.00  0.00     0.068 A 
ENDROOT
BRANCH   1  11
HETATM   11  C   UNL     1      43.696 -11.478   4.049  1.00  0.00     0.252 C 
HETATM   12  N   UNL     1      42.483 -11.004   3.622  1.00  0.00    -0.355 N 
HETATM   13  H   UNL     1      41.724 -11.020   4.300  1.00  0.00     0.162 HD
HETATM   14  O   UNL     1      44.691 -11.569   3.341  1.00  0.00    -0.268 OA
BRANCH  12  15
HETATM   15  C   UNL     1      42.100 -10.762   2.233  1.00  0.00     0.150 C 
BRANCH  15  16
HETATM   16  C   UNL     1      40.838 -11.467   1.684  1.00  0.00     0.255 C 
BRANCH  16  17
HETATM   17  N   UNL     1      40.380 -12.688   2.472  1.00  0.00    -0.062 N 
HETATM   18  H   UNL     1      41.215 -12.920   3.049  1.00  0.00     0.280 HD
BRANCH  17  19
HETATM   19  C   UNL     1      39.277 -12.453   3.493  1.00  0.00     0.180 C 
HETATM   20  C   UNL     1      38.800 -11.001   3.459  1.00  0.00     0.039 C 
HETATM   21  C   UNL     1      39.708 -12.876   4.892  1.00  0.00     0.039 C 
ENDBRANCH  17  19
BRANCH  17  22
HETATM   22  C   UNL     1      40.177 -13.895   1.576  1.00  0.00     0.273 C 
BRANCH  22  23
HETATM   23  C   UNL     1      41.233 -14.959   1.722  1.00  0.00    -0.033 A 
HETATM   24  C   UNL     1      42.573 -14.681   1.408  1.00  0.00     0.009 A 
HETATM   25  C   UNL     1      43.550 -15.669   1.540  1.00  0.00     0.001 A 
HETATM   26  C   UNL     1      43.200 -16.942   1.985  1.00  0.00     0.000 A 
HETATM   27  C   UNL     1      41.874 -17.229   2.303  1.00  0.00     0.001 A 
HETATM   28  C   UNL     1      40.894 -16.244   2.174  1.00  0.00     0.009 A 
ENDBRANCH  22  23
ENDBRANCH  17  22
ENDBRANCH  16  17
ENDBRANCH  15  16
ENDBRANCH  12  15
ENDBRANCH   1  11
BRANCH   9  29
HETATM   29  N   UNL     1      44.304 -10.396   8.701  1.00  0.00    -0.339 N 
HETATM   30  H   UNL     1      45.299 -10.340   8.902  1.00  0.00     0.167 HD
BRANCH  29  31
HETATM   31  C   UNL     1      43.563 -10.096   9.866  1.00  0.00     0.067 A 
HETATM   32  C   UNL     1      42.401  -9.313   9.765  1.00  0.00     0.097 A 
HETATM   33  C   UNL     1      41.561  -9.096  10.862  1.00  0.00     0.075 A 
HETATM   34  C   UNL     1      41.903  -9.631  12.102  1.00  0.00     0.070 A 
HETATM   35  C   UNL     1      43.083 -10.370  12.226  1.00  0.00     0.039 A 
HETATM   36  C   UNL     1      43.904 -10.606  11.118  1.00  0.00     0.035 A 
BRANCH  32  37
HETATM   37  O   UNL     1      42.059  -8.774   8.544  1.00  0.00    -0.354 OA
HETATM   38  C   UNL     1      40.811  -9.330   8.116  1.00  0.00     0.210 C 
ENDBRANCH  32  37
BRANCH  34  39
HETATM   39  O   UNL     1      41.184  -9.504  13.257  1.00  0.00    -0.356 OA
HETATM   40  C   UNL     1      39.949 -10.207  13.326  1.00  0.00     0.210 C 
ENDBRANCH  34  39
ENDBRANCH  29  31
ENDBRANCH   9  29
TORSDOF 11
ENDMDL
MODEL 5
REMARK VINA RESULT:      -7.8      2.450      6.208
REMARK  11 active torsions:
REMARK  status: ('A' for Active; 'I' for Inactive)
REMARK    1  A    between atoms: C_2  and  N_3 
REMARK    2  A    between atoms: N_3  and  C_5 
REMARK    3  A    between atoms: N_3  and  C_12 
REMARK    4  A    between atoms: C_5  and  C_6 
REMARK    5  A    between atoms: C_12  and  C_13 
REMARK    6  A    between atoms: C_13  and  N_14 
REMARK       I    between atoms: N_14  and  C_15 
REMARK    7  A    between atoms: C_15  and  C_16 
REMARK    8  A    between atoms: C_24  and  N_25 
REMARK    9  A    between atoms: N_25  and  C_26 
REMARK   10  A    between atoms: C_27  and  O_28 
REMARK   11  A    between atoms: C_31  and  O_32 
ROOT
HETATM    1  C   UNL     1      41.459 -13.107   5.689  1.00  0.00     0.048 A 
HETATM    2  C   UNL     1      42.035 -14.357   5.966  1.00  0.00     0.009 A 
HETATM    3  C   UNL     1      43.303 -14.319   6.573  1.00  0.00     0.070 A 
HETATM    4  C   UNL     1      43.938 -15.519   6.861  1.00  0.00     0.032 A 
HETATM    5  C   UNL     1      43.355 -16.753   6.564  1.00  0.00     0.002 A 
HETATM    6  C   UNL     1      42.102 -16.798   5.970  1.00  0.00     0.001 A 
HETATM    7  C   UNL     1      41.439 -15.609   5.674  1.00  0.00     0.015 A 
HETATM    8  N   UNL     1      43.925 -13.169   6.884  1.00  0.00    -0.231 NA
HETATM    9  C   UNL     1      43.352 -11.984   6.599  1.00  0.00     0.129 A 
HETATM   10  C   UNL     1      42.115 -11.916   5.989  1.00  0.00     0.068 A 
ENDROOT
BRANCH   1  11
HETATM   11  C   UNL     1      40.106 -12.982   5.127  1.00  0.00     0.252 C 
HETATM   12  N   UNL     1      40.022 -13.067   3.761  1.00  0.00    -0.355 N 
HETATM   13  H   UNL     1      40.897 -13.206   3.259  1.00  0.00     0.162 HD
HETATM   14  O   UNL     1      39.153 -12.768   5.866  1.00  0.00    -0.268 OA
BRANCH  12  15
HETATM   15  C   UNL     1      38.870 -12.683   2.950  1.00  0.00     0.150 C 
BRANCH  15  16
HETATM   16  C   UNL     1      39.117 -12.195   1.503  1.00  0.00     0.255 C 
BRANCH  16  17
HETATM   17  N   UNL     1      39.814 -13.196   0.589  1.00  0.00    -0.062 N 
HETATM   18  H   UNL     1      39.439 -14.111   0.916  1.00  0.00     0.280 HD
BRANCH  17  19
HETATM   19  C   UNL     1      39.430 -13.142  -0.882  1.00  0.00     0.180 C 
HETATM   20  C   UNL     1      39.231 -14.550  -1.446  1.00  0.00     0.039 C 
HETATM   21  C   UNL     1      40.437 -12.340  -1.696  1.00  0.00     0.039 C 
ENDBRANCH  17  19
BRANCH  17  22
HETATM   22  C   UNL     1      41.304 -13.265   0.860  1.00  0.00     0.273 C 
BRANCH  22  23
HETATM   23  C   UNL     1      41.770 -14.577   1.433  1.00  0.00    -0.033 A 
HETATM   24  C   UNL     1      43.115 -14.764   1.786  1.00  0.00     0.009 A 
HETATM   25  C   UNL     1      43.547 -15.982   2.313  1.00  0.00     0.001 A 
HETATM   26  C   UNL     1      42.640 -17.024   2.494  1.00  0.00     0.000 A 
HETATM   27  C   UNL     1      41.301 -16.850   2.151  1.00  0.00     0.001 A 
HETATM   28  C   UNL     1      40.865 -15.634   1.625  1.00  0.00     0.009 A 
ENDBRANCH  22  23
ENDBRANCH  17  22
ENDBRANCH  16  17
ENDBRANCH  15  16
ENDBRANCH  12  15
ENDBRANCH   1  11
BRANCH   9  29
HETATM   29  N   UNL     1      43.987 -10.772   6.927  1.00  0.00    -0.339 N 
HETATM   30  H   UNL     1      44.888 -10.678   6.465  1.00  0.00     0.167 HD
BRANCH  29  31
HETATM   31  C   UNL     1      44.028 -10.139   8.188  1.00  0.00     0.067 A 
HETATM   32  C   UNL     1      42.993  -9.264   8.559  1.00  0.00     0.097 A 
HETATM   33  C   UNL     1      42.917  -8.713   9.842  1.00  0.00     0.075 A 
HETATM   34  C   UNL     1      43.914  -9.001  10.770  1.00  0.00     0.070 A 
HETATM   35  C   UNL     1      44.976  -9.832  10.399  1.00  0.00     0.039 A 
HETATM   36  C   UNL     1      45.031 -10.400   9.121  1.00  0.00     0.035 A 
BRANCH  32  37
HETATM   37  O   UNL     1      42.006  -8.967   7.645  1.00  0.00    -0.354 OA
HETATM   38  C   UNL     1      40.762  -8.796   8.332  1.00  0.00     0.210 C 
ENDBRANCH  32  37
BRANCH  34  39
HETATM   39  O   UNL     1      43.973  -8.540  12.056  1.00  0.00    -0.356 OA
HETATM   40  C   UNL     1      42.733  -8.340  12.724  1.00  0.00     0.210 C 
ENDBRANCH  34  39
ENDBRANCH  29  31
ENDBRANCH   9  29
TORSDOF 11
ENDMDL
MODEL 6
REMARK VINA RESULT:      -7.8      2.276      7.191
REMARK  11 active torsions:
REMARK  status: ('A' for Active; 'I' for Inactive)
REMARK    1  A    between atoms: C_2  and  N_3 
REMARK    2  A    between atoms: N_3  and  C_5 
REMARK    3  A    between atoms: N_3  and  C_12 
REMARK    4  A    between atoms: C_5  and  C_6 
REMARK    5  A    between atoms: C_12  and  C_13 
REMARK    6  A    between atoms: C_13  and  N_14 
REMARK       I    between atoms: N_14  and  C_15 
REMARK    7  A    between atoms: C_15  and  C_16 
REMARK    8  A    between atoms: C_24  and  N_25 
REMARK    9  A    between atoms: N_25  and  C_26 
REMARK   10  A    between atoms: C_27  and  O_28 
REMARK   11  A    between atoms: C_31  and  O_32 
ROOT
HETATM    1  C   UNL     1      41.742 -15.571   4.317  1.00  0.00     0.048 A 
HETATM    2  C   UNL     1      42.472 -16.716   3.961  1.00  0.00     0.009 A 
HETATM    3  C   UNL     1      42.247 -17.197   2.659  1.00  0.00     0.070 A 
HETATM    4  C   UNL     1      42.924 -18.336   2.245  1.00  0.00     0.032 A 
HETATM    5  C   UNL     1      43.811 -19.013   3.084  1.00  0.00     0.002 A 
HETATM    6  C   UNL     1      44.042 -18.542   4.369  1.00  0.00     0.001 A 
HETATM    7  C   UNL     1      43.380 -17.398   4.809  1.00  0.00     0.015 A 
HETATM    8  N   UNL     1      41.405 -16.599   1.799  1.00  0.00    -0.231 NA
HETATM    9  C   UNL     1      40.713 -15.505   2.170  1.00  0.00     0.129 A 
HETATM   10  C   UNL     1      40.851 -14.966   3.433  1.00  0.00     0.068 A 
ENDROOT
BRANCH   1  11
HETATM   11  C   UNL     1      41.925 -14.906   5.616  1.00  0.00     0.252 C 
HETATM   12  N   UNL     1      43.044 -14.120   5.726  1.00  0.00    -0.355 N 
HETATM   13  H   UNL     1      43.644 -14.066   4.906  1.00  0.00     0.162 HD
HETATM   14  O   UNL     1      41.132 -15.111   6.526  1.00  0.00    -0.268 OA
BRANCH  12  15
HETATM   15  C   UNL     1      43.607 -13.605   6.971  1.00  0.00     0.150 C 
BRANCH  15  16
HETATM   16  C   UNL     1      44.175 -12.167   6.982  1.00  0.00     0.255 C 
BRANCH  16  17
HETATM   17  N   UNL     1      43.329 -11.138   7.723  1.00  0.00    -0.062 N 
HETATM   18  H   UNL     1      42.497 -11.691   8.019  1.00  0.00     0.280 HD
BRANCH  17  19
HETATM   19  C   UNL     1      43.905 -10.609   9.028  1.00  0.00     0.180 C 
HETATM   20  C   UNL     1      43.133  -9.378   9.506  1.00  0.00     0.039 C 
HETATM   21  C   UNL     1      45.398 -10.333   8.911  1.00  0.00     0.039 C 
ENDBRANCH  17  19
BRANCH  17  22
HETATM   22  C   UNL     1      42.781 -10.078   6.787  1.00  0.00     0.273 C 
BRANCH  22  23
HETATM   23  C   UNL     1      41.718 -10.574   5.843  1.00  0.00    -0.033 A 
HETATM   24  C   UNL     1      41.760 -10.237   4.481  1.00  0.00     0.009 A 
HETATM   25  C   UNL     1      40.772 -10.694   3.608  1.00  0.00     0.001 A 
HETATM   26  C   UNL     1      39.733 -11.491   4.085  1.00  0.00     0.000 A 
HETATM   27  C   UNL     1      39.682 -11.835   5.434  1.00  0.00     0.001 A 
HETATM   28  C   UNL     1      40.668 -11.382   6.310  1.00  0.00     0.009 A 
ENDBRANCH  22  23
ENDBRANCH  17  22
ENDBRANCH  16  17
ENDBRANCH  15  16
ENDBRANCH  12  15
ENDBRANCH   1  11
BRANCH   9  29
HETATM   29  N   UNL     1      39.834 -14.864   1.278  1.00  0.00    -0.339 N 
HETATM   30  H   UNL     1      39.143 -15.505   0.898  1.00  0.00     0.167 HD
BRANCH  29  31
HETATM   31  C   UNL     1      40.155 -13.880   0.316  1.00  0.00     0.067 A 
HETATM   32  C   UNL     1      39.742 -14.052  -1.015  1.00  0.00     0.097 A 
HETATM   33  C   UNL     1      39.917 -13.053  -1.977  1.00  0.00     0.075 A 
HETATM   34  C   UNL     1      40.559 -11.868  -1.623  1.00  0.00     0.070 A 
HETATM   35  C   UNL     1      41.019 -11.704  -0.313  1.00  0.00     0.039 A 
HETATM   36  C   UNL     1      40.815 -12.698   0.650  1.00  0.00     0.035 A 
BRANCH  32  37
HETATM   37  O   UNL     1      39.113 -15.224  -1.376  1.00  0.00    -0.354 OA
HETATM   38  C   UNL     1      38.718 -15.144  -2.749  1.00  0.00     0.210 C 
ENDBRANCH  32  37
BRANCH  34  39
HETATM   39  O   UNL     1      40.800 -10.807  -2.450  1.00  0.00    -0.356 OA
HETATM   40  C   UNL     1      39.739 -10.410  -3.312  1.00  0.00     0.210 C 
ENDBRANCH  34  39
ENDBRANCH  29  31
ENDBRANCH   9  29
TORSDOF 11
ENDMDL
MODEL 7
REMARK VINA RESULT:      -7.6      2.503      7.596
REMARK  11 active torsions:
REMARK  status: ('A' for Active; 'I' for Inactive)
REMARK    1  A    between atoms: C_2  and  N_3 
REMARK    2  A    between atoms: N_3  and  C_5 
REMARK    3  A    between atoms: N_3  and  C_12 
REMARK    4  A    between atoms: C_5  and  C_6 
REMARK    5  A    between atoms: C_12  and  C_13 
REMARK    6  A    between atoms: C_13  and  N_14 
REMARK       I    between atoms: N_14  and  C_15 
REMARK    7  A    between atoms: C_15  and  C_16 
REMARK    8  A    between atoms: C_24  and  N_25 
REMARK    9  A    between atoms: N_25  and  C_26 
REMARK   10  A    between atoms: C_27  and  O_28 
REMARK   11  A    between atoms: C_31  and  O_32 
ROOT
HETATM    1  C   UNL     1      40.805 -14.613   3.769  1.00  0.00     0.048 A 
HETATM    2  C   UNL     1      41.726 -15.671   3.821  1.00  0.00     0.009 A 
HETATM    3  C   UNL     1      41.900 -16.383   2.621  1.00  0.00     0.070 A 
HETATM    4  C   UNL     1      42.785 -17.452   2.605  1.00  0.00     0.032 A 
HETATM    5  C   UNL     1      43.498 -17.838   3.743  1.00  0.00     0.002 A 
HETATM    6  C   UNL     1      43.336 -17.137   4.929  1.00  0.00     0.001 A 
HETATM    7  C   UNL     1      42.458 -16.056   4.973  1.00  0.00     0.015 A 
HETATM    8  N   UNL     1      41.245 -16.071   1.490  1.00  0.00    -0.231 NA
HETATM    9  C   UNL     1      40.361 -15.055   1.471  1.00  0.00     0.129 A 
HETATM   10  C   UNL     1      40.108 -14.306   2.603  1.00  0.00     0.068 A 
ENDROOT
BRANCH   1  11
HETATM   11  C   UNL     1      40.571 -13.729   4.921  1.00  0.00     0.252 C 
HETATM   12  N   UNL     1      39.386 -13.039   4.906  1.00  0.00    -0.355 N 
HETATM   13  H   UNL     1      38.777 -13.198   4.107  1.00  0.00     0.162 HD
HETATM   14  O   UNL     1      41.430 -13.611   5.786  1.00  0.00    -0.268 OA
BRANCH  12  15
HETATM   15  C   UNL     1      39.052 -11.897   5.753  1.00  0.00     0.150 C 
BRANCH  15  16
HETATM   16  C   UNL     1      38.780 -10.533   5.077  1.00  0.00     0.255 C 
BRANCH  16  17
HETATM   17  N   UNL     1      39.474 -10.322   3.736  1.00  0.00    -0.062 N 
HETATM   18  H   UNL     1      39.809 -11.279   3.494  1.00  0.00     0.280 HD
BRANCH  17  19
HETATM   19  C   UNL     1      38.577  -9.937   2.570  1.00  0.00     0.180 C 
HETATM   20  C   UNL     1      37.978 -11.179   1.907  1.00  0.00     0.039 C 
HETATM   21  C   UNL     1      39.309  -9.055   1.567  1.00  0.00     0.039 C 
ENDBRANCH  17  19
BRANCH  17  22
HETATM   22  C   UNL     1      40.735  -9.491   3.877  1.00  0.00     0.273 C 
BRANCH  22  23
HETATM   23  C   UNL     1      41.970 -10.290   4.198  1.00  0.00    -0.033 A 
HETATM   24  C   UNL     1      42.500 -10.291   5.498  1.00  0.00     0.009 A 
HETATM   25  C   UNL     1      43.648 -11.028   5.793  1.00  0.00     0.001 A 
HETATM   26  C   UNL     1      44.277 -11.771   4.796  1.00  0.00     0.000 A 
HETATM   27  C   UNL     1      43.758 -11.780   3.503  1.00  0.00     0.001 A 
HETATM   28  C   UNL     1      42.611 -11.046   3.203  1.00  0.00     0.009 A 
ENDBRANCH  22  23
ENDBRANCH  17  22
ENDBRANCH  16  17
ENDBRANCH  15  16
ENDBRANCH  12  15
ENDBRANCH   1  11
BRANCH   9  29
HETATM   29  N   UNL     1      39.674 -14.711   0.293  1.00  0.00    -0.339 N 
HETATM   30  H   UNL     1      39.273 -15.526  -0.165  1.00  0.00     0.167 HD
BRANCH  29  31
HETATM   31  C   UNL     1      40.058 -13.758  -0.677  1.00  0.00     0.067 A 
HETATM   32  C   UNL     1      39.644 -13.920  -2.010  1.00  0.00     0.097 A 
HETATM   33  C   UNL     1      39.884 -12.943  -2.980  1.00  0.00     0.075 A 
HETATM   34  C   UNL     1      40.590 -11.793  -2.633  1.00  0.00     0.070 A 
HETATM   35  C   UNL     1      41.050 -11.642  -1.321  1.00  0.00     0.039 A 
HETATM   36  C   UNL     1      40.783 -12.612  -0.350  1.00  0.00     0.035 A 
BRANCH  32  37
HETATM   37  O   UNL     1      38.952 -15.057  -2.363  1.00  0.00    -0.354 OA
HETATM   38  C   UNL     1      38.165 -14.788  -3.528  1.00  0.00     0.210 C 
ENDBRANCH  32  37
BRANCH  34  39
HETATM   39  O   UNL     1      40.897 -10.756  -3.469  1.00  0.00    -0.356 OA
HETATM   40  C   UNL     1      39.982  -9.667  -3.506  1.00  0.00     0.210 C 
ENDBRANCH  34  39
ENDBRANCH  29  31
ENDBRANCH   9  29
TORSDOF 11
ENDMDL
MODEL 8
REMARK VINA RESULT:      -7.6      3.798      7.137
REMARK  11 active torsions:
REMARK  status: ('A' for Active; 'I' for Inactive)
REMARK    1  A    between atoms: C_2  and  N_3 
REMARK    2  A    between atoms: N_3  and  C_5 
REMARK    3  A    between atoms: N_3  and  C_12 
REMARK    4  A    between atoms: C_5  and  C_6 
REMARK    5  A    between atoms: C_12  and  C_13 
REMARK    6  A    between atoms: C_13  and  N_14 
REMARK       I    between atoms: N_14  and  C_15 
REMARK    7  A    between atoms: C_15  and  C_16 
REMARK    8  A    between atoms: C_24  and  N_25 
REMARK    9  A    between atoms: N_25  and  C_26 
REMARK   10  A    between atoms: C_27  and  O_28 
REMARK   11  A    between atoms: C_31  and  O_32 
ROOT
HETATM    1  C   UNL     1      42.703 -11.164   6.595  1.00  0.00     0.048 A 
HETATM    2  C   UNL     1      43.800 -10.535   7.205  1.00  0.00     0.009 A 
HETATM    3  C   UNL     1      43.513  -9.331   7.872  1.00  0.00     0.070 A 
HETATM    4  C   UNL     1      44.553  -8.646   8.485  1.00  0.00     0.032 A 
HETATM    5  C   UNL     1      45.868  -9.119   8.453  1.00  0.00     0.002 A 
HETATM    6  C   UNL     1      46.157 -10.309   7.801  1.00  0.00     0.001 A 
HETATM    7  C   UNL     1      45.132 -11.019   7.181  1.00  0.00     0.015 A 
HETATM    8  N   UNL     1      42.274  -8.815   7.941  1.00  0.00    -0.231 NA
HETATM    9  C   UNL     1      41.241  -9.437   7.340  1.00  0.00     0.129 A 
HETATM   10  C   UNL     1      41.424 -10.617   6.646  1.00  0.00     0.068 A 
ENDROOT
BRANCH   1  11
HETATM   11  C   UNL     1      42.829 -12.468   5.926  1.00  0.00     0.252 C 
HETATM   12  N   UNL     1      42.518 -13.560   6.695  1.00  0.00    -0.355 N 
HETATM   13  H   UNL     1      42.230 -13.374   7.653  1.00  0.00     0.162 HD
HETATM   14  O   UNL     1      43.237 -12.528   4.773  1.00  0.00    -0.268 OA
BRANCH  12  15
HETATM   15  C   UNL     1      42.841 -14.948   6.377  1.00  0.00     0.150 C 
BRANCH  15  16
HETATM   16  C   UNL     1      41.790 -15.795   5.623  1.00  0.00     0.255 C 
BRANCH  16  17
HETATM   17  N   UNL     1      42.200 -16.251   4.228  1.00  0.00    -0.062 N 
HETATM   18  H   UNL     1      41.602 -17.088   4.070  1.00  0.00     0.280 HD
BRANCH  17  19
HETATM   19  C   UNL     1      41.839 -15.316   3.083  1.00  0.00     0.180 C 
HETATM   20  C   UNL     1      40.666 -15.871   2.274  1.00  0.00     0.039 C 
HETATM   21  C   UNL     1      43.045 -15.016   2.203  1.00  0.00     0.039 C 
ENDBRANCH  17  19
BRANCH  17  22
HETATM   22  C   UNL     1      43.623 -16.777   4.202  1.00  0.00     0.273 C 
BRANCH  22  23
HETATM   23  C   UNL     1      43.730 -18.261   3.973  1.00  0.00    -0.033 A 
HETATM   24  C   UNL     1      43.521 -18.802   2.695  1.00  0.00     0.009 A 
HETATM   25  C   UNL     1      43.617 -20.179   2.485  1.00  0.00     0.001 A 
HETATM   26  C   UNL     1      43.922 -21.027   3.547  1.00  0.00     0.000 A 
HETATM   27  C   UNL     1      44.135 -20.502   4.819  1.00  0.00     0.001 A 
HETATM   28  C   UNL     1      44.042 -19.127   5.034  1.00  0.00     0.009 A 
ENDBRANCH  22  23
ENDBRANCH  17  22
ENDBRANCH  16  17
ENDBRANCH  15  16
ENDBRANCH  12  15
ENDBRANCH   1  11
BRANCH   9  29
HETATM   29  N   UNL     1      39.938  -8.914   7.409  1.00  0.00    -0.339 N 
HETATM   30  H   UNL     1      39.546  -8.746   6.486  1.00  0.00     0.167 HD
BRANCH  29  31
HETATM   31  C   UNL     1      39.446  -7.953   8.320  1.00  0.00     0.067 A 
HETATM   32  C   UNL     1      39.039  -8.356   9.603  1.00  0.00     0.097 A 
HETATM   33  C   UNL     1      38.670  -7.432  10.584  1.00  0.00     0.075 A 
HETATM   34  C   UNL     1      38.659  -6.074  10.275  1.00  0.00     0.070 A 
HETATM   35  C   UNL     1      39.015  -5.662   8.987  1.00  0.00     0.039 A 
HETATM   36  C   UNL     1      39.410  -6.591   8.019  1.00  0.00     0.035 A 
BRANCH  32  37
HETATM   37  O   UNL     1      39.039  -9.698   9.914  1.00  0.00    -0.354 OA
HETATM   38  C   UNL     1      39.824  -9.909  11.092  1.00  0.00     0.210 C 
ENDBRANCH  32  37
BRANCH  34  39
HETATM   39  O   UNL     1      38.324  -5.059  11.127  1.00  0.00    -0.356 OA
HETATM   40  C   UNL     1      39.368  -4.174  11.516  1.00  0.00     0.210 C 
ENDBRANCH  34  39
ENDBRANCH  29  31
ENDBRANCH   9  29
TORSDOF 11
ENDMDL
MODEL 9
REMARK VINA RESULT:      -7.5      0.959      3.046
REMARK  11 active torsions:
REMARK  status: ('A' for Active; 'I' for Inactive)
REMARK    1  A    between atoms: C_2  and  N_3 
REMARK    2  A    between atoms: N_3  and  C_5 
REMARK    3  A    between atoms: N_3  and  C_12 
REMARK    4  A    between atoms: C_5  and  C_6 
REMARK    5  A    between atoms: C_12  and  C_13 
REMARK    6  A    between atoms: C_13  and  N_14 
REMARK       I    between atoms: N_14  and  C_15 
REMARK    7  A    between atoms: C_15  and  C_16 
REMARK    8  A    between atoms: C_24  and  N_25 
REMARK    9  A    between atoms: N_25  and  C_26 
REMARK   10  A    between atoms: C_27  and  O_28 
REMARK   11  A    between atoms: C_31  and  O_32 
ROOT
HETATM    1  C   UNL     1      40.921 -13.899   1.577  1.00  0.00     0.048 A 
HETATM    2  C   UNL     1      40.385 -13.687   0.296  1.00  0.00     0.009 A 
HETATM    3  C   UNL     1      40.432 -12.360  -0.168  1.00  0.00     0.070 A 
HETATM    4  C   UNL     1      39.906 -12.075  -1.420  1.00  0.00     0.032 A 
HETATM    5  C   UNL     1      39.332 -13.065  -2.222  1.00  0.00     0.002 A 
HETATM    6  C   UNL     1      39.287 -14.377  -1.773  1.00  0.00     0.001 A 
HETATM    7  C   UNL     1      39.813 -14.692  -0.522  1.00  0.00     0.015 A 
HETATM    8  N   UNL     1      40.965 -11.357   0.551  1.00  0.00    -0.231 NA
HETATM    9  C   UNL     1      41.465 -11.589   1.780  1.00  0.00     0.129 A 
HETATM   10  C   UNL     1      41.451 -12.855   2.330  1.00  0.00     0.068 A 
ENDROOT
BRANCH   1  11
HETATM   11  C   UNL     1      41.013 -15.242   2.167  1.00  0.00     0.252 C 
HETATM   12  N   UNL     1      40.140 -15.500   3.192  1.00  0.00    -0.355 N 
HETATM   13  H   UNL     1      39.509 -14.745   3.453  1.00  0.00     0.162 HD
HETATM   14  O   UNL     1      41.864 -16.028   1.770  1.00  0.00    -0.268 OA
BRANCH  12  15
HETATM   15  C   UNL     1      40.225 -16.619   4.127  1.00  0.00     0.150 C 
BRANCH  15  16
HETATM   16  C   UNL     1      40.955 -16.400   5.473  1.00  0.00     0.255 C 
BRANCH  16  17
HETATM   17  N   UNL     1      42.448 -16.111   5.364  1.00  0.00    -0.062 N 
HETATM   18  H   UNL     1      42.626 -16.189   4.341  1.00  0.00     0.280 HD
BRANCH  17  19
HETATM   19  C   UNL     1      42.885 -14.695   5.709  1.00  0.00     0.180 C 
HETATM   20  C   UNL     1      43.913 -14.702   6.841  1.00  0.00     0.039 C 
HETATM   21  C   UNL     1      41.693 -13.803   6.029  1.00  0.00     0.039 C 
ENDBRANCH  17  19
BRANCH  17  22
HETATM   22  C   UNL     1      43.283 -17.211   5.991  1.00  0.00     0.273 C 
BRANCH  22  23
HETATM   23  C   UNL     1      43.535 -18.389   5.088  1.00  0.00    -0.033 A 
HETATM   24  C   UNL     1      43.627 -18.215   3.698  1.00  0.00     0.009 A 
HETATM   25  C   UNL     1      43.857 -19.307   2.862  1.00  0.00     0.001 A 
HETATM   26  C   UNL     1      43.997 -20.584   3.403  1.00  0.00     0.000 A 
HETATM   27  C   UNL     1      43.911 -20.769   4.781  1.00  0.00     0.001 A 
HETATM   28  C   UNL     1      43.683 -19.679   5.622  1.00  0.00     0.009 A 
ENDBRANCH  22  23
ENDBRANCH  17  22
ENDBRANCH  16  17
ENDBRANCH  15  16
ENDBRANCH  12  15
ENDBRANCH   1  11
BRANCH   9  29
HETATM   29  N   UNL     1      42.034 -10.551   2.540  1.00  0.00    -0.339 N 
HETATM   30  H   UNL     1      42.483  -9.853   1.954  1.00  0.00     0.167 HD
BRANCH  29  31
HETATM   31  C   UNL     1      42.728 -10.667   3.765  1.00  0.00     0.067 A 
HETATM   32  C   UNL     1      42.160 -10.142   4.937  1.00  0.00     0.097 A 
HETATM   33  C   UNL     1      42.740 -10.342   6.193  1.00  0.00     0.075 A 
HETATM   34  C   UNL     1      43.940 -11.044   6.287  1.00  0.00     0.070 A 
HETATM   35  C   UNL     1      44.542 -11.531   5.123  1.00  0.00     0.039 A 
HETATM   36  C   UNL     1      43.941 -11.349   3.873  1.00  0.00     0.035 A 
BRANCH  32  37
HETATM   37  O   UNL     1      40.977  -9.440   4.852  1.00  0.00    -0.354 OA
HETATM   38  C   UNL     1      39.938 -10.185   5.495  1.00  0.00     0.210 C 
ENDBRANCH  32  37
BRANCH  34  39
HETATM   39  O   UNL     1      44.621 -11.319   7.440  1.00  0.00    -0.356 OA
HETATM   40  C   UNL     1      44.039 -10.862   8.655  1.00  0.00     0.210 C 
ENDBRANCH  34  39
ENDBRANCH  29  31
ENDBRANCH   9  29
TORSDOF 11
ENDMDL
MODEL 10
REMARK VINA RESULT:      -7.5      3.946      7.142
REMARK  11 active torsions:
REMARK  status: ('A' for Active; 'I' for Inactive)
REMARK    1  A    between atoms: C_2  and  N_3 
REMARK    2  A    between atoms: N_3  and  C_5 
REMARK    3  A    between atoms: N_3  and  C_12 
REMARK    4  A    between atoms: C_5  and  C_6 
REMARK    5  A    between atoms: C_12  and  C_13 
REMARK    6  A    between atoms: C_13  and  N_14 
REMARK       I    between atoms: N_14  and  C_15 
REMARK    7  A    between atoms: C_15  and  C_16 
REMARK    8  A    between atoms: C_24  and  N_25 
REMARK    9  A    between atoms: N_25  and  C_26 
REMARK   10  A    between atoms: C_27  and  O_28 
REMARK   11  A    between atoms: C_31  and  O_32 
ROOT
HETATM    1  C   UNL     1      42.241 -10.893   6.720  1.00  0.00     0.048 A 
HETATM    2  C   UNL     1      43.622 -10.800   6.955  1.00  0.00     0.009 A 
HETATM    3  C   UNL     1      44.009  -9.860   7.926  1.00  0.00     0.070 A 
HETATM    4  C   UNL     1      45.361  -9.704   8.198  1.00  0.00     0.032 A 
HETATM    5  C   UNL     1      46.339 -10.449   7.534  1.00  0.00     0.002 A 
HETATM    6  C   UNL     1      45.964 -11.382   6.578  1.00  0.00     0.001 A 
HETATM    7  C   UNL     1      44.613 -11.564   6.289  1.00  0.00     0.015 A 
HETATM    8  N   UNL     1      43.125  -9.106   8.601  1.00  0.00    -0.231 NA
HETATM    9  C   UNL     1      41.806  -9.211   8.350  1.00  0.00     0.129 A 
HETATM   10  C   UNL     1      41.327 -10.094   7.402  1.00  0.00     0.068 A 
ENDROOT
BRANCH   1  11
HETATM   11  C   UNL     1      41.676 -11.883   5.791  1.00  0.00     0.252 C 
HETATM   12  N   UNL     1      41.317 -13.082   6.350  1.00  0.00    -0.355 N 
HETATM   13  H   UNL     1      41.472 -13.181   7.351  1.00  0.00     0.162 HD
HETATM   14  O   UNL     1      41.598 -11.627   4.596  1.00  0.00    -0.268 OA
BRANCH  12  15
HETATM   15  C   UNL     1      41.022 -14.312   5.619  1.00  0.00     0.150 C 
BRANCH  15  16
HETATM   16  C   UNL     1      42.059 -15.459   5.658  1.00  0.00     0.255 C 
BRANCH  16  17
HETATM   17  N   UNL     1      42.345 -16.122   4.316  1.00  0.00    -0.062 N 
HETATM   18  H   UNL     1      41.709 -16.946   4.322  1.00  0.00     0.280 HD
BRANCH  17  19
HETATM   19  C   UNL     1      41.929 -15.341   3.079  1.00  0.00     0.180 C 
HETATM   20  C   UNL     1      40.879 -16.110   2.275  1.00  0.00     0.039 C 
HETATM   21  C   UNL     1      43.131 -14.960   2.225  1.00  0.00     0.039 C 
ENDBRANCH  17  19
BRANCH  17  22
HETATM   22  C   UNL     1      43.743 -16.708   4.263  1.00  0.00     0.273 C 
BRANCH  22  23
HETATM   23  C   UNL     1      43.782 -18.194   4.025  1.00  0.00    -0.033 A 
HETATM   24  C   UNL     1      44.033 -19.080   5.085  1.00  0.00     0.009 A 
HETATM   25  C   UNL     1      44.073 -20.457   4.863  1.00  0.00     0.001 A 
HETATM   26  C   UNL     1      43.864 -20.963   3.581  1.00  0.00     0.000 A 
HETATM   27  C   UNL     1      43.612 -20.095   2.522  1.00  0.00     0.001 A 
HETATM   28  C   UNL     1      43.569 -18.718   2.739  1.00  0.00     0.009 A 
ENDBRANCH  22  23
ENDBRANCH  17  22
ENDBRANCH  16  17
ENDBRANCH  15  16
ENDBRANCH  12  15
ENDBRANCH   1  11
BRANCH   9  29
HETATM   29  N   UNL     1      40.868  -8.435   9.053  1.00  0.00    -0.339 N 
HETATM   30  H   UNL     1      40.621  -7.587   8.549  1.00  0.00     0.167 HD
BRANCH  29  31
HETATM   31  C   UNL     1      40.824  -8.194  10.445  1.00  0.00     0.067 A 
HETATM   32  C   UNL     1      40.845  -6.872  10.920  1.00  0.00     0.097 A 
HETATM   33  C   UNL     1      40.673  -6.573  12.275  1.00  0.00     0.075 A 
HETATM   34  C   UNL     1      40.520  -7.612  13.191  1.00  0.00     0.070 A 
HETATM   35  C   UNL     1      40.546  -8.934  12.737  1.00  0.00     0.039 A 
HETATM   36  C   UNL     1      40.692  -9.224  11.376  1.00  0.00     0.035 A 
BRANCH  32  37
HETATM   37  O   UNL     1      41.004  -5.839  10.023  1.00  0.00    -0.354 OA
HETATM   38  C   UNL     1      39.741  -5.202   9.809  1.00  0.00     0.210 C 
ENDBRANCH  32  37
BRANCH  34  39
HETATM   39  O   UNL     1      40.342  -7.474  14.539  1.00  0.00    -0.356 OA
HETATM   40  C   UNL     1      41.194  -8.241  15.381  1.00  0.00     0.210 C 
ENDBRANCH  34  39
ENDBRANCH  29  31
ENDBRANCH   9  29
TORSDOF 11
ENDMDL
