MODEL 1
REMARK VINA RESULT:      -8.6      0.000      0.000
REMARK  6 active torsions:
REMARK  status: ('A' for Active; 'I' for Inactive)
REMARK    1  A    between atoms: N_7  and  C_8 
REMARK    2  A    between atoms: C_8  and  C_9 
REMARK    3  A    between atoms: C_9  and  N_10 
REMARK    4  A    between atoms: C_17  and  C_18 
REMARK    5  A    between atoms: C_18  and  N_19 
REMARK       I    between atoms: N_19  and  C_20 
REMARK    6  A    between atoms: C_20  and  C_21 
ROOT
HETATM    1  C   UNL     1      43.775 -20.196   2.674  1.00  0.00     0.001 A 
HETATM    2  C   UNL     1      43.484 -18.887   2.279  1.00  0.00     0.014 A 
HETATM    3  C   UNL     1      43.422 -17.866   3.233  1.00  0.00     0.008 A 
HETATM    4  C   UNL     1      43.658 -18.162   4.575  1.00  0.00     0.046 A 
HETATM    5  C   UNL     1      43.617 -17.083   5.579  1.00  0.00     0.274 A 
HETATM    6  O   UNL     1      43.884 -17.313   6.755  1.00  0.00    -0.266 OA
HETATM    7  N   UNL     1      43.268 -15.818   5.115  1.00  0.00    -0.232 N 
HETATM    8  N   UNL     1      43.054 -15.519   3.803  1.00  0.00    -0.172 NA
HETATM    9  C   UNL     1      43.117 -16.455   2.903  1.00  0.00     0.084 A 
HETATM   10  C   UNL     1      43.950 -19.474   4.969  1.00  0.00     0.018 A 
HETATM   11  C   UNL     1      44.006 -20.490   4.017  1.00  0.00     0.001 A 
ENDROOT
BRANCH   9  12
HETATM   12  C   UNL     1      42.885 -16.038   1.454  1.00  0.00     0.185 C 
BRANCH  12  13
HETATM   13  N   UNL     1      42.015 -14.881   1.415  1.00  0.00    -0.351 N 
HETATM   14  C   UNL     1      40.658 -14.992   1.204  1.00  0.00     0.253 C 
HETATM   15  O   UNL     1      40.081 -16.075   1.158  1.00  0.00    -0.268 OA
HETATM   16  H   UNL     1      42.426 -13.957   1.474  1.00  0.00     0.163 HD
BRANCH  14  17
HETATM   17  C   UNL     1      39.876 -13.721   1.106  1.00  0.00     0.048 A 
HETATM   18  C   UNL     1      39.492 -13.065  -0.077  1.00  0.00     0.022 A 
HETATM   19  I   UNL     1      39.827 -13.780  -2.028  1.00  0.00    -0.043 I 
HETATM   20  C   UNL     1      38.768 -11.863  -0.005  1.00  0.00     0.019 A 
HETATM   21  C   UNL     1      38.408 -11.320   1.228  1.00  0.00     0.001 A 
HETATM   22  C   UNL     1      38.762 -11.973   2.402  1.00  0.00     0.001 A 
HETATM   23  C   UNL     1      39.488 -13.163   2.341  1.00  0.00     0.018 A 
ENDBRANCH  14  17
ENDBRANCH  12  13
ENDBRANCH   9  12
BRANCH   7  24
HETATM   24  C   UNL     1      43.351 -14.686   6.030  1.00  0.00     0.182 C 
BRANCH  24  25
HETATM   25  C   UNL     1      43.289 -13.326   5.325  1.00  0.00     0.256 C 
BRANCH  25  26
HETATM   26  N   UNL     1      41.867 -12.959   4.932  1.00  0.00    -0.070 N 
HETATM   27  H   UNL     1      41.676 -13.379   4.012  1.00  0.00     0.279 HD
HETATM   28  C   UNL     1      41.672 -11.457   4.789  1.00  0.00     0.235 C 
HETATM   29  C   UNL     1      40.745 -11.084   5.927  1.00  0.00     0.029 C 
HETATM   30  C   UNL     1      39.848 -12.297   6.048  1.00  0.00     0.029 C 
HETATM   31  C   UNL     1      40.821 -13.451   5.918  1.00  0.00     0.235 C 
ENDBRANCH  25  26
ENDBRANCH  24  25
ENDBRANCH   7  24
TORSDOF 6
ENDMDL
MODEL 2
REMARK VINA RESULT:      -8.5      2.101      6.882
REMARK  6 active torsions:
REMARK  status: ('A' for Active; 'I' for Inactive)
REMARK    1  A    between atoms: N_7  and  C_8 
REMARK    2  A    between atoms: C_8  and  C_9 
REMARK    3  A    between atoms: C_9  and  N_10 
REMARK    4  A    between atoms: C_17  and  C_18 
REMARK    5  A    between atoms: C_18  and  N_19 
REMARK       I    between atoms: N_19  and  C_20 
REMARK    6  A    between atoms: C_20  and  C_21 
ROOT
HETATM    1  C   UNL     1      44.758 -12.240   6.855  1.00  0.00     0.001 A 
HETATM    2  C   UNL     1      43.849 -13.302   6.830  1.00  0.00     0.014 A 
HETATM    3  C   UNL     1      42.756 -13.267   5.956  1.00  0.00     0.008 A 
HETATM    4  C   UNL     1      42.587 -12.172   5.110  1.00  0.00     0.046 A 
HETATM    5  C   UNL     1      41.449 -12.145   4.171  1.00  0.00     0.274 A 
HETATM    6  O   UNL     1      41.319 -11.220   3.374  1.00  0.00    -0.266 OA
HETATM    7  N   UNL     1      40.560 -13.213   4.243  1.00  0.00    -0.232 N 
HETATM    8  N   UNL     1      40.731 -14.294   5.055  1.00  0.00    -0.172 NA
HETATM    9  C   UNL     1      41.745 -14.345   5.866  1.00  0.00     0.084 A 
HETATM   10  C   UNL     1      43.499 -11.109   5.136  1.00  0.00     0.018 A 
HETATM   11  C   UNL     1      44.582 -11.145   6.011  1.00  0.00     0.001 A 
ENDROOT
BRANCH   9  12
HETATM   12  C   UNL     1      41.879 -15.596   6.730  1.00  0.00     0.185 C 
BRANCH  12  13
HETATM   13  N   UNL     1      42.142 -16.743   5.886  1.00  0.00    -0.351 N 
HETATM   14  C   UNL     1      43.421 -17.176   5.618  1.00  0.00     0.253 C 
HETATM   15  O   UNL     1      44.411 -16.701   6.168  1.00  0.00    -0.268 OA
HETATM   16  H   UNL     1      41.365 -17.198   5.422  1.00  0.00     0.163 HD
BRANCH  14  17
HETATM   17  C   UNL     1      43.570 -18.323   4.669  1.00  0.00     0.048 A 
HETATM   18  C   UNL     1      43.420 -18.277   3.272  1.00  0.00     0.022 A 
HETATM   19  I   UNL     1      43.059 -16.537   2.144  1.00  0.00    -0.043 I 
HETATM   20  C   UNL     1      43.576 -19.450   2.514  1.00  0.00     0.019 A 
HETATM   21  C   UNL     1      43.899 -20.659   3.129  1.00  0.00     0.001 A 
HETATM   22  C   UNL     1      44.072 -20.710   4.507  1.00  0.00     0.001 A 
HETATM   23  C   UNL     1      43.911 -19.551   5.269  1.00  0.00     0.018 A 
ENDBRANCH  14  17
ENDBRANCH  12  13
ENDBRANCH   9  12
BRANCH   7  24
HETATM   24  C   UNL     1      39.502 -13.314   3.247  1.00  0.00     0.182 C 
BRANCH  24  25
HETATM   25  C   UNL     1      39.881 -14.180   2.039  1.00  0.00     0.256 C 
BRANCH  25  26
HETATM   26  N   UNL     1      39.275 -13.649   0.751  1.00  0.00    -0.070 N 
HETATM   27  H   UNL     1      38.351 -14.086   0.633  1.00  0.00     0.279 HD
HETATM   28  C   UNL     1      40.103 -14.008  -0.474  1.00  0.00     0.235 C 
HETATM   29  C   UNL     1      40.649 -12.684  -0.966  1.00  0.00     0.029 C 
HETATM   30  C   UNL     1      39.532 -11.715  -0.647  1.00  0.00     0.029 C 
HETATM   31  C   UNL     1      39.102 -12.138   0.743  1.00  0.00     0.235 C 
ENDBRANCH  25  26
ENDBRANCH  24  25
ENDBRANCH   7  24
TORSDOF 6
ENDMDL
MODEL 3
REMARK VINA RESULT:      -8.2      2.312      2.867
REMARK  6 active torsions:
REMARK  status: ('A' for Active; 'I' for Inactive)
REMARK    1  A    between atoms: N_7  and  C_8 
REMARK    2  A    between atoms: C_8  and  C_9 
REMARK    3  A    between atoms: C_9  and  N_10 
REMARK    4  A    between atoms: C_17  and  C_18 
REMARK    5  A    between atoms: C_18  and  N_19 
REMARK       I    between atoms: N_19  and  C_20 
REMARK    6  A    between atoms: C_20  and  C_21 
ROOT
HETATM    1  C   UNL     1      43.684 -18.887   2.832  1.00  0.00     0.001 A 
HETATM    2  C   UNL     1      42.893 -17.812   2.415  1.00  0.00     0.014 A 
HETATM    3  C   UNL     1      42.760 -16.683   3.231  1.00  0.00     0.008 A 
HETATM    4  C   UNL     1      43.426 -16.636   4.455  1.00  0.00     0.046 A 
HETATM    5  C   UNL     1      43.306 -15.437   5.305  1.00  0.00     0.274 A 
HETATM    6  O   UNL     1      43.935 -15.351   6.356  1.00  0.00    -0.266 OA
HETATM    7  N   UNL     1      42.460 -14.433   4.846  1.00  0.00    -0.232 N 
HETATM    8  N   UNL     1      41.821 -14.465   3.642  1.00  0.00    -0.172 NA
HETATM    9  C   UNL     1      41.942 -15.503   2.869  1.00  0.00     0.084 A 
HETATM   10  C   UNL     1      44.218 -17.714   4.871  1.00  0.00     0.018 A 
HETATM   11  C   UNL     1      44.344 -18.838   4.059  1.00  0.00     0.001 A 
ENDROOT
BRANCH   9  12
HETATM   12  C   UNL     1      41.213 -15.456   1.529  1.00  0.00     0.185 C 
BRANCH  12  13
HETATM   13  N   UNL     1      41.487 -14.196   0.870  1.00  0.00    -0.351 N 
HETATM   14  C   UNL     1      40.544 -13.196   0.784  1.00  0.00     0.253 C 
HETATM   15  O   UNL     1      39.460 -13.255   1.358  1.00  0.00    -0.268 OA
HETATM   16  H   UNL     1      42.374 -14.073   0.399  1.00  0.00     0.163 HD
BRANCH  14  17
HETATM   17  C   UNL     1      40.917 -11.971   0.011  1.00  0.00     0.048 A 
HETATM   18  C   UNL     1      40.865 -11.814  -1.385  1.00  0.00     0.022 A 
HETATM   19  I   UNL     1      40.129 -13.246  -2.742  1.00  0.00    -0.043 I 
HETATM   20  C   UNL     1      41.266 -10.600  -1.967  1.00  0.00     0.019 A 
HETATM   21  C   UNL     1      41.698  -9.537  -1.174  1.00  0.00     0.001 A 
HETATM   22  C   UNL     1      41.731  -9.674   0.208  1.00  0.00     0.001 A 
HETATM   23  C   UNL     1      41.342 -10.879   0.795  1.00  0.00     0.018 A 
ENDBRANCH  14  17
ENDBRANCH  12  13
ENDBRANCH   9  12
BRANCH   7  24
HETATM   24  C   UNL     1      42.413 -13.168   5.567  1.00  0.00     0.182 C 
BRANCH  24  25
HETATM   25  C   UNL     1      43.613 -12.257   5.281  1.00  0.00     0.256 C 
BRANCH  25  26
HETATM   26  N   UNL     1      44.613 -12.264   6.425  1.00  0.00    -0.070 N 
HETATM   27  H   UNL     1      44.961 -13.227   6.534  1.00  0.00     0.279 HD
HETATM   28  C   UNL     1      43.985 -11.860   7.750  1.00  0.00     0.235 C 
HETATM   29  C   UNL     1      44.622 -10.526   8.082  1.00  0.00     0.029 C 
HETATM   30  C   UNL     1      46.026 -10.675   7.538  1.00  0.00     0.029 C 
HETATM   31  C   UNL     1      45.800 -11.343   6.197  1.00  0.00     0.235 C 
ENDBRANCH  25  26
ENDBRANCH  24  25
ENDBRANCH   7  24
TORSDOF 6
ENDMDL
MODEL 4
REMARK VINA RESULT:      -8.2      1.761      2.315
REMARK  6 active torsions:
REMARK  status: ('A' for Active; 'I' for Inactive)
REMARK    1  A    between atoms: N_7  and  C_8 
REMARK    2  A    between atoms: C_8  and  C_9 
REMARK    3  A    between atoms: C_9  and  N_10 
REMARK    4  A    between atoms: C_17  and  C_18 
REMARK    5  A    between atoms: C_18  and  N_19 
REMARK       I    between atoms: N_19  and  C_20 
REMARK    6  A    between atoms: C_20  and  C_21 
ROOT
HETATM    1  C   UNL     1      43.962 -19.194   3.513  1.00  0.00     0.001 A 
HETATM    2  C   UNL     1      43.521 -18.055   2.832  1.00  0.00     0.014 A 
HETATM    3  C   UNL     1      43.219 -16.888   3.543  1.00  0.00     0.008 A 
HETATM    4  C   UNL     1      43.368 -16.868   4.929  1.00  0.00     0.046 A 
HETATM    5  C   UNL     1      43.074 -15.632   5.677  1.00  0.00     0.274 A 
HETATM    6  O   UNL     1      43.261 -15.576   6.890  1.00  0.00    -0.266 OA
HETATM    7  N   UNL     1      42.590 -14.559   4.936  1.00  0.00    -0.232 N 
HETATM    8  N   UNL     1      42.458 -14.566   3.579  1.00  0.00    -0.172 NA
HETATM    9  C   UNL     1      42.743 -15.640   2.904  1.00  0.00     0.084 A 
HETATM   10  C   UNL     1      43.811 -18.010   5.609  1.00  0.00     0.018 A 
HETATM   11  C   UNL     1      44.105 -19.172   4.899  1.00  0.00     0.001 A 
ENDROOT
BRANCH   9  12
HETATM   12  C   UNL     1      42.590 -15.565   1.387  1.00  0.00     0.185 C 
BRANCH  12  13
HETATM   13  N   UNL     1      41.724 -14.457   1.041  1.00  0.00    -0.351 N 
HETATM   14  C   UNL     1      40.402 -14.640   0.699  1.00  0.00     0.253 C 
HETATM   15  O   UNL     1      39.841 -15.729   0.781  1.00  0.00    -0.268 OA
HETATM   16  H   UNL     1      42.119 -13.526   0.981  1.00  0.00     0.163 HD
BRANCH  14  17
HETATM   17  C   UNL     1      39.630 -13.428   0.285  1.00  0.00     0.048 A 
HETATM   18  C   UNL     1      39.064 -13.189  -0.980  1.00  0.00     0.022 A 
HETATM   19  I   UNL     1      39.066 -14.546  -2.589  1.00  0.00    -0.043 I 
HETATM   20  C   UNL     1      38.376 -11.988  -1.221  1.00  0.00     0.019 A 
HETATM   21  C   UNL     1      38.229 -11.035  -0.214  1.00  0.00     0.001 A 
HETATM   22  C   UNL     1      38.764 -11.272   1.046  1.00  0.00     0.001 A 
HETATM   23  C   UNL     1      39.456 -12.459   1.293  1.00  0.00     0.018 A 
ENDBRANCH  14  17
ENDBRANCH  12  13
ENDBRANCH   9  12
BRANCH   7  24
HETATM   24  C   UNL     1      42.419 -13.270   5.593  1.00  0.00     0.182 C 
BRANCH  24  25
HETATM   25  C   UNL     1      43.577 -12.297   5.341  1.00  0.00     0.256 C 
BRANCH  25  26
HETATM   26  N   UNL     1      44.582 -12.308   6.481  1.00  0.00    -0.070 N 
HETATM   27  H   UNL     1      44.868 -13.284   6.641  1.00  0.00     0.279 HD
HETATM   28  C   UNL     1      43.989 -11.793   7.784  1.00  0.00     0.235 C 
HETATM   29  C   UNL     1      44.712 -10.488   8.042  1.00  0.00     0.029 C 
HETATM   30  C   UNL     1      46.100 -10.755   7.502  1.00  0.00     0.029 C 
HETATM   31  C   UNL     1      45.824 -11.478   6.200  1.00  0.00     0.235 C 
ENDBRANCH  25  26
ENDBRANCH  24  25
ENDBRANCH   7  24
TORSDOF 6
ENDMDL
MODEL 5
REMARK VINA RESULT:      -8.2      2.335      3.096
REMARK  6 active torsions:
REMARK  status: ('A' for Active; 'I' for Inactive)
REMARK    1  A    between atoms: N_7  and  C_8 
REMARK    2  A    between atoms: C_8  and  C_9 
REMARK    3  A    between atoms: C_9  and  N_10 
REMARK    4  A    between atoms: C_17  and  C_18 
REMARK    5  A    between atoms: C_18  and  N_19 
REMARK       I    between atoms: N_19  and  C_20 
REMARK    6  A    between atoms: C_20  and  C_21 
ROOT
HETATM    1  C   UNL     1      43.654 -18.624   4.742  1.00  0.00     0.001 A 
HETATM    2  C   UNL     1      43.506 -17.608   3.792  1.00  0.00     0.014 A 
HETATM    3  C   UNL     1      43.327 -16.284   4.206  1.00  0.00     0.008 A 
HETATM    4  C   UNL     1      43.305 -15.985   5.568  1.00  0.00     0.046 A 
HETATM    5  C   UNL     1      43.141 -14.587   6.006  1.00  0.00     0.274 A 
HETATM    6  O   UNL     1      43.184 -14.297   7.198  1.00  0.00    -0.266 OA
HETATM    7  N   UNL     1      42.946 -13.642   5.003  1.00  0.00    -0.232 N 
HETATM    8  N   UNL     1      42.984 -13.925   3.671  1.00  0.00    -0.172 NA
HETATM    9  C   UNL     1      43.158 -15.149   3.270  1.00  0.00     0.084 A 
HETATM   10  C   UNL     1      43.455 -17.004   6.518  1.00  0.00     0.018 A 
HETATM   11  C   UNL     1      43.628 -18.322   6.102  1.00  0.00     0.001 A 
ENDROOT
BRANCH   9  12
HETATM   12  C   UNL     1      43.208 -15.383   1.763  1.00  0.00     0.185 C 
BRANCH  12  13
HETATM   13  N   UNL     1      42.217 -14.554   1.109  1.00  0.00    -0.351 N 
HETATM   14  C   UNL     1      40.896 -14.933   1.011  1.00  0.00     0.253 C 
HETATM   15  O   UNL     1      40.449 -15.931   1.571  1.00  0.00    -0.268 OA
HETATM   16  H   UNL     1      42.516 -13.703   0.650  1.00  0.00     0.163 HD
BRANCH  14  17
HETATM   17  C   UNL     1      39.982 -14.031   0.245  1.00  0.00     0.048 A 
HETATM   18  C   UNL     1      39.475 -12.792   0.676  1.00  0.00     0.022 A 
HETATM   19  I   UNL     1      39.978 -11.835   2.482  1.00  0.00    -0.043 I 
HETATM   20  C   UNL     1      38.609 -12.065  -0.157  1.00  0.00     0.019 A 
HETATM   21  C   UNL     1      38.259 -12.547  -1.418  1.00  0.00     0.001 A 
HETATM   22  C   UNL     1      38.773 -13.759  -1.862  1.00  0.00     0.001 A 
HETATM   23  C   UNL     1      39.628 -14.493  -1.039  1.00  0.00     0.018 A 
ENDBRANCH  14  17
ENDBRANCH  12  13
ENDBRANCH   9  12
BRANCH   7  24
HETATM   24  C   UNL     1      42.923 -12.230   5.363  1.00  0.00     0.182 C 
BRANCH  24  25
HETATM   25  C   UNL     1      44.320 -11.613   5.505  1.00  0.00     0.256 C 
BRANCH  25  26
HETATM   26  N   UNL     1      44.753 -11.524   6.959  1.00  0.00    -0.070 N 
HETATM   27  H   UNL     1      44.821 -12.482   7.327  1.00  0.00     0.279 HD
HETATM   28  C   UNL     1      43.744 -10.781   7.822  1.00  0.00     0.235 C 
HETATM   29  C   UNL     1      44.454  -9.505   8.225  1.00  0.00     0.029 C 
HETATM   30  C   UNL     1      45.895  -9.946   8.360  1.00  0.00     0.029 C 
HETATM   31  C   UNL     1      46.094 -10.833   7.149  1.00  0.00     0.235 C 
ENDBRANCH  25  26
ENDBRANCH  24  25
ENDBRANCH   7  24
TORSDOF 6
ENDMDL
MODEL 6
REMARK VINA RESULT:      -8.1      3.139      6.534
REMARK  6 active torsions:
REMARK  status: ('A' for Active; 'I' for Inactive)
REMARK    1  A    between atoms: N_7  and  C_8 
REMARK    2  A    between atoms: C_8  and  C_9 
REMARK    3  A    between atoms: C_9  and  N_10 
REMARK    4  A    between atoms: C_17  and  C_18 
REMARK    5  A    between atoms: C_18  and  N_19 
REMARK       I    between atoms: N_19  and  C_20 
REMARK    6  A    between atoms: C_20  and  C_21 
ROOT
HETATM    1  C   UNL     1      39.959 -14.232   2.959  1.00  0.00     0.001 A 
HETATM    2  C   UNL     1      40.653 -14.624   4.107  1.00  0.00     0.014 A 
HETATM    3  C   UNL     1      41.698 -13.832   4.598  1.00  0.00     0.008 A 
HETATM    4  C   UNL     1      42.033 -12.651   3.938  1.00  0.00     0.046 A 
HETATM    5  C   UNL     1      43.118 -11.802   4.467  1.00  0.00     0.274 A 
HETATM    6  O   UNL     1      43.385 -10.727   3.937  1.00  0.00    -0.266 OA
HETATM    7  N   UNL     1      43.796 -12.286   5.582  1.00  0.00    -0.232 N 
HETATM    8  N   UNL     1      43.460 -13.431   6.241  1.00  0.00    -0.172 NA
HETATM    9  C   UNL     1      42.487 -14.173   5.803  1.00  0.00     0.084 A 
HETATM   10  C   UNL     1      41.336 -12.259   2.788  1.00  0.00     0.018 A 
HETATM   11  C   UNL     1      40.301 -13.053   2.300  1.00  0.00     0.001 A 
ENDROOT
BRANCH   9  12
HETATM   12  C   UNL     1      42.159 -15.428   6.606  1.00  0.00     0.185 C 
BRANCH  12  13
HETATM   13  N   UNL     1      42.341 -16.599   5.772  1.00  0.00    -0.351 N 
HETATM   14  C   UNL     1      43.589 -17.105   5.485  1.00  0.00     0.253 C 
HETATM   15  O   UNL     1      44.615 -16.678   6.009  1.00  0.00    -0.268 OA
HETATM   16  H   UNL     1      41.531 -17.017   5.330  1.00  0.00     0.163 HD
BRANCH  14  17
HETATM   17  C   UNL     1      43.655 -18.270   4.550  1.00  0.00     0.048 A 
HETATM   18  C   UNL     1      43.457 -18.238   3.158  1.00  0.00     0.022 A 
HETATM   19  I   UNL     1      43.127 -16.500   2.017  1.00  0.00    -0.043 I 
HETATM   20  C   UNL     1      43.536 -19.427   2.414  1.00  0.00     0.019 A 
HETATM   21  C   UNL     1      43.830 -20.640   3.036  1.00  0.00     0.001 A 
HETATM   22  C   UNL     1      44.052 -20.678   4.407  1.00  0.00     0.001 A 
HETATM   23  C   UNL     1      43.967 -19.504   5.156  1.00  0.00     0.018 A 
ENDBRANCH  14  17
ENDBRANCH  12  13
ENDBRANCH   9  12
BRANCH   7  24
HETATM   24  C   UNL     1      44.776 -11.429   6.235  1.00  0.00     0.182 C 
BRANCH  24  25
HETATM   25  C   UNL     1      44.562 -11.298   7.748  1.00  0.00     0.256 C 
BRANCH  25  26
HETATM   26  N   UNL     1      44.902  -9.904   8.249  1.00  0.00    -0.070 N 
HETATM   27  H   UNL     1      45.683  -9.547   7.681  1.00  0.00     0.279 HD
HETATM   28  C   UNL     1      45.361  -9.902   9.699  1.00  0.00     0.235 C 
HETATM   29  C   UNL     1      44.260  -9.179  10.446  1.00  0.00     0.029 C 
HETATM   30  C   UNL     1      43.792  -8.145   9.445  1.00  0.00     0.029 C 
HETATM   31  C   UNL     1      43.742  -8.926   8.148  1.00  0.00     0.235 C 
ENDBRANCH  25  26
ENDBRANCH  24  25
ENDBRANCH   7  24
TORSDOF 6
ENDMDL
MODEL 7
REMARK VINA RESULT:      -8.0      1.751      2.245
REMARK  6 active torsions:
REMARK  status: ('A' for Active; 'I' for Inactive)
REMARK    1  A    between atoms: N_7  and  C_8 
REMARK    2  A    between atoms: C_8  and  C_9 
REMARK    3  A    between atoms: C_9  and  N_10 
REMARK    4  A    between atoms: C_17  and  C_18 
REMARK    5  A    between atoms: C_18  and  N_19 
REMARK       I    between atoms: N_19  and  C_20 
REMARK    6  A    between atoms: C_20  and  C_21 
ROOT
HETATM    1  C   UNL     1      43.745 -18.864   2.762  1.00  0.00     0.001 A 
HETATM    2  C   UNL     1      42.749 -17.919   2.496  1.00  0.00     0.014 A 
HETATM    3  C   UNL     1      42.520 -16.872   3.396  1.00  0.00     0.008 A 
HETATM    4  C   UNL     1      43.294 -16.775   4.551  1.00  0.00     0.046 A 
HETATM    5  C   UNL     1      43.070 -15.658   5.488  1.00  0.00     0.274 A 
HETATM    6  O   UNL     1      43.784 -15.520   6.478  1.00  0.00    -0.266 OA
HETATM    7  N   UNL     1      42.027 -14.790   5.181  1.00  0.00    -0.232 N 
HETATM    8  N   UNL     1      41.279 -14.870   4.044  1.00  0.00    -0.172 NA
HETATM    9  C   UNL     1      41.485 -15.832   3.195  1.00  0.00     0.084 A 
HETATM   10  C   UNL     1      44.292 -17.722   4.816  1.00  0.00     0.018 A 
HETATM   11  C   UNL     1      44.514 -18.766   3.921  1.00  0.00     0.001 A 
ENDROOT
BRANCH   9  12
HETATM   12  C   UNL     1      40.621 -15.842   1.937  1.00  0.00     0.185 C 
BRANCH  12  13
HETATM   13  N   UNL     1      40.955 -14.702   1.109  1.00  0.00    -0.351 N 
HETATM   14  C   UNL     1      40.203 -13.548   1.115  1.00  0.00     0.253 C 
HETATM   15  O   UNL     1      39.279 -13.362   1.903  1.00  0.00    -0.268 OA
HETATM   16  H   UNL     1      41.723 -14.780   0.454  1.00  0.00     0.163 HD
BRANCH  14  17
HETATM   17  C   UNL     1      40.600 -12.468   0.159  1.00  0.00     0.048 A 
HETATM   18  C   UNL     1      40.441 -12.488  -1.238  1.00  0.00     0.022 A 
HETATM   19  I   UNL     1      39.487 -14.013  -2.332  1.00  0.00    -0.043 I 
HETATM   20  C   UNL     1      40.882 -11.397  -2.006  1.00  0.00     0.019 A 
HETATM   21  C   UNL     1      41.459 -10.283  -1.397  1.00  0.00     0.001 A 
HETATM   22  C   UNL     1      41.598 -10.244  -0.016  1.00  0.00     0.001 A 
HETATM   23  C   UNL     1      41.171 -11.326   0.755  1.00  0.00     0.018 A 
ENDBRANCH  14  17
ENDBRANCH  12  13
ENDBRANCH   9  12
BRANCH   7  24
HETATM   24  C   UNL     1      41.850 -13.590   5.987  1.00  0.00     0.182 C 
BRANCH  24  25
HETATM   25  C   UNL     1      40.584 -12.799   5.635  1.00  0.00     0.256 C 
BRANCH  25  26
HETATM   26  N   UNL     1      40.785 -11.931   4.403  1.00  0.00    -0.070 N 
HETATM   27  H   UNL     1      40.675 -12.530   3.574  1.00  0.00     0.279 HD
HETATM   28  C   UNL     1      42.179 -11.325   4.340  1.00  0.00     0.235 C 
HETATM   29  C   UNL     1      41.957  -9.839   4.533  1.00  0.00     0.029 C 
HETATM   30  C   UNL     1      40.629  -9.601   3.849  1.00  0.00     0.029 C 
HETATM   31  C   UNL     1      39.796 -10.781   4.306  1.00  0.00     0.235 C 
ENDBRANCH  25  26
ENDBRANCH  24  25
ENDBRANCH   7  24
TORSDOF 6
ENDMDL
MODEL 8
REMARK VINA RESULT:      -8.0      3.373      6.454
REMARK  6 active torsions:
REMARK  status: ('A' for Active; 'I' for Inactive)
REMARK    1  A    between atoms: N_7  and  C_8 
REMARK    2  A    between atoms: C_8  and  C_9 
REMARK    3  A    between atoms: C_9  and  N_10 
REMARK    4  A    between atoms: C_17  and  C_18 
REMARK    5  A    between atoms: C_18  and  N_19 
REMARK       I    between atoms: N_19  and  C_20 
REMARK    6  A    between atoms: C_20  and  C_21 
ROOT
HETATM    1  C   UNL     1      43.247 -17.472   6.803  1.00  0.00     0.001 A 
HETATM    2  C   UNL     1      42.555 -16.283   6.553  1.00  0.00     0.014 A 
HETATM    3  C   UNL     1      42.372 -15.844   5.237  1.00  0.00     0.008 A 
HETATM    4  C   UNL     1      42.877 -16.602   4.182  1.00  0.00     0.046 A 
HETATM    5  C   UNL     1      42.664 -16.153   2.793  1.00  0.00     0.274 A 
HETATM    6  O   UNL     1      43.046 -16.839   1.849  1.00  0.00    -0.266 OA
HETATM    7  N   UNL     1      42.014 -14.934   2.628  1.00  0.00    -0.232 N 
HETATM    8  N   UNL     1      41.502 -14.198   3.655  1.00  0.00    -0.172 NA
HETATM    9  C   UNL     1      41.656 -14.597   4.882  1.00  0.00     0.084 A 
HETATM   10  C   UNL     1      43.570 -17.793   4.434  1.00  0.00     0.018 A 
HETATM   11  C   UNL     1      43.755 -18.225   5.745  1.00  0.00     0.001 A 
ENDROOT
BRANCH   9  12
HETATM   12  C   UNL     1      41.039 -13.729   5.975  1.00  0.00     0.185 C 
BRANCH  12  13
HETATM   13  N   UNL     1      42.072 -12.933   6.605  1.00  0.00    -0.351 N 
HETATM   14  C   UNL     1      42.439 -11.697   6.122  1.00  0.00     0.253 C 
HETATM   15  O   UNL     1      41.839 -11.137   5.208  1.00  0.00    -0.268 OA
HETATM   16  H   UNL     1      42.589 -13.327   7.382  1.00  0.00     0.163 HD
BRANCH  14  17
HETATM   17  C   UNL     1      43.572 -11.004   6.809  1.00  0.00     0.048 A 
HETATM   18  C   UNL     1      43.476  -9.902   7.678  1.00  0.00     0.022 A 
HETATM   19  I   UNL     1      41.679  -9.017   8.323  1.00  0.00    -0.043 I 
HETATM   20  C   UNL     1      44.641  -9.349   8.236  1.00  0.00     0.019 A 
HETATM   21  C   UNL     1      45.894  -9.892   7.955  1.00  0.00     0.001 A 
HETATM   22  C   UNL     1      45.997 -10.996   7.118  1.00  0.00     0.001 A 
HETATM   23  C   UNL     1      44.847 -11.547   6.552  1.00  0.00     0.018 A 
ENDBRANCH  14  17
ENDBRANCH  12  13
ENDBRANCH   9  12
BRANCH   7  24
HETATM   24  C   UNL     1      41.647 -14.509   1.284  1.00  0.00     0.182 C 
BRANCH  24  25
HETATM   25  C   UNL     1      40.227 -14.923   0.879  1.00  0.00     0.256 C 
BRANCH  25  26
HETATM   26  N   UNL     1      39.608 -13.936  -0.098  1.00  0.00    -0.070 N 
HETATM   27  H   UNL     1      38.736 -13.584   0.320  1.00  0.00     0.279 HD
HETATM   28  C   UNL     1      39.243 -14.582  -1.426  1.00  0.00     0.235 C 
HETATM   29  C   UNL     1      40.193 -13.957  -2.427  1.00  0.00     0.029 C 
HETATM   30  C   UNL     1      40.357 -12.546  -1.905  1.00  0.00     0.029 C 
HETATM   31  C   UNL     1      40.508 -12.752  -0.412  1.00  0.00     0.235 C 
ENDBRANCH  25  26
ENDBRANCH  24  25
ENDBRANCH   7  24
TORSDOF 6
ENDMDL
MODEL 9
REMARK VINA RESULT:      -7.8      2.778      6.655
REMARK  6 active torsions:
REMARK  status: ('A' for Active; 'I' for Inactive)
REMARK    1  A    between atoms: N_7  and  C_8 
REMARK    2  A    between atoms: C_8  and  C_9 
REMARK    3  A    between atoms: C_9  and  N_10 
REMARK    4  A    between atoms: C_17  and  C_18 
REMARK    5  A    between atoms: C_18  and  N_19 
REMARK       I    between atoms: N_19  and  C_20 
REMARK    6  A    between atoms: C_20  and  C_21 
ROOT
HETATM    1  C   UNL     1      39.406 -14.261  -2.523  1.00  0.00     0.001 A 
HETATM    2  C   UNL     1      39.544 -14.525  -1.156  1.00  0.00     0.014 A 
HETATM    3  C   UNL     1      40.168 -13.590  -0.323  1.00  0.00     0.008 A 
HETATM    4  C   UNL     1      40.643 -12.396  -0.863  1.00  0.00     0.046 A 
HETATM    5  C   UNL     1      41.279 -11.398   0.018  1.00  0.00     0.274 A 
HETATM    6  O   UNL     1      41.646 -10.315  -0.428  1.00  0.00    -0.266 OA
HETATM    7  N   UNL     1      41.426 -11.756   1.355  1.00  0.00    -0.232 N 
HETATM    8  N   UNL     1      40.948 -12.914   1.891  1.00  0.00    -0.172 NA
HETATM    9  C   UNL     1      40.358 -13.789   1.132  1.00  0.00     0.084 A 
HETATM   10  C   UNL     1      40.503 -12.133  -2.232  1.00  0.00     0.018 A 
HETATM   11  C   UNL     1      39.886 -13.068  -3.060  1.00  0.00     0.001 A 
ENDROOT
BRANCH   9  12
HETATM   12  C   UNL     1      39.833 -15.051   1.809  1.00  0.00     0.185 C 
BRANCH  12  13
HETATM   13  N   UNL     1      40.947 -15.885   2.213  1.00  0.00    -0.351 N 
HETATM   14  C   UNL     1      41.143 -16.258   3.524  1.00  0.00     0.253 C 
HETATM   15  O   UNL     1      40.329 -16.014   4.412  1.00  0.00    -0.268 OA
HETATM   16  H   UNL     1      41.641 -16.144   1.523  1.00  0.00     0.163 HD
BRANCH  14  17
HETATM   17  C   UNL     1      42.371 -17.054   3.832  1.00  0.00     0.048 A 
HETATM   18  C   UNL     1      43.071 -17.075   5.051  1.00  0.00     0.022 A 
HETATM   19  I   UNL     1      42.488 -16.066   6.804  1.00  0.00    -0.043 I 
HETATM   20  C   UNL     1      44.224 -17.866   5.181  1.00  0.00     0.019 A 
HETATM   21  C   UNL     1      44.674 -18.650   4.119  1.00  0.00     0.001 A 
HETATM   22  C   UNL     1      43.976 -18.655   2.918  1.00  0.00     0.001 A 
HETATM   23  C   UNL     1      42.834 -17.865   2.777  1.00  0.00     0.018 A 
ENDBRANCH  14  17
ENDBRANCH  12  13
ENDBRANCH   9  12
BRANCH   7  24
HETATM   24  C   UNL     1      41.914 -10.760   2.299  1.00  0.00     0.182 C 
BRANCH  24  25
HETATM   25  C   UNL     1      42.522 -11.369   3.569  1.00  0.00     0.256 C 
BRANCH  25  26
HETATM   26  N   UNL     1      41.624 -11.167   4.778  1.00  0.00    -0.070 N 
HETATM   27  H   UNL     1      42.153 -10.631   5.479  1.00  0.00     0.279 HD
HETATM   28  C   UNL     1      41.219 -12.482   5.429  1.00  0.00     0.235 C 
HETATM   29  C   UNL     1      39.730 -12.591   5.174  1.00  0.00     0.029 C 
HETATM   30  C   UNL     1      39.268 -11.151   5.236  1.00  0.00     0.029 C 
HETATM   31  C   UNL     1      40.341 -10.416   4.459  1.00  0.00     0.235 C 
ENDBRANCH  25  26
ENDBRANCH  24  25
ENDBRANCH   7  24
TORSDOF 6
ENDMDL
MODEL 10
REMARK VINA RESULT:      -7.7      3.272      6.111
REMARK  6 active torsions:
REMARK  status: ('A' for Active; 'I' for Inactive)
REMARK    1  A    between atoms: N_7  and  C_8 
REMARK    2  A    between atoms: C_8  and  C_9 
REMARK    3  A    between atoms: C_9  and  N_10 
REMARK    4  A    between atoms: C_17  and  C_18 
REMARK    5  A    between atoms: C_18  and  N_19 
REMARK       I    between atoms: N_19  and  C_20 
REMARK    6  A    between atoms: C_20  and  C_21 
ROOT
HETATM    1  C   UNL     1      43.965 -18.553   5.337  1.00  0.00     0.001 A 
HETATM    2  C   UNL     1      43.713 -17.241   5.752  1.00  0.00     0.014 A 
HETATM    3  C   UNL     1      43.441 -16.248   4.805  1.00  0.00     0.008 A 
HETATM    4  C   UNL     1      43.416 -16.577   3.451  1.00  0.00     0.046 A 
HETATM    5  C   UNL     1      43.105 -15.536   2.453  1.00  0.00     0.274 A 
HETATM    6  O   UNL     1      43.015 -15.820   1.261  1.00  0.00    -0.266 OA
HETATM    7  N   UNL     1      42.918 -14.246   2.940  1.00  0.00    -0.232 N 
HETATM    8  N   UNL     1      42.924 -13.922   4.264  1.00  0.00    -0.172 NA
HETATM    9  C   UNL     1      43.167 -14.836   5.156  1.00  0.00     0.084 A 
HETATM   10  C   UNL     1      43.668 -17.891   3.036  1.00  0.00     0.018 A 
HETATM   11  C   UNL     1      43.944 -18.876   3.982  1.00  0.00     0.001 A 
ENDROOT
BRANCH   9  12
HETATM   12  C   UNL     1      43.137 -14.400   6.618  1.00  0.00     0.185 C 
BRANCH  12  13
HETATM   13  N   UNL     1      42.760 -13.004   6.701  1.00  0.00    -0.351 N 
HETATM   14  C   UNL     1      43.689 -12.006   6.890  1.00  0.00     0.253 C 
HETATM   15  O   UNL     1      44.900 -12.215   6.880  1.00  0.00    -0.268 OA
HETATM   16  H   UNL     1      41.777 -12.761   6.690  1.00  0.00     0.163 HD
BRANCH  14  17
HETATM   17  C   UNL     1      43.172 -10.610   7.039  1.00  0.00     0.048 A 
HETATM   18  C   UNL     1      43.539  -9.683   8.030  1.00  0.00     0.022 A 
HETATM   19  I   UNL     1      45.013  -9.996   9.501  1.00  0.00    -0.043 I 
HETATM   20  C   UNL     1      42.950  -8.408   8.047  1.00  0.00     0.019 A 
HETATM   21  C   UNL     1      42.016  -8.041   7.078  1.00  0.00     0.001 A 
HETATM   22  C   UNL     1      41.665  -8.942   6.080  1.00  0.00     0.001 A 
HETATM   23  C   UNL     1      42.239 -10.214   6.060  1.00  0.00     0.018 A 
ENDBRANCH  14  17
ENDBRANCH  12  13
ENDBRANCH   9  12
BRANCH   7  24
HETATM   24  C   UNL     1      42.468 -13.207   2.023  1.00  0.00     0.182 C 
BRANCH  24  25
HETATM   25  C   UNL     1      41.017 -13.389   1.560  1.00  0.00     0.256 C 
BRANCH  25  26
HETATM   26  N   UNL     1      40.939 -13.834   0.109  1.00  0.00    -0.070 N 
HETATM   27  H   UNL     1      41.862 -14.205  -0.157  1.00  0.00     0.279 HD
HETATM   28  C   UNL     1      40.627 -12.685  -0.837  1.00  0.00     0.235 C 
HETATM   29  C   UNL     1      39.239 -12.991  -1.363  1.00  0.00     0.029 C 
HETATM   30  C   UNL     1      39.229 -14.502  -1.437  1.00  0.00     0.029 C 
HETATM   31  C   UNL     1      39.893 -14.910  -0.138  1.00  0.00     0.235 C 
ENDBRANCH  25  26
ENDBRANCH  24  25
ENDBRANCH   7  24
TORSDOF 6
ENDMDL
