MODEL 1
REMARK VINA RESULT:      -8.2      0.000      0.000
REMARK  6 active torsions:
REMARK  status: ('A' for Active; 'I' for Inactive)
REMARK    1  A    between atoms: C_2  and  C_3 
REMARK    2  A    between atoms: C_3  and  C_4 
REMARK    3  A    between atoms: C_3  and  C_10 
REMARK    4  A    between atoms: C_10  and  C_11 
REMARK       I    between atoms: C_11  and  N_12 
REMARK    5  A    between atoms: N_12  and  C_13 
REMARK    6  A    between atoms: C_15  and  C_16 
ROOT
HETATM    1  C   UNL     1      41.901 -15.161   2.950  1.00  0.00     0.223 C 
HETATM    2  N   UNL     1      41.971 -14.105   2.066  1.00  0.00    -0.327 N 
HETATM    3  O   UNL     1      40.865 -15.717   3.309  1.00  0.00    -0.273 OA
HETATM    4  H   UNL     1      42.877 -13.683   1.924  1.00  0.00     0.169 HD
ENDROOT
BRANCH   2   5
HETATM    5  C   UNL     1      40.909 -13.451   1.405  1.00  0.00     0.035 A 
HETATM    6  C   UNL     1      40.382 -13.856   0.175  1.00  0.00     0.042 A 
HETATM    7  C   UNL     1      39.330 -13.147  -0.431  1.00  0.00    -0.021 A 
HETATM    8  C   UNL     1      38.804 -12.026   0.226  1.00  0.00     0.012 A 
HETATM    9  C   UNL     1      39.325 -11.613   1.452  1.00  0.00     0.003 A 
HETATM   10  C   UNL     1      40.378 -12.320   2.033  1.00  0.00     0.029 A 
BRANCH   7  11
HETATM   11  C   UNL     1      38.805 -13.579  -1.716  1.00  0.00     0.010 A 
HETATM   12  C   UNL     1      39.335 -14.472  -2.680  1.00  0.00     0.152 A 
HETATM   13  N   UNL     1      38.552 -14.597  -3.757  1.00  0.00    -0.187 NA
HETATM   14  N   UNL     1      37.524 -13.777  -3.493  1.00  0.00    -0.289 N 
HETATM   15  H   UNL     1      36.788 -13.693  -4.185  1.00  0.00     0.188 HD
HETATM   16  C   UNL     1      37.626 -13.146  -2.287  1.00  0.00     0.123 A 
ENDBRANCH   7  11
ENDBRANCH   2   5
BRANCH   1  17
HETATM   17  C   UNL     1      43.243 -15.720   3.425  1.00  0.00     0.116 C 
BRANCH  17  18
HETATM   18  C   UNL     1      43.249 -16.861   4.465  1.00  0.00     0.049 C 
BRANCH  18  19
HETATM   19  C   UNL     1      44.049 -16.416   5.682  1.00  0.00    -0.027 C 
HETATM   20  C   UNL     1      43.966 -15.256   6.348  1.00  0.00     0.007 C 
ENDBRANCH  18  19
BRANCH  18  21
HETATM   21  C   UNL     1      43.509 -18.284   3.950  1.00  0.00    -0.050 A 
HETATM   22  C   UNL     1      43.891 -19.309   4.835  1.00  0.00     0.008 A 
HETATM   23  C   UNL     1      44.112 -20.616   4.388  1.00  0.00     0.001 A 
HETATM   24  C   UNL     1      43.924 -20.936   3.049  1.00  0.00     0.000 A 
HETATM   25  C   UNL     1      43.499 -19.954   2.162  1.00  0.00     0.001 A 
HETATM   26  C   UNL     1      43.281 -18.647   2.610  1.00  0.00     0.008 A 
ENDBRANCH  18  21
ENDBRANCH  17  18
ENDBRANCH   1  17
TORSDOF 6
ENDMDL
MODEL 2
REMARK VINA RESULT:      -8.2      1.392      3.129
REMARK  6 active torsions:
REMARK  status: ('A' for Active; 'I' for Inactive)
REMARK    1  A    between atoms: C_2  and  C_3 
REMARK    2  A    between atoms: C_3  and  C_4 
REMARK    3  A    between atoms: C_3  and  C_10 
REMARK    4  A    between atoms: C_10  and  C_11 
REMARK       I    between atoms: C_11  and  N_12 
REMARK    5  A    between atoms: N_12  and  C_13 
REMARK    6  A    between atoms: C_15  and  C_16 
ROOT
HETATM    1  C   UNL     1      42.683 -16.721   2.120  1.00  0.00     0.223 C 
HETATM    2  N   UNL     1      41.351 -16.367   2.129  1.00  0.00    -0.327 N 
HETATM    3  O   UNL     1      43.593 -16.045   1.642  1.00  0.00    -0.273 OA
HETATM    4  H   UNL     1      40.694 -17.053   2.474  1.00  0.00     0.169 HD
ENDROOT
BRANCH   2   5
HETATM    5  C   UNL     1      40.756 -15.197   1.609  1.00  0.00     0.035 A 
HETATM    6  C   UNL     1      40.241 -15.087   0.314  1.00  0.00     0.042 A 
HETATM    7  C   UNL     1      39.674 -13.883  -0.139  1.00  0.00    -0.021 A 
HETATM    8  C   UNL     1      39.618 -12.790   0.735  1.00  0.00     0.012 A 
HETATM    9  C   UNL     1      40.131 -12.890   2.028  1.00  0.00     0.003 A 
HETATM   10  C   UNL     1      40.704 -14.086   2.458  1.00  0.00     0.029 A 
BRANCH   7  11
HETATM   11  C   UNL     1      39.155 -13.788  -1.495  1.00  0.00     0.010 A 
HETATM   12  C   UNL     1      39.093 -14.750  -2.533  1.00  0.00     0.152 A 
HETATM   13  N   UNL     1      38.554 -14.266  -3.657  1.00  0.00    -0.187 NA
HETATM   14  N   UNL     1      38.279 -12.990  -3.348  1.00  0.00    -0.289 N 
HETATM   15  H   UNL     1      37.864 -12.403  -4.063  1.00  0.00     0.188 HD
HETATM   16  C   UNL     1      38.618 -12.654  -2.069  1.00  0.00     0.123 A 
ENDBRANCH   7  11
ENDBRANCH   2   5
BRANCH   1  17
HETATM   17  C   UNL     1      43.032 -18.014   2.857  1.00  0.00     0.116 C 
BRANCH  17  18
HETATM   18  C   UNL     1      43.951 -17.941   4.097  1.00  0.00     0.049 C 
BRANCH  18  19
HETATM   19  C   UNL     1      44.431 -19.345   4.440  1.00  0.00    -0.027 C 
HETATM   20  C   UNL     1      43.986 -20.158   5.408  1.00  0.00     0.007 C 
ENDBRANCH  18  19
BRANCH  18  21
HETATM   21  C   UNL     1      43.486 -17.065   5.268  1.00  0.00    -0.050 A 
HETATM   22  C   UNL     1      42.117 -16.935   5.569  1.00  0.00     0.008 A 
HETATM   23  C   UNL     1      41.676 -16.158   6.645  1.00  0.00     0.001 A 
HETATM   24  C   UNL     1      42.597 -15.518   7.467  1.00  0.00     0.000 A 
HETATM   25  C   UNL     1      43.956 -15.670   7.223  1.00  0.00     0.001 A 
HETATM   26  C   UNL     1      44.396 -16.445   6.145  1.00  0.00     0.008 A 
ENDBRANCH  18  21
ENDBRANCH  17  18
ENDBRANCH   1  17
TORSDOF 6
ENDMDL
MODEL 3
REMARK VINA RESULT:      -8.2      4.057      7.172
REMARK  6 active torsions:
REMARK  status: ('A' for Active; 'I' for Inactive)
REMARK    1  A    between atoms: C_2  and  C_3 
REMARK    2  A    between atoms: C_3  and  C_4 
REMARK    3  A    between atoms: C_3  and  C_10 
REMARK    4  A    between atoms: C_10  and  C_11 
REMARK       I    between atoms: C_11  and  N_12 
REMARK    5  A    between atoms: N_12  and  C_13 
REMARK    6  A    between atoms: C_15  and  C_16 
ROOT
HETATM    1  C   UNL     1      42.167 -15.133   5.228  1.00  0.00     0.223 C 
HETATM    2  N   UNL     1      42.208 -13.838   4.756  1.00  0.00    -0.327 N 
HETATM    3  O   UNL     1      42.182 -15.456   6.414  1.00  0.00    -0.273 OA
HETATM    4  H   UNL     1      42.279 -13.714   3.756  1.00  0.00     0.169 HD
ENDROOT
BRANCH   2   5
HETATM    5  C   UNL     1      42.276 -12.641   5.501  1.00  0.00     0.035 A 
HETATM    6  C   UNL     1      43.463 -12.087   5.990  1.00  0.00     0.042 A 
HETATM    7  C   UNL     1      43.452 -10.896   6.736  1.00  0.00    -0.021 A 
HETATM    8  C   UNL     1      42.228 -10.258   6.975  1.00  0.00     0.012 A 
HETATM    9  C   UNL     1      41.038 -10.805   6.493  1.00  0.00     0.003 A 
HETATM   10  C   UNL     1      41.064 -11.994   5.766  1.00  0.00     0.029 A 
BRANCH   7  11
HETATM   11  C   UNL     1      44.698 -10.344   7.245  1.00  0.00     0.010 A 
HETATM   12  C   UNL     1      44.941  -9.242   8.101  1.00  0.00     0.152 A 
HETATM   13  N   UNL     1      46.243  -9.038   8.326  1.00  0.00    -0.187 NA
HETATM   14  N   UNL     1      46.840 -10.000   7.606  1.00  0.00    -0.289 N 
HETATM   15  H   UNL     1      47.853 -10.043   7.610  1.00  0.00     0.188 HD
HETATM   16  C   UNL     1      45.962 -10.807   6.942  1.00  0.00     0.123 A 
ENDBRANCH   7  11
ENDBRANCH   2   5
BRANCH   1  17
HETATM   17  C   UNL     1      41.991 -16.221   4.168  1.00  0.00     0.116 C 
BRANCH  17  18
HETATM   18  C   UNL     1      43.236 -16.730   3.408  1.00  0.00     0.049 C 
BRANCH  18  19
HETATM   19  C   UNL     1      43.283 -16.068   2.037  1.00  0.00    -0.027 C 
HETATM   20  C   UNL     1      42.311 -15.389   1.412  1.00  0.00     0.007 C 
ENDBRANCH  18  19
BRANCH  18  21
HETATM   21  C   UNL     1      43.525 -18.236   3.458  1.00  0.00    -0.050 A 
HETATM   22  C   UNL     1      43.941 -18.849   4.655  1.00  0.00     0.008 A 
HETATM   23  C   UNL     1      44.189 -20.223   4.725  1.00  0.00     0.001 A 
HETATM   24  C   UNL     1      43.996 -21.025   3.606  1.00  0.00     0.000 A 
HETATM   25  C   UNL     1      43.538 -20.454   2.424  1.00  0.00     0.001 A 
HETATM   26  C   UNL     1      43.293 -19.079   2.355  1.00  0.00     0.008 A 
ENDBRANCH  18  21
ENDBRANCH  17  18
ENDBRANCH   1  17
TORSDOF 6
ENDMDL
MODEL 4
REMARK VINA RESULT:      -8.0      2.659      8.877
REMARK  6 active torsions:
REMARK  status: ('A' for Active; 'I' for Inactive)
REMARK    1  A    between atoms: C_2  and  C_3 
REMARK    2  A    between atoms: C_3  and  C_4 
REMARK    3  A    between atoms: C_3  and  C_10 
REMARK    4  A    between atoms: C_10  and  C_11 
REMARK       I    between atoms: C_11  and  N_12 
REMARK    5  A    between atoms: N_12  and  C_13 
REMARK    6  A    between atoms: C_15  and  C_16 
ROOT
HETATM    1  C   UNL     1      40.833 -14.547   0.709  1.00  0.00     0.223 C 
HETATM    2  N   UNL     1      42.139 -14.869   1.015  1.00  0.00    -0.327 N 
HETATM    3  O   UNL     1      39.853 -14.842   1.390  1.00  0.00    -0.273 OA
HETATM    4  H   UNL     1      42.842 -14.644   0.325  1.00  0.00     0.169 HD
ENDROOT
BRANCH   2   5
HETATM    5  C   UNL     1      42.621 -15.583   2.132  1.00  0.00     0.035 A 
HETATM    6  C   UNL     1      42.902 -16.953   2.127  1.00  0.00     0.042 A 
HETATM    7  C   UNL     1      43.370 -17.600   3.284  1.00  0.00    -0.021 A 
HETATM    8  C   UNL     1      43.565 -16.846   4.449  1.00  0.00     0.012 A 
HETATM    9  C   UNL     1      43.286 -15.480   4.464  1.00  0.00     0.003 A 
HETATM   10  C   UNL     1      42.809 -14.855   3.312  1.00  0.00     0.029 A 
BRANCH   7  11
HETATM   11  C   UNL     1      43.644 -19.028   3.259  1.00  0.00     0.010 A 
HETATM   12  C   UNL     1      43.557 -19.970   2.204  1.00  0.00     0.152 A 
HETATM   13  N   UNL     1      43.879 -21.210   2.588  1.00  0.00    -0.187 NA
HETATM   14  N   UNL     1      44.161 -21.070   3.892  1.00  0.00    -0.289 N 
HETATM   15  H   UNL     1      44.428 -21.897   4.416  1.00  0.00     0.188 HD
HETATM   16  C   UNL     1      44.037 -19.787   4.342  1.00  0.00     0.123 A 
ENDBRANCH   7  11
ENDBRANCH   2   5
BRANCH   1  17
HETATM   17  C   UNL     1      40.637 -13.671  -0.529  1.00  0.00     0.116 C 
BRANCH  17  18
HETATM   18  C   UNL     1      39.259 -13.663  -1.225  1.00  0.00     0.049 C 
BRANCH  18  19
HETATM   19  C   UNL     1      39.083 -14.969  -1.989  1.00  0.00    -0.027 C 
HETATM   20  C   UNL     1      38.367 -15.188  -3.100  1.00  0.00     0.007 C 
ENDBRANCH  18  19
BRANCH  18  21
HETATM   21  C   UNL     1      38.845 -12.376  -1.954  1.00  0.00    -0.050 A 
HETATM   22  C   UNL     1      37.524 -11.896  -1.869  1.00  0.00     0.008 A 
HETATM   23  C   UNL     1      37.134 -10.715  -2.508  1.00  0.00     0.001 A 
HETATM   24  C   UNL     1      38.063  -9.967  -3.221  1.00  0.00     0.000 A 
HETATM   25  C   UNL     1      39.385 -10.392  -3.280  1.00  0.00     0.001 A 
HETATM   26  C   UNL     1      39.774 -11.575  -2.643  1.00  0.00     0.008 A 
ENDBRANCH  18  21
ENDBRANCH  17  18
ENDBRANCH   1  17
TORSDOF 6
ENDMDL
MODEL 5
REMARK VINA RESULT:      -8.0      2.166      3.198
REMARK  6 active torsions:
REMARK  status: ('A' for Active; 'I' for Inactive)
REMARK    1  A    between atoms: C_2  and  C_3 
REMARK    2  A    between atoms: C_3  and  C_4 
REMARK    3  A    between atoms: C_3  and  C_10 
REMARK    4  A    between atoms: C_10  and  C_11 
REMARK       I    between atoms: C_11  and  N_12 
REMARK    5  A    between atoms: N_12  and  C_13 
REMARK    6  A    between atoms: C_15  and  C_16 
ROOT
HETATM    1  C   UNL     1      41.161 -15.405   1.184  1.00  0.00     0.223 C 
HETATM    2  N   UNL     1      41.189 -14.415   0.224  1.00  0.00    -0.327 N 
HETATM    3  O   UNL     1      40.147 -15.976   1.583  1.00  0.00    -0.273 OA
HETATM    4  H   UNL     1      42.078 -13.967   0.052  1.00  0.00     0.169 HD
ENDROOT
BRANCH   2   5
HETATM    5  C   UNL     1      40.104 -13.857  -0.485  1.00  0.00     0.035 A 
HETATM    6  C   UNL     1      39.318 -12.801  -0.015  1.00  0.00     0.042 A 
HETATM    7  C   UNL     1      38.244 -12.305  -0.773  1.00  0.00    -0.021 A 
HETATM    8  C   UNL     1      37.976 -12.878  -2.023  1.00  0.00     0.012 A 
HETATM    9  C   UNL     1      38.754 -13.933  -2.500  1.00  0.00     0.003 A 
HETATM   10  C   UNL     1      39.808 -14.424  -1.730  1.00  0.00     0.029 A 
BRANCH   7  11
HETATM   11  C   UNL     1      37.432 -11.214  -0.258  1.00  0.00     0.010 A 
HETATM   12  C   UNL     1      36.867 -10.091  -0.912  1.00  0.00     0.152 A 
HETATM   13  N   UNL     1      36.191  -9.292  -0.079  1.00  0.00    -0.187 NA
HETATM   14  N   UNL     1      36.330  -9.893   1.112  1.00  0.00    -0.289 N 
HETATM   15  H   UNL     1      35.902  -9.456   1.922  1.00  0.00     0.188 HD
HETATM   16  C   UNL     1      37.061 -11.044   1.060  1.00  0.00     0.123 A 
ENDBRANCH   7  11
ENDBRANCH   2   5
BRANCH   1  17
HETATM   17  C   UNL     1      42.523 -15.870   1.700  1.00  0.00     0.116 C 
BRANCH  17  18
HETATM   18  C   UNL     1      42.609 -16.512   3.102  1.00  0.00     0.049 C 
BRANCH  18  19
HETATM   19  C   UNL     1      43.280 -15.531   4.054  1.00  0.00    -0.027 C 
HETATM   20  C   UNL     1      42.859 -14.312   4.418  1.00  0.00     0.007 C 
ENDBRANCH  18  19
BRANCH  18  21
HETATM   21  C   UNL     1      43.069 -17.975   3.180  1.00  0.00    -0.050 A 
HETATM   22  C   UNL     1      42.885 -18.845   2.090  1.00  0.00     0.008 A 
HETATM   23  C   UNL     1      43.316 -20.175   2.135  1.00  0.00     0.001 A 
HETATM   24  C   UNL     1      43.972 -20.657   3.262  1.00  0.00     0.000 A 
HETATM   25  C   UNL     1      44.211 -19.806   4.334  1.00  0.00     0.001 A 
HETATM   26  C   UNL     1      43.777 -18.477   4.288  1.00  0.00     0.008 A 
ENDBRANCH  18  21
ENDBRANCH  17  18
ENDBRANCH   1  17
TORSDOF 6
ENDMDL
MODEL 6
REMARK VINA RESULT:      -8.0      4.968      8.802
REMARK  6 active torsions:
REMARK  status: ('A' for Active; 'I' for Inactive)
REMARK    1  A    between atoms: C_2  and  C_3 
REMARK    2  A    between atoms: C_3  and  C_4 
REMARK    3  A    between atoms: C_3  and  C_10 
REMARK    4  A    between atoms: C_10  and  C_11 
REMARK       I    between atoms: C_11  and  N_12 
REMARK    5  A    between atoms: N_12  and  C_13 
REMARK    6  A    between atoms: C_15  and  C_16 
ROOT
HETATM    1  C   UNL     1      43.266 -14.071   6.248  1.00  0.00     0.223 C 
HETATM    2  N   UNL     1      43.650 -12.767   6.019  1.00  0.00    -0.327 N 
HETATM    3  O   UNL     1      43.478 -14.701   7.283  1.00  0.00    -0.273 OA
HETATM    4  H   UNL     1      43.492 -12.396   5.093  1.00  0.00     0.169 HD
ENDROOT
BRANCH   2   5
HETATM    5  C   UNL     1      44.347 -11.898   6.886  1.00  0.00     0.035 A 
HETATM    6  C   UNL     1      43.815 -11.376   8.070  1.00  0.00     0.042 A 
HETATM    7  C   UNL     1      44.567 -10.506   8.878  1.00  0.00    -0.021 A 
HETATM    8  C   UNL     1      45.871 -10.175   8.487  1.00  0.00     0.012 A 
HETATM    9  C   UNL     1      46.409 -10.689   7.307  1.00  0.00     0.003 A 
HETATM   10  C   UNL     1      45.646 -11.541   6.509  1.00  0.00     0.029 A 
BRANCH   7  11
HETATM   11  C   UNL     1      43.989  -9.965  10.098  1.00  0.00     0.010 A 
HETATM   12  C   UNL     1      43.663  -8.634  10.458  1.00  0.00     0.152 A 
HETATM   13  N   UNL     1      43.159  -8.539  11.693  1.00  0.00    -0.187 NA
HETATM   14  N   UNL     1      43.171  -9.806  12.134  1.00  0.00    -0.289 N 
HETATM   15  H   UNL     1      42.836  -9.990  13.073  1.00  0.00     0.188 HD
HETATM   16  C   UNL     1      43.656 -10.697  11.219  1.00  0.00     0.123 A 
ENDBRANCH   7  11
ENDBRANCH   2   5
BRANCH   1  17
HETATM   17  C   UNL     1      42.429 -14.721   5.146  1.00  0.00     0.116 C 
BRANCH  17  18
HETATM   18  C   UNL     1      43.129 -15.171   3.845  1.00  0.00     0.049 C 
BRANCH  18  19
HETATM   19  C   UNL     1      42.526 -14.411   2.671  1.00  0.00    -0.027 C 
HETATM   20  C   UNL     1      42.526 -13.088   2.454  1.00  0.00     0.007 C 
ENDBRANCH  18  19
BRANCH  18  21
HETATM   21  C   UNL     1      43.355 -16.677   3.651  1.00  0.00    -0.050 A 
HETATM   22  C   UNL     1      42.925 -17.321   2.476  1.00  0.00     0.008 A 
HETATM   23  C   UNL     1      43.141 -18.688   2.272  1.00  0.00     0.001 A 
HETATM   24  C   UNL     1      43.822 -19.437   3.224  1.00  0.00     0.000 A 
HETATM   25  C   UNL     1      44.301 -18.815   4.372  1.00  0.00     0.001 A 
HETATM   26  C   UNL     1      44.082 -17.449   4.576  1.00  0.00     0.008 A 
ENDBRANCH  18  21
ENDBRANCH  17  18
ENDBRANCH   1  17
TORSDOF 6
ENDMDL
MODEL 7
REMARK VINA RESULT:      -7.9      5.100      8.656
REMARK  6 active torsions:
REMARK  status: ('A' for Active; 'I' for Inactive)
REMARK    1  A    between atoms: C_2  and  C_3 
REMARK    2  A    between atoms: C_3  and  C_4 
REMARK    3  A    between atoms: C_3  and  C_10 
REMARK    4  A    between atoms: C_10  and  C_11 
REMARK       I    between atoms: C_11  and  N_12 
REMARK    5  A    between atoms: N_12  and  C_13 
REMARK    6  A    between atoms: C_15  and  C_16 
ROOT
HETATM    1  C   UNL     1      42.978 -12.751   5.211  1.00  0.00     0.223 C 
HETATM    2  N   UNL     1      44.139 -12.769   5.955  1.00  0.00    -0.327 N 
HETATM    3  O   UNL     1      42.088 -11.908   5.307  1.00  0.00    -0.273 OA
HETATM    4  H   UNL     1      44.747 -13.568   5.840  1.00  0.00     0.169 HD
ENDROOT
BRANCH   2   5
HETATM    5  C   UNL     1      44.548 -11.860   6.955  1.00  0.00     0.035 A 
HETATM    6  C   UNL     1      43.820 -11.593   8.118  1.00  0.00     0.042 A 
HETATM    7  C   UNL     1      44.285 -10.665   9.066  1.00  0.00    -0.021 A 
HETATM    8  C   UNL     1      45.504 -10.014   8.833  1.00  0.00     0.012 A 
HETATM    9  C   UNL     1      46.236 -10.272   7.674  1.00  0.00     0.003 A 
HETATM   10  C   UNL     1      45.754 -11.186   6.737  1.00  0.00     0.029 A 
BRANCH   7  11
HETATM   11  C   UNL     1      43.506 -10.393  10.263  1.00  0.00     0.010 A 
HETATM   12  C   UNL     1      42.398  -9.535  10.473  1.00  0.00     0.152 A 
HETATM   13  N   UNL     1      41.964  -9.549  11.737  1.00  0.00    -0.187 NA
HETATM   14  N   UNL     1      42.798 -10.405  12.345  1.00  0.00    -0.289 N 
HETATM   15  H   UNL     1      42.671 -10.576  13.337  1.00  0.00     0.188 HD
HETATM   16  C   UNL     1      43.736 -10.939  11.509  1.00  0.00     0.123 A 
ENDBRANCH   7  11
ENDBRANCH   2   5
BRANCH   1  17
HETATM   17  C   UNL     1      42.868 -13.823   4.126  1.00  0.00     0.116 C 
BRANCH  17  18
HETATM   18  C   UNL     1      42.162 -15.155   4.463  1.00  0.00     0.049 C 
BRANCH  18  19
HETATM   19  C   UNL     1      41.709 -15.121   5.916  1.00  0.00    -0.027 C 
HETATM   20  C   UNL     1      40.671 -15.759   6.474  1.00  0.00     0.007 C 
ENDBRANCH  18  19
BRANCH  18  21
HETATM   21  C   UNL     1      42.832 -16.449   3.978  1.00  0.00    -0.050 A 
HETATM   22  C   UNL     1      43.771 -17.118   4.785  1.00  0.00     0.008 A 
HETATM   23  C   UNL     1      44.375 -18.308   4.369  1.00  0.00     0.001 A 
HETATM   24  C   UNL     1      44.029 -18.877   3.149  1.00  0.00     0.000 A 
HETATM   25  C   UNL     1      43.068 -18.264   2.354  1.00  0.00     0.001 A 
HETATM   26  C   UNL     1      42.467 -17.072   2.770  1.00  0.00     0.008 A 
ENDBRANCH  18  21
ENDBRANCH  17  18
ENDBRANCH   1  17
TORSDOF 6
ENDMDL
MODEL 8
REMARK VINA RESULT:      -7.6      2.564      8.028
REMARK  6 active torsions:
REMARK  status: ('A' for Active; 'I' for Inactive)
REMARK    1  A    between atoms: C_2  and  C_3 
REMARK    2  A    between atoms: C_3  and  C_4 
REMARK    3  A    between atoms: C_3  and  C_10 
REMARK    4  A    between atoms: C_10  and  C_11 
REMARK       I    between atoms: C_11  and  N_12 
REMARK    5  A    between atoms: N_12  and  C_13 
REMARK    6  A    between atoms: C_15  and  C_16 
ROOT
HETATM    1  C   UNL     1      40.658 -14.997   0.586  1.00  0.00     0.223 C 
HETATM    2  N   UNL     1      41.971 -15.020   1.003  1.00  0.00    -0.327 N 
HETATM    3  O   UNL     1      39.727 -15.578   1.142  1.00  0.00    -0.273 OA
HETATM    4  H   UNL     1      42.653 -14.573   0.406  1.00  0.00     0.169 HD
ENDROOT
BRANCH   2   5
HETATM    5  C   UNL     1      42.520 -15.691   2.117  1.00  0.00     0.035 A 
HETATM    6  C   UNL     1      42.830 -17.054   2.139  1.00  0.00     0.042 A 
HETATM    7  C   UNL     1      43.364 -17.657   3.291  1.00  0.00    -0.021 A 
HETATM    8  C   UNL     1      43.596 -16.865   4.424  1.00  0.00     0.012 A 
HETATM    9  C   UNL     1      43.287 -15.505   4.412  1.00  0.00     0.003 A 
HETATM   10  C   UNL     1      42.745 -14.924   3.266  1.00  0.00     0.029 A 
BRANCH   7  11
HETATM   11  C   UNL     1      43.668 -19.079   3.295  1.00  0.00     0.010 A 
HETATM   12  C   UNL     1      43.579 -20.048   2.265  1.00  0.00     0.152 A 
HETATM   13  N   UNL     1      43.936 -21.271   2.671  1.00  0.00    -0.187 NA
HETATM   14  N   UNL     1      44.243 -21.094   3.965  1.00  0.00    -0.289 N 
HETATM   15  H   UNL     1      44.538 -21.901   4.503  1.00  0.00     0.188 HD
HETATM   16  C   UNL     1      44.101 -19.803   4.387  1.00  0.00     0.123 A 
ENDBRANCH   7  11
ENDBRANCH   2   5
BRANCH   1  17
HETATM   17  C   UNL     1      40.356 -14.091  -0.608  1.00  0.00     0.116 C 
BRANCH  17  18
HETATM   18  C   UNL     1      39.765 -12.688  -0.348  1.00  0.00     0.049 C 
BRANCH  18  19
HETATM   19  C   UNL     1      39.953 -11.833  -1.595  1.00  0.00    -0.027 C 
HETATM   20  C   UNL     1      39.497 -10.594  -1.825  1.00  0.00     0.007 C 
ENDBRANCH  18  19
BRANCH  18  21
HETATM   21  C   UNL     1      40.089 -12.025   0.998  1.00  0.00    -0.050 A 
HETATM   22  C   UNL     1      39.161 -12.058   2.056  1.00  0.00     0.008 A 
HETATM   23  C   UNL     1      39.446 -11.478   3.296  1.00  0.00     0.001 A 
HETATM   24  C   UNL     1      40.681 -10.880   3.520  1.00  0.00     0.000 A 
HETATM   25  C   UNL     1      41.634 -10.877   2.509  1.00  0.00     0.001 A 
HETATM   26  C   UNL     1      41.347 -11.455   1.268  1.00  0.00     0.008 A 
ENDBRANCH  18  21
ENDBRANCH  17  18
ENDBRANCH   1  17
TORSDOF 6
ENDMDL
MODEL 9
REMARK VINA RESULT:      -7.6      1.514      1.915
REMARK  6 active torsions:
REMARK  status: ('A' for Active; 'I' for Inactive)
REMARK    1  A    between atoms: C_2  and  C_3 
REMARK    2  A    between atoms: C_3  and  C_4 
REMARK    3  A    between atoms: C_3  and  C_10 
REMARK    4  A    between atoms: C_10  and  C_11 
REMARK       I    between atoms: C_11  and  N_12 
REMARK    5  A    between atoms: N_12  and  C_13 
REMARK    6  A    between atoms: C_15  and  C_16 
ROOT
HETATM    1  C   UNL     1      41.955 -13.539   4.001  1.00  0.00     0.223 C 
HETATM    2  N   UNL     1      42.278 -13.524   2.661  1.00  0.00    -0.327 N 
HETATM    3  O   UNL     1      41.043 -12.895   4.517  1.00  0.00    -0.273 OA
HETATM    4  H   UNL     1      43.107 -14.030   2.382  1.00  0.00     0.169 HD
ENDROOT
BRANCH   2   5
HETATM    5  C   UNL     1      41.660 -12.794   1.623  1.00  0.00     0.035 A 
HETATM    6  C   UNL     1      40.941 -13.375   0.574  1.00  0.00     0.042 A 
HETATM    7  C   UNL     1      40.362 -12.583  -0.432  1.00  0.00    -0.021 A 
HETATM    8  C   UNL     1      40.505 -11.191  -0.363  1.00  0.00     0.012 A 
HETATM    9  C   UNL     1      41.222 -10.602   0.678  1.00  0.00     0.003 A 
HETATM   10  C   UNL     1      41.802 -11.402   1.662  1.00  0.00     0.029 A 
BRANCH   7  11
HETATM   11  C   UNL     1      39.629 -13.210  -1.520  1.00  0.00     0.010 A 
HETATM   12  C   UNL     1      39.245 -14.558  -1.723  1.00  0.00     0.152 A 
HETATM   13  N   UNL     1      38.588 -14.743  -2.873  1.00  0.00    -0.187 NA
HETATM   14  N   UNL     1      38.559 -13.518  -3.418  1.00  0.00    -0.289 N 
HETATM   15  H   UNL     1      38.112 -13.405  -4.321  1.00  0.00     0.188 HD
HETATM   16  C   UNL     1      39.166 -12.566  -2.650  1.00  0.00     0.123 A 
ENDBRANCH   7  11
ENDBRANCH   2   5
BRANCH   1  17
HETATM   17  C   UNL     1      42.752 -14.516   4.866  1.00  0.00     0.116 C 
BRANCH  17  18
HETATM   18  C   UNL     1      42.182 -15.931   5.110  1.00  0.00     0.049 C 
BRANCH  18  19
HETATM   19  C   UNL     1      42.001 -16.141   6.607  1.00  0.00    -0.027 C 
HETATM   20  C   UNL     1      42.709 -15.602   7.609  1.00  0.00     0.007 C 
ENDBRANCH  18  19
BRANCH  18  21
HETATM   21  C   UNL     1      42.810 -17.089   4.321  1.00  0.00    -0.050 A 
HETATM   22  C   UNL     1      42.548 -17.248   2.947  1.00  0.00     0.008 A 
HETATM   23  C   UNL     1      43.127 -18.284   2.208  1.00  0.00     0.001 A 
HETATM   24  C   UNL     1      44.010 -19.168   2.818  1.00  0.00     0.000 A 
HETATM   25  C   UNL     1      44.326 -19.004   4.162  1.00  0.00     0.001 A 
HETATM   26  C   UNL     1      43.743 -17.969   4.901  1.00  0.00     0.008 A 
ENDBRANCH  18  21
ENDBRANCH  17  18
ENDBRANCH   1  17
TORSDOF 6
ENDMDL
MODEL 10
REMARK VINA RESULT:      -7.5      5.430      9.185
REMARK  6 active torsions:
REMARK  status: ('A' for Active; 'I' for Inactive)
REMARK    1  A    between atoms: C_2  and  C_3 
REMARK    2  A    between atoms: C_3  and  C_4 
REMARK    3  A    between atoms: C_3  and  C_10 
REMARK    4  A    between atoms: C_10  and  C_11 
REMARK       I    between atoms: C_11  and  N_12 
REMARK    5  A    between atoms: N_12  and  C_13 
REMARK    6  A    between atoms: C_15  and  C_16 
ROOT
HETATM    1  C   UNL     1      43.998 -11.896   7.241  1.00  0.00     0.223 C 
HETATM    2  N   UNL     1      43.428 -13.139   7.417  1.00  0.00    -0.327 N 
HETATM    3  O   UNL     1      44.002 -11.261   6.188  1.00  0.00    -0.273 OA
HETATM    4  H   UNL     1      43.573 -13.590   8.309  1.00  0.00     0.169 HD
ENDROOT
BRANCH   2   5
HETATM    5  C   UNL     1      42.749 -13.929   6.465  1.00  0.00     0.035 A 
HETATM    6  C   UNL     1      43.298 -15.055   5.843  1.00  0.00     0.042 A 
HETATM    7  C   UNL     1      42.564 -15.787   4.893  1.00  0.00    -0.021 A 
HETATM    8  C   UNL     1      41.260 -15.379   4.584  1.00  0.00     0.012 A 
HETATM    9  C   UNL     1      40.705 -14.256   5.198  1.00  0.00     0.003 A 
HETATM   10  C   UNL     1      41.450 -13.532   6.128  1.00  0.00     0.029 A 
BRANCH   7  11
HETATM   11  C   UNL     1      43.160 -16.947   4.250  1.00  0.00     0.010 A 
HETATM   12  C   UNL     1      43.968 -17.985   4.776  1.00  0.00     0.152 A 
HETATM   13  N   UNL     1      44.339 -18.874   3.849  1.00  0.00    -0.187 NA
HETATM   14  N   UNL     1      43.782 -18.403   2.723  1.00  0.00    -0.289 N 
HETATM   15  H   UNL     1      43.936 -18.915   1.861  1.00  0.00     0.188 HD
HETATM   16  C   UNL     1      43.066 -17.255   2.908  1.00  0.00     0.123 A 
ENDBRANCH   7  11
ENDBRANCH   2   5
BRANCH   1  17
HETATM   17  C   UNL     1      44.577 -11.246   8.498  1.00  0.00     0.116 C 
BRANCH  17  18
HETATM   18  C   UNL     1      44.184  -9.791   8.833  1.00  0.00     0.049 C 
BRANCH  18  19
HETATM   19  C   UNL     1      45.279  -8.856   8.337  1.00  0.00    -0.027 C 
HETATM   20  C   UNL     1      46.526  -9.169   7.959  1.00  0.00     0.007 C 
ENDBRANCH  18  19
BRANCH  18  21
HETATM   21  C   UNL     1      43.627  -9.517  10.237  1.00  0.00    -0.050 A 
HETATM   22  C   UNL     1      43.437 -10.570  11.153  1.00  0.00     0.008 A 
HETATM   23  C   UNL     1      42.950 -10.337  12.443  1.00  0.00     0.001 A 
HETATM   24  C   UNL     1      42.672  -9.041  12.861  1.00  0.00     0.000 A 
HETATM   25  C   UNL     1      42.897  -7.978  11.994  1.00  0.00     0.001 A 
HETATM   26  C   UNL     1      43.381  -8.212  10.703  1.00  0.00     0.008 A 
ENDBRANCH  18  21
ENDBRANCH  17  18
ENDBRANCH   1  17
TORSDOF 6
ENDMDL
