MODEL 1
REMARK VINA RESULT:      -7.9      0.000      0.000
REMARK  3 active torsions:
REMARK  status: ('A' for Active; 'I' for Inactive)
REMARK    1  A    between atoms: C_2  and  C_3 
REMARK    2  A    between atoms: C_9  and  C_10 
REMARK    3  A    between atoms: C_23  and  N_24 
ROOT
HETATM    1  C   UNL     1      40.796 -15.545   1.559  1.00  0.00     0.066 A 
HETATM    2  N   UNL     1      39.914 -15.407   0.554  1.00  0.00    -0.177 NA
HETATM    3  N   UNL     1      39.916 -14.087   0.284  1.00  0.00    -0.256 N 
HETATM    4  H   UNL     1      39.322 -13.739  -0.460  1.00  0.00     0.191 HD
HETATM    5  C   UNL     1      40.767 -13.390   1.079  1.00  0.00     0.175 A 
HETATM    6  C   UNL     1      41.353 -14.294   1.927  1.00  0.00     0.035 A 
HETATM    7  C   UNL     1      42.374 -13.833   2.914  1.00  0.00     0.106 A 
HETATM    8  C   UNL     1      42.618 -12.327   2.768  1.00  0.00     0.081 A 
HETATM    9  C   UNL     1      43.635 -11.763   3.590  1.00  0.00     0.100 C 
HETATM   10  N   UNL     1      44.464 -11.295   4.255  1.00  0.00    -0.191 NA
HETATM   11  C   UNL     1      41.947 -11.552   1.870  1.00  0.00     0.140 A 
HETATM   12  O   UNL     1      40.971 -12.082   1.007  1.00  0.00    -0.279 OA
ENDROOT
BRANCH   7  13
HETATM   13  C   UNL     1      41.855 -14.225   4.299  1.00  0.00    -0.033 A 
HETATM   14  C   UNL     1      42.525 -15.193   5.115  1.00  0.00    -0.019 A 
HETATM   15  C   UNL     1      41.971 -15.509   6.386  1.00  0.00    -0.025 A 
HETATM   16  C   UNL     1      43.717 -15.872   4.756  1.00  0.00     0.013 A 
HETATM   17  C   UNL     1      42.586 -16.461   7.216  1.00  0.00     0.012 A 
HETATM   18  C   UNL     1      40.806 -14.870   6.830  1.00  0.00     0.012 A 
HETATM   19  C   UNL     1      43.752 -17.112   6.824  1.00  0.00     0.001 A 
HETATM   20  C   UNL     1      44.320 -16.814   5.595  1.00  0.00     0.001 A 
HETATM   21  C   UNL     1      40.176 -13.911   6.049  1.00  0.00     0.001 A 
HETATM   22  C   UNL     1      40.696 -13.587   4.803  1.00  0.00     0.009 A 
ENDBRANCH   7  13
BRANCH  11  23
HETATM   23  N   UNL     1      42.132 -10.199   1.691  1.00  0.00    -0.282 NA
HETATM   24  H   UNL     1      41.376  -9.712   1.215  1.00  0.00     0.126 HD
HETATM   25  H   UNL     1      43.049  -9.984   1.308  1.00  0.00     0.126 HD
ENDBRANCH  11  23
BRANCH   1  26
HETATM   26  C   UNL     1      41.068 -16.897   2.130  1.00  0.00     0.057 C 
HETATM   27  C   UNL     1      42.518 -17.320   1.959  1.00  0.00     0.011 C 
ENDBRANCH   1  26
TORSDOF 3
ENDMDL
MODEL 2
REMARK VINA RESULT:      -7.5      1.761      2.442
REMARK  3 active torsions:
REMARK  status: ('A' for Active; 'I' for Inactive)
REMARK    1  A    between atoms: C_2  and  C_3 
REMARK    2  A    between atoms: C_9  and  C_10 
REMARK    3  A    between atoms: C_23  and  N_24 
ROOT
HETATM    1  C   UNL     1      40.128 -13.212   0.707  1.00  0.00     0.066 A 
HETATM    2  N   UNL     1      39.073 -12.544   0.208  1.00  0.00    -0.177 NA
HETATM    3  N   UNL     1      39.102 -11.352   0.836  1.00  0.00    -0.256 N 
HETATM    4  H   UNL     1      38.395 -10.663   0.610  1.00  0.00     0.191 HD
HETATM    5  C   UNL     1      40.136 -11.244   1.707  1.00  0.00     0.175 A 
HETATM    6  C   UNL     1      40.823 -12.430   1.663  1.00  0.00     0.035 A 
HETATM    7  C   UNL     1      42.048 -12.611   2.498  1.00  0.00     0.106 A 
HETATM    8  C   UNL     1      42.350 -11.334   3.288  1.00  0.00     0.081 A 
HETATM    9  C   UNL     1      43.545 -11.332   4.065  1.00  0.00     0.100 C 
HETATM   10  N   UNL     1      44.517 -11.321   4.699  1.00  0.00    -0.191 NA
HETATM   11  C   UNL     1      41.563 -10.223   3.231  1.00  0.00     0.140 A 
HETATM   12  O   UNL     1      40.403 -10.169   2.438  1.00  0.00    -0.279 OA
ENDROOT
BRANCH   7  13
HETATM   13  C   UNL     1      41.793 -13.825   3.394  1.00  0.00    -0.033 A 
HETATM   14  C   UNL     1      42.387 -15.102   3.131  1.00  0.00    -0.019 A 
HETATM   15  C   UNL     1      42.091 -16.181   4.008  1.00  0.00    -0.025 A 
HETATM   16  C   UNL     1      43.265 -15.381   2.053  1.00  0.00     0.013 A 
HETATM   17  C   UNL     1      42.640 -17.454   3.782  1.00  0.00     0.012 A 
HETATM   18  C   UNL     1      41.250 -15.988   5.111  1.00  0.00     0.012 A 
HETATM   19  C   UNL     1      43.492 -17.691   2.708  1.00  0.00     0.001 A 
HETATM   20  C   UNL     1      43.808 -16.653   1.846  1.00  0.00     0.001 A 
HETATM   21  C   UNL     1      40.699 -14.742   5.379  1.00  0.00     0.001 A 
HETATM   22  C   UNL     1      40.972 -13.673   4.537  1.00  0.00     0.009 A 
ENDBRANCH   7  13
BRANCH  11  23
HETATM   23  N   UNL     1      41.792  -9.047   3.911  1.00  0.00    -0.282 NA
HETATM   24  H   UNL     1      41.346  -8.221   3.522  1.00  0.00     0.126 HD
HETATM   25  H   UNL     1      42.778  -8.910   4.118  1.00  0.00     0.126 HD
ENDBRANCH  11  23
BRANCH   1  26
HETATM   26  C   UNL     1      40.423 -14.597   0.233  1.00  0.00     0.057 C 
HETATM   27  C   UNL     1      39.720 -15.657   1.066  1.00  0.00     0.011 C 
ENDBRANCH   1  26
TORSDOF 3
ENDMDL
MODEL 3
REMARK VINA RESULT:      -7.4      2.685      4.001
REMARK  3 active torsions:
REMARK  status: ('A' for Active; 'I' for Inactive)
REMARK    1  A    between atoms: C_2  and  C_3 
REMARK    2  A    between atoms: C_9  and  C_10 
REMARK    3  A    between atoms: C_23  and  N_24 
ROOT
HETATM    1  C   UNL     1      39.801 -11.607   3.241  1.00  0.00     0.066 A 
HETATM    2  N   UNL     1      38.763 -10.769   3.405  1.00  0.00    -0.177 NA
HETATM    3  N   UNL     1      39.005 -10.160   4.583  1.00  0.00    -0.256 N 
HETATM    4  H   UNL     1      38.349  -9.464   4.917  1.00  0.00     0.191 HD
HETATM    5  C   UNL     1      40.156 -10.581   5.163  1.00  0.00     0.175 A 
HETATM    6  C   UNL     1      40.702 -11.525   4.332  1.00  0.00     0.035 A 
HETATM    7  C   UNL     1      42.005 -12.162   4.686  1.00  0.00     0.106 A 
HETATM    8  C   UNL     1      42.548 -11.579   5.995  1.00  0.00     0.081 A 
HETATM    9  C   UNL     1      43.833 -12.033   6.412  1.00  0.00     0.100 C 
HETATM   10  N   UNL     1      44.880 -12.396   6.758  1.00  0.00    -0.191 NA
HETATM   11  C   UNL     1      41.881 -10.637   6.719  1.00  0.00     0.140 A 
HETATM   12  O   UNL     1      40.633 -10.129   6.315  1.00  0.00    -0.279 OA
ENDROOT
BRANCH   7  13
HETATM   13  C   UNL     1      41.752 -13.670   4.760  1.00  0.00    -0.033 A 
HETATM   14  C   UNL     1      42.273 -14.576   3.780  1.00  0.00    -0.019 A 
HETATM   15  C   UNL     1      41.983 -15.962   3.916  1.00  0.00    -0.025 A 
HETATM   16  C   UNL     1      43.070 -14.200   2.670  1.00  0.00     0.013 A 
HETATM   17  C   UNL     1      42.461 -16.886   2.973  1.00  0.00     0.012 A 
HETATM   18  C   UNL     1      41.220 -16.424   4.997  1.00  0.00     0.012 A 
HETATM   19  C   UNL     1      43.235 -16.477   1.891  1.00  0.00     0.001 A 
HETATM   20  C   UNL     1      43.542 -15.134   1.742  1.00  0.00     0.001 A 
HETATM   21  C   UNL     1      40.741 -15.545   5.960  1.00  0.00     0.001 A 
HETATM   22  C   UNL     1      41.009 -14.188   5.848  1.00  0.00     0.009 A 
ENDBRANCH   7  13
BRANCH  11  23
HETATM   23  N   UNL     1      42.325 -10.073   7.895  1.00  0.00    -0.282 NA
HETATM   24  H   UNL     1      43.113  -9.437   7.807  1.00  0.00     0.126 HD
HETATM   25  H   UNL     1      42.451 -10.766   8.629  1.00  0.00     0.126 HD
ENDBRANCH  11  23
BRANCH   1  26
HETATM   26  C   UNL     1      39.880 -12.463   2.021  1.00  0.00     0.057 C 
HETATM   27  C   UNL     1      39.262 -13.836   2.234  1.00  0.00     0.011 C 
ENDBRANCH   1  26
TORSDOF 3
ENDMDL
MODEL 4
REMARK VINA RESULT:      -7.4     15.303     17.710
REMARK  3 active torsions:
REMARK  status: ('A' for Active; 'I' for Inactive)
REMARK    1  A    between atoms: C_2  and  C_3 
REMARK    2  A    between atoms: C_9  and  C_10 
REMARK    3  A    between atoms: C_23  and  N_24 
ROOT
HETATM    1  C   UNL     1      48.337 -30.505  -0.662  1.00  0.00     0.066 A 
HETATM    2  N   UNL     1      49.412 -30.077   0.024  1.00  0.00    -0.177 NA
HETATM    3  N   UNL     1      48.897 -29.430   1.088  1.00  0.00    -0.256 N 
HETATM    4  H   UNL     1      49.529 -29.022   1.766  1.00  0.00     0.191 HD
HETATM    5  C   UNL     1      47.540 -29.438   1.098  1.00  0.00     0.175 A 
HETATM    6  C   UNL     1      47.134 -30.117  -0.022  1.00  0.00     0.035 A 
HETATM    7  C   UNL     1      45.678 -30.323  -0.278  1.00  0.00     0.106 A 
HETATM    8  C   UNL     1      44.844 -29.719   0.856  1.00  0.00     0.081 A 
HETATM    9  C   UNL     1      43.434 -29.918   0.787  1.00  0.00     0.100 C 
HETATM   10  N   UNL     1      42.285 -30.077   0.741  1.00  0.00    -0.191 NA
HETATM   11  C   UNL     1      45.397 -29.063   1.914  1.00  0.00     0.140 A 
HETATM   12  O   UNL     1      46.787 -28.888   2.042  1.00  0.00    -0.279 OA
ENDROOT
BRANCH   7  13
HETATM   13  C   UNL     1      45.379 -29.697  -1.643  1.00  0.00    -0.033 A 
HETATM   14  C   UNL     1      44.933 -30.480  -2.757  1.00  0.00    -0.019 A 
HETATM   15  C   UNL     1      44.687 -29.822  -3.993  1.00  0.00    -0.025 A 
HETATM   16  C   UNL     1      44.709 -31.880  -2.726  1.00  0.00     0.013 A 
HETATM   17  C   UNL     1      44.261 -30.551  -5.116  1.00  0.00     0.012 A 
HETATM   18  C   UNL     1      44.862 -28.437  -4.106  1.00  0.00     0.012 A 
HETATM   19  C   UNL     1      44.059 -31.926  -5.048  1.00  0.00     0.001 A 
HETATM   20  C   UNL     1      44.280 -32.590  -3.851  1.00  0.00     0.001 A 
HETATM   21  C   UNL     1      45.267 -27.677  -3.017  1.00  0.00     0.001 A 
HETATM   22  C   UNL     1      45.515 -28.297  -1.799  1.00  0.00     0.009 A 
ENDBRANCH   7  13
BRANCH  11  23
HETATM   23  N   UNL     1      44.697 -28.509   2.963  1.00  0.00    -0.282 NA
HETATM   24  H   UNL     1      43.890 -27.947   2.705  1.00  0.00     0.126 HD
HETATM   25  H   UNL     1      45.309 -28.046   3.631  1.00  0.00     0.126 HD
ENDBRANCH  11  23
BRANCH   1  26
HETATM   26  C   UNL     1      48.521 -31.281  -1.924  1.00  0.00     0.057 C 
HETATM   27  C   UNL     1      48.169 -32.751  -1.757  1.00  0.00     0.011 C 
ENDBRANCH   1  26
TORSDOF 3
ENDMDL
MODEL 5
REMARK VINA RESULT:      -7.4      9.518     11.715
REMARK  3 active torsions:
REMARK  status: ('A' for Active; 'I' for Inactive)
REMARK    1  A    between atoms: C_2  and  C_3 
REMARK    2  A    between atoms: C_9  and  C_10 
REMARK    3  A    between atoms: C_23  and  N_24 
ROOT
HETATM    1  C   UNL     1      39.330  -5.876  10.662  1.00  0.00     0.066 A 
HETATM    2  N   UNL     1      39.030  -5.521   9.400  1.00  0.00    -0.177 NA
HETATM    3  N   UNL     1      38.784  -6.688   8.773  1.00  0.00    -0.256 N 
HETATM    4  H   UNL     1      38.523  -6.672   7.794  1.00  0.00     0.191 HD
HETATM    5  C   UNL     1      38.915  -7.761   9.592  1.00  0.00     0.175 A 
HETATM    6  C   UNL     1      39.276  -7.282  10.825  1.00  0.00     0.035 A 
HETATM    7  C   UNL     1      39.467  -8.230  11.963  1.00  0.00     0.106 A 
HETATM    8  C   UNL     1      39.176  -9.667  11.519  1.00  0.00     0.081 A 
HETATM    9  C   UNL     1      39.234 -10.671  12.528  1.00  0.00     0.100 C 
HETATM   10  N   UNL     1      39.277 -11.496  13.343  1.00  0.00    -0.191 NA
HETATM   11  C   UNL     1      38.827  -9.991  10.242  1.00  0.00     0.140 A 
HETATM   12  O   UNL     1      38.712  -9.021   9.230  1.00  0.00    -0.279 OA
ENDROOT
BRANCH   7  13
HETATM   13  C   UNL     1      40.901  -8.035  12.462  1.00  0.00    -0.033 A 
HETATM   14  C   UNL     1      41.189  -7.531  13.772  1.00  0.00    -0.019 A 
HETATM   15  C   UNL     1      42.549  -7.370  14.153  1.00  0.00    -0.025 A 
HETATM   16  C   UNL     1      40.212  -7.178  14.737  1.00  0.00     0.013 A 
HETATM   17  C   UNL     1      42.879  -6.867  15.422  1.00  0.00     0.012 A 
HETATM   18  C   UNL     1      43.579  -7.716  13.268  1.00  0.00     0.012 A 
HETATM   19  C   UNL     1      41.891  -6.525  16.341  1.00  0.00     0.001 A 
HETATM   20  C   UNL     1      40.557  -6.684  15.999  1.00  0.00     0.001 A 
HETATM   21  C   UNL     1      43.296  -8.230  12.010  1.00  0.00     0.001 A 
HETATM   22  C   UNL     1      41.976  -8.395  11.614  1.00  0.00     0.009 A 
ENDBRANCH   7  13
BRANCH  11  23
HETATM   23  N   UNL     1      38.546 -11.261   9.790  1.00  0.00    -0.282 NA
HETATM   24  H   UNL     1      37.746 -11.715  10.224  1.00  0.00     0.126 HD
HETATM   25  H   UNL     1      39.374 -11.851   9.764  1.00  0.00     0.126 HD
ENDBRANCH  11  23
BRANCH   1  26
HETATM   26  C   UNL     1      39.660  -4.826  11.671  1.00  0.00     0.057 C 
HETATM   27  C   UNL     1      41.140  -4.475  11.680  1.00  0.00     0.011 C 
ENDBRANCH   1  26
TORSDOF 3
ENDMDL
MODEL 6
REMARK VINA RESULT:      -7.1      2.326      3.418
REMARK  3 active torsions:
REMARK  status: ('A' for Active; 'I' for Inactive)
REMARK    1  A    between atoms: C_2  and  C_3 
REMARK    2  A    between atoms: C_9  and  C_10 
REMARK    3  A    between atoms: C_23  and  N_24 
ROOT
HETATM    1  C   UNL     1      42.607 -12.230   2.893  1.00  0.00     0.066 A 
HETATM    2  N   UNL     1      42.122 -11.329   2.020  1.00  0.00    -0.177 NA
HETATM    3  N   UNL     1      41.920 -10.221   2.759  1.00  0.00    -0.256 N 
HETATM    4  H   UNL     1      41.560  -9.389   2.306  1.00  0.00     0.191 HD
HETATM    5  C   UNL     1      42.262 -10.389   4.061  1.00  0.00     0.175 A 
HETATM    6  C   UNL     1      42.705 -11.680   4.195  1.00  0.00     0.035 A 
HETATM    7  C   UNL     1      43.188 -12.165   5.522  1.00  0.00     0.106 A 
HETATM    8  C   UNL     1      43.123 -11.040   6.560  1.00  0.00     0.081 A 
HETATM    9  C   UNL     1      43.637 -11.337   7.856  1.00  0.00     0.100 C 
HETATM   10  N   UNL     1      44.055 -11.569   8.913  1.00  0.00    -0.191 NA
HETATM   11  C   UNL     1      42.649  -9.795   6.274  1.00  0.00     0.140 A 
HETATM   12  O   UNL     1      42.179  -9.450   4.994  1.00  0.00    -0.279 OA
ENDROOT
BRANCH   7  13
HETATM   13  C   UNL     1      42.323 -13.373   5.890  1.00  0.00    -0.033 A 
HETATM   14  C   UNL     1      42.892 -14.657   6.175  1.00  0.00    -0.019 A 
HETATM   15  C   UNL     1      42.017 -15.729   6.499  1.00  0.00    -0.025 A 
HETATM   16  C   UNL     1      44.279 -14.949   6.164  1.00  0.00     0.013 A 
HETATM   17  C   UNL     1      42.528 -17.009   6.773  1.00  0.00     0.012 A 
HETATM   18  C   UNL     1      40.632 -15.523   6.553  1.00  0.00     0.012 A 
HETATM   19  C   UNL     1      43.897 -17.259   6.745  1.00  0.00     0.001 A 
HETATM   20  C   UNL     1      44.773 -16.227   6.445  1.00  0.00     0.001 A 
HETATM   21  C   UNL     1      40.087 -14.271   6.305  1.00  0.00     0.001 A 
HETATM   22  C   UNL     1      40.920 -13.208   5.984  1.00  0.00     0.009 A 
ENDBRANCH   7  13
BRANCH  11  23
HETATM   23  N   UNL     1      42.576  -8.746   7.164  1.00  0.00    -0.282 NA
HETATM   24  H   UNL     1      43.446  -8.246   7.326  1.00  0.00     0.126 HD
HETATM   25  H   UNL     1      42.098  -9.005   8.023  1.00  0.00     0.126 HD
ENDBRANCH  11  23
BRANCH   1  26
HETATM   26  C   UNL     1      42.959 -13.603   2.425  1.00  0.00     0.057 C 
HETATM   27  C   UNL     1      41.794 -14.573   2.540  1.00  0.00     0.011 C 
ENDBRANCH   1  26
TORSDOF 3
ENDMDL
MODEL 7
REMARK VINA RESULT:      -6.9     15.700     18.336
REMARK  3 active torsions:
REMARK  status: ('A' for Active; 'I' for Inactive)
REMARK    1  A    between atoms: C_2  and  C_3 
REMARK    2  A    between atoms: C_9  and  C_10 
REMARK    3  A    between atoms: C_23  and  N_24 
ROOT
HETATM    1  C   UNL     1      47.087 -28.898  -0.744  1.00  0.00     0.066 A 
HETATM    2  N   UNL     1      47.199 -27.895   0.144  1.00  0.00    -0.177 NA
HETATM    3  N   UNL     1      46.169 -28.080   0.993  1.00  0.00    -0.256 N 
HETATM    4  H   UNL     1      46.052 -27.438   1.768  1.00  0.00     0.191 HD
HETATM    5  C   UNL     1      45.415 -29.162   0.674  1.00  0.00     0.175 A 
HETATM    6  C   UNL     1      45.969 -29.719  -0.450  1.00  0.00     0.035 A 
HETATM    7  C   UNL     1      45.375 -30.957  -1.035  1.00  0.00     0.106 A 
HETATM    8  C   UNL     1      44.186 -31.431  -0.193  1.00  0.00     0.081 A 
HETATM    9  C   UNL     1      43.574 -32.656  -0.584  1.00  0.00     0.100 C 
HETATM   10  N   UNL     1      43.070 -33.655  -0.896  1.00  0.00    -0.191 NA
HETATM   11  C   UNL     1      43.747 -30.762   0.910  1.00  0.00     0.140 A 
HETATM   12  O   UNL     1      44.356 -29.575   1.357  1.00  0.00    -0.279 OA
ENDROOT
BRANCH   7  13
HETATM   13  C   UNL     1      44.992 -30.623  -2.479  1.00  0.00    -0.033 A 
HETATM   14  C   UNL     1      45.628 -31.251  -3.599  1.00  0.00    -0.019 A 
HETATM   15  C   UNL     1      45.220 -30.876  -4.908  1.00  0.00    -0.025 A 
HETATM   16  C   UNL     1      46.644 -32.236  -3.507  1.00  0.00     0.013 A 
HETATM   17  C   UNL     1      45.824 -31.455  -6.036  1.00  0.00     0.012 A 
HETATM   18  C   UNL     1      44.207 -29.925  -5.090  1.00  0.00     0.012 A 
HETATM   19  C   UNL     1      46.824 -32.414  -5.905  1.00  0.00     0.001 A 
HETATM   20  C   UNL     1      47.231 -32.807  -4.640  1.00  0.00     0.001 A 
HETATM   21  C   UNL     1      43.574 -29.340  -4.002  1.00  0.00     0.001 A 
HETATM   22  C   UNL     1      43.955 -29.688  -2.714  1.00  0.00     0.009 A 
ENDBRANCH   7  13
BRANCH  11  23
HETATM   23  N   UNL     1      42.691 -31.146   1.707  1.00  0.00    -0.282 NA
HETATM   24  H   UNL     1      42.748 -30.857   2.681  1.00  0.00     0.126 HD
HETATM   25  H   UNL     1      42.464 -32.130   1.595  1.00  0.00     0.126 HD
ENDBRANCH  11  23
BRANCH   1  26
HETATM   26  C   UNL     1      48.077 -29.024  -1.854  1.00  0.00     0.057 C 
HETATM   27  C   UNL     1      49.200 -29.994  -1.523  1.00  0.00     0.011 C 
ENDBRANCH   1  26
TORSDOF 3
ENDMDL
MODEL 8
REMARK VINA RESULT:      -6.9      9.148     11.681
REMARK  3 active torsions:
REMARK  status: ('A' for Active; 'I' for Inactive)
REMARK    1  A    between atoms: C_2  and  C_3 
REMARK    2  A    between atoms: C_9  and  C_10 
REMARK    3  A    between atoms: C_23  and  N_24 
ROOT
HETATM    1  C   UNL     1      42.780  -6.971   9.364  1.00  0.00     0.066 A 
HETATM    2  N   UNL     1      43.954  -7.079   8.716  1.00  0.00    -0.177 NA
HETATM    3  N   UNL     1      44.505  -8.207   9.206  1.00  0.00    -0.256 N 
HETATM    4  H   UNL     1      45.407  -8.504   8.853  1.00  0.00     0.191 HD
HETATM    5  C   UNL     1      43.722  -8.812  10.134  1.00  0.00     0.175 A 
HETATM    6  C   UNL     1      42.597  -8.041  10.273  1.00  0.00     0.035 A 
HETATM    7  C   UNL     1      41.517  -8.467  11.212  1.00  0.00     0.106 A 
HETATM    8  C   UNL     1      41.877  -9.801  11.873  1.00  0.00     0.081 A 
HETATM    9  C   UNL     1      40.894 -10.375  12.731  1.00  0.00     0.100 C 
HETATM   10  N   UNL     1      40.098 -10.850  13.430  1.00  0.00    -0.191 NA
HETATM   11  C   UNL     1      43.049 -10.454  11.634  1.00  0.00     0.140 A 
HETATM   12  O   UNL     1      44.023  -9.945  10.756  1.00  0.00    -0.279 OA
ENDROOT
BRANCH   7  13
HETATM   13  C   UNL     1      41.333  -7.329  12.218  1.00  0.00    -0.033 A 
HETATM   14  C   UNL     1      40.042  -6.794  12.534  1.00  0.00    -0.019 A 
HETATM   15  C   UNL     1      39.960  -5.729  13.472  1.00  0.00    -0.025 A 
HETATM   16  C   UNL     1      38.819  -7.250  11.982  1.00  0.00     0.013 A 
HETATM   17  C   UNL     1      38.717  -5.164  13.803  1.00  0.00     0.012 A 
HETATM   18  C   UNL     1      41.119  -5.231  14.083  1.00  0.00     0.012 A 
HETATM   19  C   UNL     1      37.538  -5.635  13.234  1.00  0.00     0.001 A 
HETATM   20  C   UNL     1      37.588  -6.681  12.326  1.00  0.00     0.001 A 
HETATM   21  C   UNL     1      42.365  -5.771  13.795  1.00  0.00     0.001 A 
HETATM   22  C   UNL     1      42.471  -6.810  12.881  1.00  0.00     0.009 A 
ENDBRANCH   7  13
BRANCH  11  23
HETATM   23  N   UNL     1      43.420 -11.657  12.193  1.00  0.00    -0.282 NA
HETATM   24  H   UNL     1      43.127 -12.487  11.684  1.00  0.00     0.126 HD
HETATM   25  H   UNL     1      43.205 -11.701  13.186  1.00  0.00     0.126 HD
ENDBRANCH  11  23
BRANCH   1  26
HETATM   26  C   UNL     1      41.873  -5.821   9.071  1.00  0.00     0.057 C 
HETATM   27  C   UNL     1      42.156  -4.619   9.958  1.00  0.00     0.011 C 
ENDBRANCH   1  26
TORSDOF 3
ENDMDL
MODEL 9
REMARK VINA RESULT:      -6.8      2.561      4.085
REMARK  3 active torsions:
REMARK  status: ('A' for Active; 'I' for Inactive)
REMARK    1  A    between atoms: C_2  and  C_3 
REMARK    2  A    between atoms: C_9  and  C_10 
REMARK    3  A    between atoms: C_23  and  N_24 
ROOT
HETATM    1  C   UNL     1      42.531 -15.396   5.109  1.00  0.00     0.066 A 
HETATM    2  N   UNL     1      41.905 -16.584   5.038  1.00  0.00    -0.177 NA
HETATM    3  N   UNL     1      41.054 -16.455   4.002  1.00  0.00    -0.256 N 
HETATM    4  H   UNL     1      40.471 -17.243   3.746  1.00  0.00     0.191 HD
HETATM    5  C   UNL     1      41.123 -15.232   3.417  1.00  0.00     0.175 A 
HETATM    6  C   UNL     1      42.061 -14.510   4.107  1.00  0.00     0.035 A 
HETATM    7  C   UNL     1      42.390 -13.118   3.679  1.00  0.00     0.106 A 
HETATM    8  C   UNL     1      41.579 -12.734   2.437  1.00  0.00     0.081 A 
HETATM    9  C   UNL     1      41.855 -11.459   1.864  1.00  0.00     0.100 C 
HETATM   10  N   UNL     1      42.074 -10.423   1.389  1.00  0.00    -0.191 NA
HETATM   11  C   UNL     1      40.670 -13.569   1.859  1.00  0.00     0.140 A 
HETATM   12  O   UNL     1      40.405 -14.853   2.368  1.00  0.00    -0.279 OA
ENDROOT
BRANCH   7  13
HETATM   13  C   UNL     1      42.113 -12.211   4.881  1.00  0.00    -0.033 A 
HETATM   14  C   UNL     1      43.169 -11.644   5.664  1.00  0.00    -0.019 A 
HETATM   15  C   UNL     1      42.826 -10.820   6.771  1.00  0.00    -0.025 A 
HETATM   16  C   UNL     1      44.553 -11.835   5.420  1.00  0.00     0.013 A 
HETATM   17  C   UNL     1      43.828 -10.252   7.576  1.00  0.00     0.012 A 
HETATM   18  C   UNL     1      41.483 -10.560   7.071  1.00  0.00     0.012 A 
HETATM   19  C   UNL     1      45.176 -10.470   7.308  1.00  0.00     0.001 A 
HETATM   20  C   UNL     1      45.538 -11.259   6.227  1.00  0.00     0.001 A 
HETATM   21  C   UNL     1      40.462 -11.088   6.292  1.00  0.00     0.001 A 
HETATM   22  C   UNL     1      40.772 -11.897   5.208  1.00  0.00     0.009 A 
ENDBRANCH   7  13
BRANCH  11  23
HETATM   23  N   UNL     1      39.921 -13.280   0.740  1.00  0.00    -0.282 NA
HETATM   24  H   UNL     1      39.630 -12.310   0.645  1.00  0.00     0.126 HD
HETATM   25  H   UNL     1      39.160 -13.940   0.607  1.00  0.00     0.126 HD
ENDBRANCH  11  23
BRANCH   1  26
HETATM   26  C   UNL     1      43.569 -15.163   6.156  1.00  0.00     0.057 C 
HETATM   27  C   UNL     1      42.963 -14.877   7.521  1.00  0.00     0.011 C 
ENDBRANCH   1  26
TORSDOF 3
ENDMDL
MODEL 10
REMARK VINA RESULT:      -6.7      2.482      4.756
REMARK  3 active torsions:
REMARK  status: ('A' for Active; 'I' for Inactive)
REMARK    1  A    between atoms: C_2  and  C_3 
REMARK    2  A    between atoms: C_9  and  C_10 
REMARK    3  A    between atoms: C_23  and  N_24 
ROOT
HETATM    1  C   UNL     1      40.043 -13.147   1.374  1.00  0.00     0.066 A 
HETATM    2  N   UNL     1      40.172 -13.415   0.062  1.00  0.00    -0.177 NA
HETATM    3  N   UNL     1      40.908 -14.543   0.020  1.00  0.00    -0.256 N 
HETATM    4  H   UNL     1      41.131 -14.948  -0.881  1.00  0.00     0.191 HD
HETATM    5  C   UNL     1      41.244 -14.995   1.254  1.00  0.00     0.175 A 
HETATM    6  C   UNL     1      40.711 -14.117   2.162  1.00  0.00     0.035 A 
HETATM    7  C   UNL     1      40.885 -14.364   3.624  1.00  0.00     0.106 A 
HETATM    8  C   UNL     1      41.660 -15.664   3.859  1.00  0.00     0.081 A 
HETATM    9  C   UNL     1      41.825 -16.073   5.215  1.00  0.00     0.100 C 
HETATM   10  N   UNL     1      41.963 -16.414   6.315  1.00  0.00    -0.191 NA
HETATM   11  C   UNL     1      42.135 -16.438   2.843  1.00  0.00     0.140 A 
HETATM   12  O   UNL     1      41.949 -16.093   1.492  1.00  0.00    -0.279 OA
ENDROOT
BRANCH   7  13
HETATM   13  C   UNL     1      41.591 -13.133   4.197  1.00  0.00    -0.033 A 
HETATM   14  C   UNL     1      40.936 -12.230   5.096  1.00  0.00    -0.019 A 
HETATM   15  C   UNL     1      41.660 -11.104   5.575  1.00  0.00    -0.025 A 
HETATM   16  C   UNL     1      39.603 -12.372   5.559  1.00  0.00     0.013 A 
HETATM   17  C   UNL     1      41.054 -10.185   6.448  1.00  0.00     0.012 A 
HETATM   18  C   UNL     1      42.989 -10.898   5.185  1.00  0.00     0.012 A 
HETATM   19  C   UNL     1      39.740 -10.355   6.874  1.00  0.00     0.001 A 
HETATM   20  C   UNL     1      39.016 -11.451   6.433  1.00  0.00     0.001 A 
HETATM   21  C   UNL     1      43.631 -11.791   4.336  1.00  0.00     0.001 A 
HETATM   22  C   UNL     1      42.944 -12.897   3.854  1.00  0.00     0.009 A 
ENDBRANCH   7  13
BRANCH  11  23
HETATM   23  N   UNL     1      42.828 -17.618   2.997  1.00  0.00    -0.282 NA
HETATM   24  H   UNL     1      43.250 -17.764   3.910  1.00  0.00     0.126 HD
HETATM   25  H   UNL     1      43.471 -17.788   2.227  1.00  0.00     0.126 HD
ENDBRANCH  11  23
BRANCH   1  26
HETATM   26  C   UNL     1      39.269 -11.950   1.816  1.00  0.00     0.057 C 
HETATM   27  C   UNL     1      40.121 -10.691   1.858  1.00  0.00     0.011 C 
ENDBRANCH   1  26
TORSDOF 3
ENDMDL
