MODEL 1
REMARK VINA RESULT:      -7.3      0.000      0.000
REMARK  6 active torsions:
REMARK  status: ('A' for Active; 'I' for Inactive)
REMARK    1  A    between atoms: C_2  and  O_3 
REMARK    2  A    between atoms: O_3  and  C_4 
REMARK    3  A    between atoms: C_4  and  C_5 
REMARK    4  A    between atoms: C_6  and  O_7 
REMARK    5  A    between atoms: C_12  and  O_13 
REMARK    6  A    between atoms: C_17  and  C_18 
ROOT
HETATM    1  C   UNL     1      42.814 -15.195   5.107  1.00  0.00     0.133 C 
HETATM    2  C   UNL     1      42.514 -14.933   6.622  1.00  0.00     0.073 C 
HETATM    3  C   UNL     1      42.737 -16.196   7.471  1.00  0.00     0.047 C 
HETATM    4  C   UNL     1      43.433 -13.806   7.193  1.00  0.00     0.097 C 
HETATM    5  C   UNL     1      43.588 -12.706   6.207  1.00  0.00     0.042 A 
HETATM    6  C   UNL     1      43.311 -12.744   4.857  1.00  0.00     0.030 A 
HETATM    7  C   UNL     1      43.669 -11.460   4.418  1.00  0.00     0.190 A 
HETATM    8  N   UNL     1      44.139 -10.678   5.381  1.00  0.00    -0.149 NA
HETATM    9  N   UNL     1      44.057 -11.452   6.477  1.00  0.00    -0.279 N 
HETATM   10  H   UNL     1      44.348 -11.059   7.367  1.00  0.00     0.189 HD
HETATM   11  C   UNL     1      42.787 -13.957   4.166  1.00  0.00     0.075 C 
ENDROOT
BRANCH  11  12
HETATM   12  C   UNL     1      41.454 -13.569   3.544  1.00  0.00    -0.045 A 
HETATM   13  C   UNL     1      41.118 -13.825   2.205  1.00  0.00     0.050 A 
HETATM   14  C   UNL     1      39.882 -13.431   1.699  1.00  0.00     0.117 A 
HETATM   15  F   UNL     1      39.585 -13.679   0.417  1.00  0.00    -0.206 F 
HETATM   16  C   UNL     1      38.952 -12.782   2.499  1.00  0.00     0.042 A 
HETATM   17  C   UNL     1      39.262 -12.517   3.830  1.00  0.00     0.004 A 
HETATM   18  C   UNL     1      40.504 -12.903   4.345  1.00  0.00     0.008 A 
ENDBRANCH  11  12
BRANCH   1  19
HETATM   19  C   UNL     1      42.028 -16.321   4.469  1.00  0.00     0.267 C 
HETATM   20  O   UNL     1      40.806 -16.396   4.529  1.00  0.00    -0.265 OA
BRANCH  19  21
HETATM   21  O   UNL     1      42.836 -17.242   3.879  1.00  0.00    -0.316 OA
BRANCH  21  22
HETATM   22  C   UNL     1      42.558 -17.560   2.502  1.00  0.00     0.123 C 
HETATM   23  C   UNL     1      43.036 -18.974   2.194  1.00  0.00     0.040 C 
HETATM   24  C   UNL     1      43.309 -16.542   1.652  1.00  0.00     0.040 C 
ENDBRANCH  21  22
ENDBRANCH  19  21
ENDBRANCH   1  19
BRANCH   2  25
HETATM   25  O   UNL     1      41.160 -14.519   6.842  1.00  0.00    -0.389 OA
HETATM   26  H   UNL     1      40.716 -15.211   7.370  1.00  0.00     0.210 HD
ENDBRANCH   2  25
BRANCH   7  27
HETATM   27  O   UNL     1      43.595 -10.926   3.197  1.00  0.00    -0.343 OA
HETATM   28  H   UNL     1      44.454 -10.545   2.962  1.00  0.00     0.219 HD
ENDBRANCH   7  27
TORSDOF 6
ENDMDL
MODEL 2
REMARK VINA RESULT:      -7.3      2.855      4.656
REMARK  6 active torsions:
REMARK  status: ('A' for Active; 'I' for Inactive)
REMARK    1  A    between atoms: C_2  and  O_3 
REMARK    2  A    between atoms: O_3  and  C_4 
REMARK    3  A    between atoms: C_4  and  C_5 
REMARK    4  A    between atoms: C_6  and  O_7 
REMARK    5  A    between atoms: C_12  and  O_13 
REMARK    6  A    between atoms: C_17  and  C_18 
ROOT
HETATM    1  C   UNL     1      41.806 -16.030   6.034  1.00  0.00     0.133 C 
HETATM    2  C   UNL     1      43.212 -15.726   6.654  1.00  0.00     0.073 C 
HETATM    3  C   UNL     1      43.111 -15.395   8.153  1.00  0.00     0.047 C 
HETATM    4  C   UNL     1      44.174 -16.946   6.499  1.00  0.00     0.097 C 
HETATM    5  C   UNL     1      44.010 -17.578   5.165  1.00  0.00     0.042 A 
HETATM    6  C   UNL     1      42.960 -17.418   4.285  1.00  0.00     0.030 A 
HETATM    7  C   UNL     1      43.304 -18.260   3.216  1.00  0.00     0.190 A 
HETATM    8  N   UNL     1      44.450 -18.905   3.392  1.00  0.00    -0.149 NA
HETATM    9  N   UNL     1      44.882 -18.453   4.582  1.00  0.00    -0.279 N 
HETATM   10  H   UNL     1      45.770 -18.795   4.934  1.00  0.00     0.189 HD
HETATM   11  C   UNL     1      41.787 -16.540   4.565  1.00  0.00     0.075 C 
ENDROOT
BRANCH  11  12
HETATM   12  C   UNL     1      41.739 -15.501   3.454  1.00  0.00    -0.045 A 
HETATM   13  C   UNL     1      40.623 -15.302   2.626  1.00  0.00     0.050 A 
HETATM   14  C   UNL     1      40.653 -14.339   1.621  1.00  0.00     0.117 A 
HETATM   15  F   UNL     1      39.580 -14.170   0.838  1.00  0.00    -0.206 F 
HETATM   16  C   UNL     1      41.777 -13.551   1.413  1.00  0.00     0.042 A 
HETATM   17  C   UNL     1      42.895 -13.731   2.222  1.00  0.00     0.004 A 
HETATM   18  C   UNL     1      42.877 -14.700   3.229  1.00  0.00     0.008 A 
ENDBRANCH  11  12
BRANCH   1  19
HETATM   19  C   UNL     1      40.770 -14.938   6.194  1.00  0.00     0.267 C 
HETATM   20  O   UNL     1      39.634 -15.154   6.598  1.00  0.00    -0.265 OA
BRANCH  19  21
HETATM   21  O   UNL     1      41.235 -13.725   5.792  1.00  0.00    -0.316 OA
BRANCH  21  22
HETATM   22  C   UNL     1      40.325 -12.614   5.902  1.00  0.00     0.123 C 
HETATM   23  C   UNL     1      39.551 -12.453   4.599  1.00  0.00     0.040 C 
HETATM   24  C   UNL     1      41.170 -11.376   6.181  1.00  0.00     0.040 C 
ENDBRANCH  21  22
ENDBRANCH  19  21
ENDBRANCH   1  19
BRANCH   2  25
HETATM   25  O   UNL     1      43.851 -14.608   6.025  1.00  0.00    -0.389 OA
HETATM   26  H   UNL     1      44.724 -14.904   5.700  1.00  0.00     0.210 HD
ENDBRANCH   2  25
BRANCH   7  27
HETATM   27  O   UNL     1      42.659 -18.489   2.070  1.00  0.00    -0.343 OA
HETATM   28  H   UNL     1      41.782 -18.080   2.108  1.00  0.00     0.219 HD
ENDBRANCH   7  27
TORSDOF 6
ENDMDL
MODEL 3
REMARK VINA RESULT:      -7.2      2.956      4.685
REMARK  6 active torsions:
REMARK  status: ('A' for Active; 'I' for Inactive)
REMARK    1  A    between atoms: C_2  and  O_3 
REMARK    2  A    between atoms: O_3  and  C_4 
REMARK    3  A    between atoms: C_4  and  C_5 
REMARK    4  A    between atoms: C_6  and  O_7 
REMARK    5  A    between atoms: C_12  and  O_13 
REMARK    6  A    between atoms: C_17  and  C_18 
ROOT
HETATM    1  C   UNL     1      41.171 -15.790   3.717  1.00  0.00     0.133 C 
HETATM    2  C   UNL     1      42.509 -15.945   2.916  1.00  0.00     0.073 C 
HETATM    3  C   UNL     1      43.195 -17.289   3.212  1.00  0.00     0.047 C 
HETATM    4  C   UNL     1      42.257 -15.866   1.376  1.00  0.00     0.097 C 
HETATM    5  C   UNL     1      41.254 -14.817   1.061  1.00  0.00     0.042 A 
HETATM    6  C   UNL     1      40.369 -14.214   1.931  1.00  0.00     0.030 A 
HETATM    7  C   UNL     1      39.649 -13.340   1.103  1.00  0.00     0.190 A 
HETATM    8  N   UNL     1      40.021 -13.382  -0.170  1.00  0.00    -0.149 NA
HETATM    9  N   UNL     1      41.026 -14.275  -0.172  1.00  0.00    -0.279 N 
HETATM   10  H   UNL     1      41.496 -14.469  -1.049  1.00  0.00     0.189 HD
HETATM   11  C   UNL     1      40.297 -14.547   3.382  1.00  0.00     0.075 C 
ENDROOT
BRANCH  11  12
HETATM   12  C   UNL     1      40.574 -13.260   4.145  1.00  0.00    -0.045 A 
HETATM   13  C   UNL     1      41.634 -12.391   3.841  1.00  0.00     0.050 A 
HETATM   14  C   UNL     1      41.836 -11.234   4.589  1.00  0.00     0.117 A 
HETATM   15  F   UNL     1      42.857 -10.423   4.287  1.00  0.00    -0.206 F 
HETATM   16  C   UNL     1      40.998 -10.908   5.647  1.00  0.00     0.042 A 
HETATM   17  C   UNL     1      39.940 -11.754   5.967  1.00  0.00     0.004 A 
HETATM   18  C   UNL     1      39.734 -12.922   5.225  1.00  0.00     0.008 A 
ENDBRANCH  11  12
BRANCH   1  19
HETATM   19  C   UNL     1      41.289 -15.923   5.220  1.00  0.00     0.267 C 
HETATM   20  O   UNL     1      40.362 -16.295   5.930  1.00  0.00    -0.265 OA
BRANCH  19  21
HETATM   21  O   UNL     1      42.512 -15.538   5.676  1.00  0.00    -0.316 OA
BRANCH  21  22
HETATM   22  C   UNL     1      42.539 -14.802   6.914  1.00  0.00     0.123 C 
HETATM   23  C   UNL     1      43.481 -13.612   6.785  1.00  0.00     0.040 C 
HETATM   24  C   UNL     1      43.033 -15.764   7.989  1.00  0.00     0.040 C 
ENDBRANCH  21  22
ENDBRANCH  19  21
ENDBRANCH   1  19
BRANCH   2  25
HETATM   25  O   UNL     1      43.454 -14.917   3.237  1.00  0.00    -0.389 OA
HETATM   26  H   UNL     1      43.028 -14.302   3.866  1.00  0.00     0.210 HD
ENDBRANCH   2  25
BRANCH   7  27
HETATM   27  O   UNL     1      38.671 -12.485   1.411  1.00  0.00    -0.343 OA
HETATM   28  H   UNL     1      37.992 -12.513   0.722  1.00  0.00     0.219 HD
ENDBRANCH   7  27
TORSDOF 6
ENDMDL
MODEL 4
REMARK VINA RESULT:      -7.1      2.402      3.974
REMARK  6 active torsions:
REMARK  status: ('A' for Active; 'I' for Inactive)
REMARK    1  A    between atoms: C_2  and  O_3 
REMARK    2  A    between atoms: O_3  and  C_4 
REMARK    3  A    between atoms: C_4  and  C_5 
REMARK    4  A    between atoms: C_6  and  O_7 
REMARK    5  A    between atoms: C_12  and  O_13 
REMARK    6  A    between atoms: C_17  and  C_18 
ROOT
HETATM    1  C   UNL     1      43.043 -15.249   3.596  1.00  0.00     0.133 C 
HETATM    2  C   UNL     1      42.227 -16.568   3.820  1.00  0.00     0.073 C 
HETATM    3  C   UNL     1      42.443 -17.570   2.673  1.00  0.00     0.047 C 
HETATM    4  C   UNL     1      42.644 -17.271   5.152  1.00  0.00     0.097 C 
HETATM    5  C   UNL     1      42.857 -16.270   6.229  1.00  0.00     0.042 A 
HETATM    6  C   UNL     1      43.039 -14.911   6.087  1.00  0.00     0.030 A 
HETATM    7  C   UNL     1      43.224 -14.470   7.407  1.00  0.00     0.190 A 
HETATM    8  N   UNL     1      43.178 -15.445   8.306  1.00  0.00    -0.149 NA
HETATM    9  N   UNL     1      42.925 -16.539   7.567  1.00  0.00    -0.279 N 
HETATM   10  H   UNL     1      42.824 -17.429   8.043  1.00  0.00     0.189 HD
HETATM   11  C   UNL     1      43.043 -14.222   4.764  1.00  0.00     0.075 C 
ENDROOT
BRANCH  11  12
HETATM   12  C   UNL     1      41.925 -13.190   4.800  1.00  0.00    -0.045 A 
HETATM   13  C   UNL     1      42.106 -11.839   4.463  1.00  0.00     0.050 A 
HETATM   14  C   UNL     1      41.039 -10.947   4.530  1.00  0.00     0.117 A 
HETATM   15  F   UNL     1      41.234  -9.661   4.210  1.00  0.00    -0.206 F 
HETATM   16  C   UNL     1      39.775 -11.365   4.925  1.00  0.00     0.042 A 
HETATM   17  C   UNL     1      39.573 -12.699   5.264  1.00  0.00     0.004 A 
HETATM   18  C   UNL     1      40.640 -13.602   5.207  1.00  0.00     0.008 A 
ENDBRANCH  11  12
BRANCH   1  19
HETATM   19  C   UNL     1      42.770 -14.524   2.297  1.00  0.00     0.267 C 
HETATM   20  O   UNL     1      43.645 -13.947   1.660  1.00  0.00    -0.265 OA
BRANCH  19  21
HETATM   21  O   UNL     1      41.453 -14.550   1.960  1.00  0.00    -0.316 OA
BRANCH  21  22
HETATM   22  C   UNL     1      41.054 -13.736   0.840  1.00  0.00     0.123 C 
HETATM   23  C   UNL     1      40.238 -12.547   1.333  1.00  0.00     0.040 C 
HETATM   24  C   UNL     1      40.215 -14.622  -0.074  1.00  0.00     0.040 C 
ENDBRANCH  21  22
ENDBRANCH  19  21
ENDBRANCH   1  19
BRANCH   2  25
HETATM   25  O   UNL     1      40.818 -16.325   3.900  1.00  0.00    -0.389 OA
HETATM   26  H   UNL     1      40.583 -15.684   3.201  1.00  0.00     0.210 HD
ENDBRANCH   2  25
BRANCH   7  27
HETATM   27  O   UNL     1      43.425 -13.236   7.873  1.00  0.00    -0.343 OA
HETATM   28  H   UNL     1      43.278 -12.596   7.161  1.00  0.00     0.219 HD
ENDBRANCH   7  27
TORSDOF 6
ENDMDL
MODEL 5
REMARK VINA RESULT:      -7.0      2.177      4.518
REMARK  6 active torsions:
REMARK  status: ('A' for Active; 'I' for Inactive)
REMARK    1  A    between atoms: C_2  and  O_3 
REMARK    2  A    between atoms: O_3  and  C_4 
REMARK    3  A    between atoms: C_4  and  C_5 
REMARK    4  A    between atoms: C_6  and  O_7 
REMARK    5  A    between atoms: C_12  and  O_13 
REMARK    6  A    between atoms: C_17  and  C_18 
ROOT
HETATM    1  C   UNL     1      40.791 -12.078   3.690  1.00  0.00     0.133 C 
HETATM    2  C   UNL     1      41.671 -10.839   3.311  1.00  0.00     0.073 C 
HETATM    3  C   UNL     1      40.809  -9.648   2.860  1.00  0.00     0.047 C 
HETATM    4  C   UNL     1      42.538 -10.370   4.522  1.00  0.00     0.097 C 
HETATM    5  C   UNL     1      43.080 -11.537   5.264  1.00  0.00     0.042 A 
HETATM    6  C   UNL     1      42.652 -12.846   5.196  1.00  0.00     0.030 A 
HETATM    7  C   UNL     1      43.481 -13.505   6.116  1.00  0.00     0.190 A 
HETATM    8  N   UNL     1      44.347 -12.704   6.724  1.00  0.00    -0.149 NA
HETATM    9  N   UNL     1      44.103 -11.504   6.168  1.00  0.00    -0.279 N 
HETATM   10  H   UNL     1      44.666 -10.713   6.464  1.00  0.00     0.189 HD
HETATM   11  C   UNL     1      41.530 -13.293   4.320  1.00  0.00     0.075 C 
ENDROOT
BRANCH  11  12
HETATM   12  C   UNL     1      42.099 -14.342   3.376  1.00  0.00    -0.045 A 
HETATM   13  C   UNL     1      41.604 -15.653   3.284  1.00  0.00     0.050 A 
HETATM   14  C   UNL     1      42.182 -16.566   2.405  1.00  0.00     0.117 A 
HETATM   15  F   UNL     1      41.698 -17.812   2.337  1.00  0.00    -0.206 F 
HETATM   16  C   UNL     1      43.254 -16.207   1.599  1.00  0.00     0.042 A 
HETATM   17  C   UNL     1      43.761 -14.914   1.673  1.00  0.00     0.004 A 
HETATM   18  C   UNL     1      43.192 -13.992   2.558  1.00  0.00     0.008 A 
ENDBRANCH  11  12
BRANCH   1  19
HETATM   19  C   UNL     1      39.855 -12.573   2.609  1.00  0.00     0.267 C 
HETATM   20  O   UNL     1      38.752 -13.049   2.850  1.00  0.00    -0.265 OA
BRANCH  19  21
HETATM   21  O   UNL     1      40.403 -12.469   1.368  1.00  0.00    -0.316 OA
BRANCH  21  22
HETATM   22  C   UNL     1      39.677 -13.084   0.286  1.00  0.00     0.123 C 
HETATM   23  C   UNL     1      40.283 -14.445  -0.032  1.00  0.00     0.040 C 
HETATM   24  C   UNL     1      39.795 -12.150  -0.912  1.00  0.00     0.040 C 
ENDBRANCH  21  22
ENDBRANCH  19  21
ENDBRANCH   1  19
BRANCH   2  25
HETATM   25  O   UNL     1      42.575 -11.127   2.237  1.00  0.00    -0.389 OA
HETATM   26  H   UNL     1      42.474 -10.426   1.563  1.00  0.00     0.210 HD
ENDBRANCH   2  25
BRANCH   7  27
HETATM   27  O   UNL     1      43.526 -14.796   6.451  1.00  0.00    -0.343 OA
HETATM   28  H   UNL     1      44.249 -14.940   7.078  1.00  0.00     0.219 HD
ENDBRANCH   7  27
TORSDOF 6
ENDMDL
MODEL 6
REMARK VINA RESULT:      -6.9      3.169      5.511
REMARK  6 active torsions:
REMARK  status: ('A' for Active; 'I' for Inactive)
REMARK    1  A    between atoms: C_2  and  O_3 
REMARK    2  A    between atoms: O_3  and  C_4 
REMARK    3  A    between atoms: C_4  and  C_5 
REMARK    4  A    between atoms: C_6  and  O_7 
REMARK    5  A    between atoms: C_12  and  O_13 
REMARK    6  A    between atoms: C_17  and  C_18 
ROOT
HETATM    1  C   UNL     1      42.000 -11.407   2.792  1.00  0.00     0.133 C 
HETATM    2  C   UNL     1      40.655 -10.955   3.458  1.00  0.00     0.073 C 
HETATM    3  C   UNL     1      40.849  -9.711   4.341  1.00  0.00     0.047 C 
HETATM    4  C   UNL     1      39.579 -10.612   2.379  1.00  0.00     0.097 C 
HETATM    5  C   UNL     1      39.627 -11.587   1.260  1.00  0.00     0.042 A 
HETATM    6  C   UNL     1      40.650 -12.460   0.952  1.00  0.00     0.030 A 
HETATM    7  C   UNL     1      40.186 -13.107  -0.203  1.00  0.00     0.190 A 
HETATM    8  N   UNL     1      38.993 -12.688  -0.607  1.00  0.00    -0.149 NA
HETATM    9  N   UNL     1      38.655 -11.774   0.319  1.00  0.00    -0.279 N 
HETATM   10  H   UNL     1      37.754 -11.314   0.236  1.00  0.00     0.189 HD
HETATM   11  C   UNL     1      41.910 -12.553   1.745  1.00  0.00     0.075 C 
ENDROOT
BRANCH  11  12
HETATM   12  C   UNL     1      42.008 -13.984   2.252  1.00  0.00    -0.045 A 
HETATM   13  C   UNL     1      40.999 -14.613   2.999  1.00  0.00     0.050 A 
HETATM   14  C   UNL     1      41.162 -15.924   3.441  1.00  0.00     0.117 A 
HETATM   15  F   UNL     1      40.191 -16.503   4.158  1.00  0.00    -0.206 F 
HETATM   16  C   UNL     1      42.315 -16.642   3.154  1.00  0.00     0.042 A 
HETATM   17  C   UNL     1      43.328 -16.039   2.414  1.00  0.00     0.004 A 
HETATM   18  C   UNL     1      43.177 -14.721   1.972  1.00  0.00     0.008 A 
ENDBRANCH  11  12
BRANCH   1  19
HETATM   19  C   UNL     1      43.138 -11.694   3.747  1.00  0.00     0.267 C 
HETATM   20  O   UNL     1      44.312 -11.479   3.466  1.00  0.00    -0.265 OA
BRANCH  19  21
HETATM   21  O   UNL     1      42.707 -12.255   4.908  1.00  0.00    -0.316 OA
BRANCH  21  22
HETATM   22  C   UNL     1      43.696 -12.930   5.709  1.00  0.00     0.123 C 
HETATM   23  C   UNL     1      43.209 -14.333   6.052  1.00  0.00     0.040 C 
HETATM   24  C   UNL     1      43.882 -12.101   6.974  1.00  0.00     0.040 C 
ENDBRANCH  21  22
ENDBRANCH  19  21
ENDBRANCH   1  19
BRANCH   2  25
HETATM   25  O   UNL     1      40.097 -11.975   4.295  1.00  0.00    -0.389 OA
HETATM   26  H   UNL     1      40.518 -12.825   4.056  1.00  0.00     0.210 HD
ENDBRANCH   2  25
BRANCH   7  27
HETATM   27  O   UNL     1      40.758 -14.069  -0.930  1.00  0.00    -0.343 OA
HETATM   28  H   UNL     1      40.602 -13.896  -1.870  1.00  0.00     0.219 HD
ENDBRANCH   7  27
TORSDOF 6
ENDMDL
MODEL 7
REMARK VINA RESULT:      -6.8     15.550     16.787
REMARK  6 active torsions:
REMARK  status: ('A' for Active; 'I' for Inactive)
REMARK    1  A    between atoms: C_2  and  O_3 
REMARK    2  A    between atoms: O_3  and  C_4 
REMARK    3  A    between atoms: C_4  and  C_5 
REMARK    4  A    between atoms: C_6  and  O_7 
REMARK    5  A    between atoms: C_12  and  O_13 
REMARK    6  A    between atoms: C_17  and  C_18 
ROOT
HETATM    1  C   UNL     1      46.267 -29.370   2.090  1.00  0.00     0.133 C 
HETATM    2  C   UNL     1      46.449 -30.849   2.573  1.00  0.00     0.073 C 
HETATM    3  C   UNL     1      47.748 -31.028   3.377  1.00  0.00     0.047 C 
HETATM    4  C   UNL     1      45.260 -31.297   3.483  1.00  0.00     0.097 C 
HETATM    5  C   UNL     1      43.971 -30.783   2.953  1.00  0.00     0.042 A 
HETATM    6  C   UNL     1      43.786 -29.772   2.033  1.00  0.00     0.030 A 
HETATM    7  C   UNL     1      42.390 -29.684   1.928  1.00  0.00     0.190 A 
HETATM    8  N   UNL     1      41.740 -30.540   2.706  1.00  0.00    -0.149 NA
HETATM    9  N   UNL     1      42.729 -31.224   3.308  1.00  0.00    -0.279 N 
HETATM   10  H   UNL     1      42.477 -31.966   3.953  1.00  0.00     0.189 HD
HETATM   11  C   UNL     1      44.913 -29.020   1.409  1.00  0.00     0.075 C 
ENDROOT
BRANCH  11  12
HETATM   12  C   UNL     1      44.802 -29.227  -0.094  1.00  0.00    -0.045 A 
HETATM   13  C   UNL     1      44.924 -28.188  -1.031  1.00  0.00     0.050 A 
HETATM   14  C   UNL     1      44.800 -28.448  -2.394  1.00  0.00     0.117 A 
HETATM   15  F   UNL     1      44.912 -27.442  -3.270  1.00  0.00    -0.206 F 
HETATM   16  C   UNL     1      44.558 -29.733  -2.861  1.00  0.00     0.042 A 
HETATM   17  C   UNL     1      44.434 -30.778  -1.951  1.00  0.00     0.004 A 
HETATM   18  C   UNL     1      44.550 -30.526  -0.580  1.00  0.00     0.008 A 
ENDBRANCH  11  12
BRANCH   1  19
HETATM   19  C   UNL     1      47.400 -28.809   1.260  1.00  0.00     0.267 C 
HETATM   20  O   UNL     1      47.728 -27.628   1.294  1.00  0.00    -0.265 OA
BRANCH  19  21
HETATM   21  O   UNL     1      47.962 -29.749   0.454  1.00  0.00    -0.316 OA
BRANCH  21  22
HETATM   22  C   UNL     1      48.943 -29.287  -0.495  1.00  0.00     0.123 C 
HETATM   23  C   UNL     1      48.352 -29.311  -1.899  1.00  0.00     0.040 C 
HETATM   24  C   UNL     1      50.133 -30.233  -0.397  1.00  0.00     0.040 C 
ENDBRANCH  21  22
ENDBRANCH  19  21
ENDBRANCH   1  19
BRANCH   2  25
HETATM   25  O   UNL     1      46.508 -31.773   1.479  1.00  0.00    -0.389 OA
HETATM   26  H   UNL     1      47.449 -31.973   1.305  1.00  0.00     0.210 HD
ENDBRANCH   2  25
BRANCH   7  27
HETATM   27  O   UNL     1      41.641 -28.884   1.165  1.00  0.00    -0.343 OA
HETATM   28  H   UNL     1      42.195 -28.489   0.476  1.00  0.00     0.219 HD
ENDBRANCH   7  27
TORSDOF 6
ENDMDL
MODEL 8
REMARK VINA RESULT:      -6.7      2.983      4.893
REMARK  6 active torsions:
REMARK  status: ('A' for Active; 'I' for Inactive)
REMARK    1  A    between atoms: C_2  and  O_3 
REMARK    2  A    between atoms: O_3  and  C_4 
REMARK    3  A    between atoms: C_4  and  C_5 
REMARK    4  A    between atoms: C_6  and  O_7 
REMARK    5  A    between atoms: C_12  and  O_13 
REMARK    6  A    between atoms: C_17  and  C_18 
ROOT
HETATM    1  C   UNL     1      41.673 -15.854   3.932  1.00  0.00     0.133 C 
HETATM    2  C   UNL     1      41.753 -15.957   2.371  1.00  0.00     0.073 C 
HETATM    3  C   UNL     1      41.993 -17.404   1.909  1.00  0.00     0.047 C 
HETATM    4  C   UNL     1      40.432 -15.456   1.704  1.00  0.00     0.097 C 
HETATM    5  C   UNL     1      39.916 -14.249   2.399  1.00  0.00     0.042 A 
HETATM    6  C   UNL     1      40.268 -13.789   3.651  1.00  0.00     0.030 A 
HETATM    7  C   UNL     1      39.462 -12.652   3.814  1.00  0.00     0.190 A 
HETATM    8  N   UNL     1      38.664 -12.410   2.781  1.00  0.00    -0.149 NA
HETATM    9  N   UNL     1      38.977 -13.386   1.911  1.00  0.00    -0.279 N 
HETATM   10  H   UNL     1      38.502 -13.403   1.015  1.00  0.00     0.189 HD
HETATM   11  C   UNL     1      41.268 -14.472   4.521  1.00  0.00     0.075 C 
ENDROOT
BRANCH  11  12
HETATM   12  C   UNL     1      42.376 -13.466   4.793  1.00  0.00    -0.045 A 
HETATM   13  C   UNL     1      42.961 -13.279   6.056  1.00  0.00     0.050 A 
HETATM   14  C   UNL     1      43.965 -12.331   6.236  1.00  0.00     0.117 A 
HETATM   15  F   UNL     1      44.504 -12.164   7.450  1.00  0.00    -0.206 F 
HETATM   16  C   UNL     1      44.415 -11.552   5.179  1.00  0.00     0.042 A 
HETATM   17  C   UNL     1      43.850 -11.719   3.919  1.00  0.00     0.004 A 
HETATM   18  C   UNL     1      42.837 -12.664   3.729  1.00  0.00     0.008 A 
ENDBRANCH  11  12
BRANCH   1  19
HETATM   19  C   UNL     1      42.875 -16.381   4.685  1.00  0.00     0.267 C 
HETATM   20  O   UNL     1      44.023 -16.259   4.275  1.00  0.00    -0.265 OA
BRANCH  19  21
HETATM   21  O   UNL     1      42.522 -17.037   5.823  1.00  0.00    -0.316 OA
BRANCH  21  22
HETATM   22  C   UNL     1      43.595 -17.549   6.636  1.00  0.00     0.123 C 
HETATM   23  C   UNL     1      43.306 -18.995   7.019  1.00  0.00     0.040 C 
HETATM   24  C   UNL     1      43.669 -16.669   7.877  1.00  0.00     0.040 C 
ENDBRANCH  21  22
ENDBRANCH  19  21
ENDBRANCH   1  19
BRANCH   2  25
HETATM   25  O   UNL     1      42.818 -15.166   1.830  1.00  0.00    -0.389 OA
HETATM   26  H   UNL     1      42.546 -14.860   0.942  1.00  0.00     0.210 HD
ENDBRANCH   2  25
BRANCH   7  27
HETATM   27  O   UNL     1      39.393 -11.795   4.835  1.00  0.00    -0.343 OA
HETATM   28  H   UNL     1      38.833 -11.045   4.587  1.00  0.00     0.219 HD
ENDBRANCH   7  27
TORSDOF 6
ENDMDL
MODEL 9
REMARK VINA RESULT:      -6.7      3.219      6.041
REMARK  6 active torsions:
REMARK  status: ('A' for Active; 'I' for Inactive)
REMARK    1  A    between atoms: C_2  and  O_3 
REMARK    2  A    between atoms: O_3  and  C_4 
REMARK    3  A    between atoms: C_4  and  C_5 
REMARK    4  A    between atoms: C_6  and  O_7 
REMARK    5  A    between atoms: C_12  and  O_13 
REMARK    6  A    between atoms: C_17  and  C_18 
ROOT
HETATM    1  C   UNL     1      42.138 -12.175   4.006  1.00  0.00     0.133 C 
HETATM    2  C   UNL     1      40.706 -11.651   4.364  1.00  0.00     0.073 C 
HETATM    3  C   UNL     1      40.642 -10.114   4.342  1.00  0.00     0.047 C 
HETATM    4  C   UNL     1      39.640 -12.187   3.356  1.00  0.00     0.097 C 
HETATM    5  C   UNL     1      39.908 -13.607   3.014  1.00  0.00     0.042 A 
HETATM    6  C   UNL     1      41.077 -14.311   3.211  1.00  0.00     0.030 A 
HETATM    7  C   UNL     1      40.786 -15.577   2.680  1.00  0.00     0.190 A 
HETATM    8  N   UNL     1      39.561 -15.677   2.181  1.00  0.00    -0.149 NA
HETATM    9  N   UNL     1      39.028 -14.466   2.419  1.00  0.00    -0.279 N 
HETATM   10  H   UNL     1      38.067 -14.299   2.138  1.00  0.00     0.189 HD
HETATM   11  C   UNL     1      42.295 -13.713   3.831  1.00  0.00     0.075 C 
ENDROOT
BRANCH  11  12
HETATM   12  C   UNL     1      42.610 -14.538   5.070  1.00  0.00    -0.045 A 
HETATM   13  C   UNL     1      43.880 -15.072   5.344  1.00  0.00     0.050 A 
HETATM   14  C   UNL     1      44.094 -15.829   6.493  1.00  0.00     0.117 A 
HETATM   15  F   UNL     1      45.310 -16.335   6.732  1.00  0.00    -0.206 F 
HETATM   16  C   UNL     1      43.067 -16.072   7.395  1.00  0.00     0.042 A 
HETATM   17  C   UNL     1      41.801 -15.552   7.145  1.00  0.00     0.004 A 
HETATM   18  C   UNL     1      41.574 -14.797   5.990  1.00  0.00     0.008 A 
ENDBRANCH  11  12
BRANCH   1  19
HETATM   19  C   UNL     1      43.261 -11.657   4.878  1.00  0.00     0.267 C 
HETATM   20  O   UNL     1      44.374 -11.388   4.440  1.00  0.00    -0.265 OA
BRANCH  19  21
HETATM   21  O   UNL     1      42.901 -11.578   6.187  1.00  0.00    -0.316 OA
BRANCH  21  22
HETATM   22  C   UNL     1      43.538 -10.553   6.974  1.00  0.00     0.123 C 
HETATM   23  C   UNL     1      44.447 -11.193   8.015  1.00  0.00     0.040 C 
HETATM   24  C   UNL     1      42.426  -9.757   7.647  1.00  0.00     0.040 C 
ENDBRANCH  21  22
ENDBRANCH  19  21
ENDBRANCH   1  19
BRANCH   2  25
HETATM   25  O   UNL     1      40.289 -12.065   5.671  1.00  0.00    -0.389 OA
HETATM   26  H   UNL     1      39.506 -12.642   5.569  1.00  0.00     0.210 HD
ENDBRANCH   2  25
BRANCH   7  27
HETATM   27  O   UNL     1      41.548 -16.670   2.617  1.00  0.00    -0.343 OA
HETATM   28  H   UNL     1      42.422 -16.474   2.985  1.00  0.00     0.219 HD
ENDBRANCH   7  27
TORSDOF 6
ENDMDL
MODEL 10
REMARK VINA RESULT:      -6.6      3.207      5.612
REMARK  6 active torsions:
REMARK  status: ('A' for Active; 'I' for Inactive)
REMARK    1  A    between atoms: C_2  and  O_3 
REMARK    2  A    between atoms: O_3  and  C_4 
REMARK    3  A    between atoms: C_4  and  C_5 
REMARK    4  A    between atoms: C_6  and  O_7 
REMARK    5  A    between atoms: C_12  and  O_13 
REMARK    6  A    between atoms: C_17  and  C_18 
ROOT
HETATM    1  C   UNL     1      41.289 -11.946   3.846  1.00  0.00     0.133 C 
HETATM    2  C   UNL     1      39.743 -11.692   3.799  1.00  0.00     0.073 C 
HETATM    3  C   UNL     1      39.380 -10.299   4.344  1.00  0.00     0.047 C 
HETATM    4  C   UNL     1      39.199 -11.789   2.338  1.00  0.00     0.097 C 
HETATM    5  C   UNL     1      39.846 -12.911   1.611  1.00  0.00     0.042 A 
HETATM    6  C   UNL     1      41.003 -13.577   1.956  1.00  0.00     0.030 A 
HETATM    7  C   UNL     1      41.165 -14.504   0.914  1.00  0.00     0.190 A 
HETATM    8  N   UNL     1      40.218 -14.435  -0.013  1.00  0.00    -0.149 NA
HETATM    9  N   UNL     1      39.402 -13.469   0.446  1.00  0.00    -0.279 N 
HETATM   10  H   UNL     1      38.574 -13.241  -0.094  1.00  0.00     0.189 HD
HETATM   11  C   UNL     1      41.802 -13.250   3.171  1.00  0.00     0.075 C 
ENDROOT
BRANCH  11  12
HETATM   12  C   UNL     1      41.854 -14.512   4.019  1.00  0.00    -0.045 A 
HETATM   13  C   UNL     1      40.745 -15.031   4.706  1.00  0.00     0.050 A 
HETATM   14  C   UNL     1      40.868 -16.187   5.474  1.00  0.00     0.117 A 
HETATM   15  F   UNL     1      39.800 -16.661   6.127  1.00  0.00    -0.206 F 
HETATM   16  C   UNL     1      42.081 -16.855   5.577  1.00  0.00     0.042 A 
HETATM   17  C   UNL     1      43.193 -16.359   4.905  1.00  0.00     0.004 A 
HETATM   18  C   UNL     1      43.081 -15.196   4.137  1.00  0.00     0.008 A 
ENDBRANCH  11  12
BRANCH   1  19
HETATM   19  C   UNL     1      41.935 -11.803   5.207  1.00  0.00     0.267 C 
HETATM   20  O   UNL     1      41.291 -11.782   6.250  1.00  0.00    -0.265 OA
BRANCH  19  21
HETATM   21  O   UNL     1      43.284 -11.654   5.122  1.00  0.00    -0.316 OA
BRANCH  21  22
HETATM   22  C   UNL     1      44.019 -11.700   6.361  1.00  0.00     0.123 C 
HETATM   23  C   UNL     1      45.435 -11.183   6.137  1.00  0.00     0.040 C 
HETATM   24  C   UNL     1      44.044 -13.157   6.807  1.00  0.00     0.040 C 
ENDBRANCH  21  22
ENDBRANCH  19  21
ENDBRANCH   1  19
BRANCH   2  25
HETATM   25  O   UNL     1      39.014 -12.646   4.581  1.00  0.00    -0.389 OA
HETATM   26  H   UNL     1      38.108 -12.701   4.220  1.00  0.00     0.210 HD
ENDBRANCH   2  25
BRANCH   7  27
HETATM   27  O   UNL     1      42.110 -15.428   0.734  1.00  0.00    -0.343 OA
HETATM   28  H   UNL     1      42.115 -16.033   1.490  1.00  0.00     0.219 HD
ENDBRANCH   7  27
TORSDOF 6
ENDMDL
