MODEL 1
REMARK VINA RESULT:      -8.1      0.000      0.000
REMARK  3 active torsions:
REMARK  status: ('A' for Active; 'I' for Inactive)
REMARK    1  A    between atoms: C_7  and  C_8 
REMARK    2  A    between atoms: N_9  and  C_11 
REMARK    3  A    between atoms: C_11  and  C_12 
ROOT
HETATM    1  C   UNL     1      40.763 -12.622   3.198  1.00  0.00     0.238 C 
HETATM    2  N   UNL     1      41.531 -13.699   3.942  1.00  0.00    -0.056 N 
HETATM    3  H   UNL     1      40.992 -14.560   3.794  1.00  0.00     0.281 HD
HETATM    4  C   UNL     1      41.567 -13.474   5.438  1.00  0.00     0.236 C 
HETATM    5  C   UNL     1      40.155 -13.390   5.993  1.00  0.00     0.028 C 
HETATM    6  C   UNL     1      39.392 -12.259   5.326  1.00  0.00     0.004 C 
HETATM    7  C   UNL     1      39.361 -12.460   3.819  1.00  0.00     0.040 C 
ENDROOT
BRANCH   2   8
HETATM    8  C   UNL     1      42.916 -14.007   3.381  1.00  0.00     0.295 C 
BRANCH   8   9
HETATM    9  C   UNL     1      43.147 -15.420   3.013  1.00  0.00     0.077 A 
HETATM   10  N   UNL     1      43.487 -16.440   3.886  1.00  0.00    -0.155 N 
HETATM   11  C   UNL     1      43.528 -17.621   3.141  1.00  0.00     0.732 A 
HETATM   12  C   UNL     1      43.757 -16.434   5.252  1.00  0.00     0.117 A 
HETATM   13  N   UNL     1      43.762 -18.823   3.736  1.00  0.00    -0.074 NA
HETATM   14  N   UNL     1      43.332 -17.364   1.867  1.00  0.00    -0.072 NA
HETATM   15  C   UNL     1      44.007 -18.800   5.009  1.00  0.00     0.138 A 
HETATM   16  C   UNL     1      44.033 -17.589   5.875  1.00  0.00     0.038 A 
HETATM   17  C   UNL     1      43.161 -16.020   1.769  1.00  0.00     0.164 A 
ENDBRANCH   8   9
ENDBRANCH   2   8
BRANCH   1  18
HETATM   18  C   UNL     1      40.595 -12.951   1.747  1.00  0.00     0.041 A 
HETATM   19  N   UNL     1      41.056 -12.110   0.754  1.00  0.00    -0.357 N 
HETATM   20  C   UNL     1      40.749 -12.618  -0.487  1.00  0.00     0.042 A 
HETATM   21  H   UNL     1      41.535 -11.228   0.890  1.00  0.00     0.166 HD
HETATM   22  C   UNL     1      40.042 -13.800  -0.290  1.00  0.00    -0.008 A 
HETATM   23  C   UNL     1      41.023 -12.109  -1.762  1.00  0.00     0.030 A 
HETATM   24  C   UNL     1      39.578 -14.515  -1.410  1.00  0.00     0.014 A 
HETATM   25  C   UNL     1      39.938 -13.994   1.114  1.00  0.00     0.040 A 
HETATM   26  C   UNL     1      39.843 -14.020  -2.692  1.00  0.00     0.001 A 
HETATM   27  C   UNL     1      40.555 -12.834  -2.862  1.00  0.00     0.002 A 
ENDBRANCH   1  18
TORSDOF 3
ENDMDL
MODEL 2
REMARK VINA RESULT:      -8.1      2.103      6.683
REMARK  3 active torsions:
REMARK  status: ('A' for Active; 'I' for Inactive)
REMARK    1  A    between atoms: C_7  and  C_8 
REMARK    2  A    between atoms: N_9  and  C_11 
REMARK    3  A    between atoms: C_11  and  C_12 
ROOT
HETATM    1  C   UNL     1      42.709 -14.357   6.421  1.00  0.00     0.238 C 
HETATM    2  N   UNL     1      41.888 -13.648   5.359  1.00  0.00    -0.056 N 
HETATM    3  H   UNL     1      42.460 -13.689   4.509  1.00  0.00     0.281 HD
HETATM    4  C   UNL     1      41.677 -12.180   5.658  1.00  0.00     0.236 C 
HETATM    5  C   UNL     1      43.014 -11.475   5.811  1.00  0.00     0.028 C 
HETATM    6  C   UNL     1      43.821 -12.110   6.930  1.00  0.00     0.004 C 
HETATM    7  C   UNL     1      44.027 -13.591   6.655  1.00  0.00     0.040 C 
ENDROOT
BRANCH   2   8
HETATM    8  C   UNL     1      40.584 -14.344   4.983  1.00  0.00     0.295 C 
BRANCH   8   9
HETATM    9  C   UNL     1      40.499 -14.811   3.583  1.00  0.00     0.077 A 
HETATM   10  N   UNL     1      40.156 -14.034   2.489  1.00  0.00    -0.155 N 
HETATM   11  C   UNL     1      40.280 -14.844   1.356  1.00  0.00     0.732 A 
HETATM   12  C   UNL     1      39.755 -12.705   2.390  1.00  0.00     0.117 A 
HETATM   13  N   UNL     1      40.082 -14.342   0.106  1.00  0.00    -0.074 NA
HETATM   14  N   UNL     1      40.578 -16.075   1.706  1.00  0.00    -0.072 NA
HETATM   15  C   UNL     1      39.713 -13.102   0.032  1.00  0.00     0.138 A 
HETATM   16  C   UNL     1      39.509 -12.178   1.182  1.00  0.00     0.038 A 
HETATM   17  C   UNL     1      40.653 -16.081   3.063  1.00  0.00     0.164 A 
ENDBRANCH   8   9
ENDBRANCH   2   8
BRANCH   1  18
HETATM   18  C   UNL     1      43.050 -15.761   6.024  1.00  0.00     0.041 A 
HETATM   19  N   UNL     1      42.812 -16.829   6.866  1.00  0.00    -0.357 N 
HETATM   20  C   UNL     1      43.242 -18.001   6.287  1.00  0.00     0.042 A 
HETATM   21  H   UNL     1      42.401 -16.785   7.790  1.00  0.00     0.166 HD
HETATM   22  C   UNL     1      43.804 -17.675   5.056  1.00  0.00    -0.008 A 
HETATM   23  C   UNL     1      43.199 -19.313   6.771  1.00  0.00     0.030 A 
HETATM   24  C   UNL     1      44.353 -18.700   4.263  1.00  0.00     0.014 A 
HETATM   25  C   UNL     1      43.691 -16.267   4.906  1.00  0.00     0.040 A 
HETATM   26  C   UNL     1      44.318 -20.018   4.731  1.00  0.00     0.001 A 
HETATM   27  C   UNL     1      43.749 -20.317   5.967  1.00  0.00     0.002 A 
ENDBRANCH   1  18
TORSDOF 3
ENDMDL
MODEL 3
REMARK VINA RESULT:      -8.1      2.356      6.097
REMARK  3 active torsions:
REMARK  status: ('A' for Active; 'I' for Inactive)
REMARK    1  A    between atoms: C_7  and  C_8 
REMARK    2  A    between atoms: N_9  and  C_11 
REMARK    3  A    between atoms: C_11  and  C_12 
ROOT
HETATM    1  C   UNL     1      39.728 -13.530  -0.760  1.00  0.00     0.238 C 
HETATM    2  N   UNL     1      38.437 -12.858  -0.327  1.00  0.00    -0.056 N 
HETATM    3  H   UNL     1      37.845 -13.620   0.022  1.00  0.00     0.281 HD
HETATM    4  C   UNL     1      37.683 -12.231  -1.480  1.00  0.00     0.236 C 
HETATM    5  C   UNL     1      37.374 -13.274  -2.539  1.00  0.00     0.028 C 
HETATM    6  C   UNL     1      38.659 -13.900  -3.054  1.00  0.00     0.004 C 
HETATM    7  C   UNL     1      39.440 -14.520  -1.906  1.00  0.00     0.040 C 
ENDROOT
BRANCH   2   8
HETATM    8  C   UNL     1      38.573 -11.900   0.852  1.00  0.00     0.295 C 
BRANCH   8   9
HETATM    9  C   UNL     1      39.927 -11.345   1.061  1.00  0.00     0.077 A 
HETATM   10  N   UNL     1      40.715 -11.532   2.184  1.00  0.00    -0.155 N 
HETATM   11  C   UNL     1      41.941 -10.909   1.933  1.00  0.00     0.732 A 
HETATM   12  C   UNL     1      40.468 -12.189   3.386  1.00  0.00     0.117 A 
HETATM   13  N   UNL     1      42.965 -10.982   2.827  1.00  0.00    -0.074 NA
HETATM   14  N   UNL     1      41.905 -10.280   0.780  1.00  0.00    -0.072 NA
HETATM   15  C   UNL     1      42.719 -11.601   3.939  1.00  0.00     0.138 A 
HETATM   16  C   UNL     1      41.434 -12.252   4.314  1.00  0.00     0.038 A 
HETATM   17  C   UNL     1      40.663 -10.486   0.268  1.00  0.00     0.164 A 
ENDBRANCH   8   9
ENDBRANCH   2   8
BRANCH   1  18
HETATM   18  C   UNL     1      40.370 -14.288   0.361  1.00  0.00     0.041 A 
HETATM   19  N   UNL     1      41.740 -14.313   0.527  1.00  0.00    -0.357 N 
HETATM   20  C   UNL     1      42.079 -15.102   1.602  1.00  0.00     0.042 A 
HETATM   21  H   UNL     1      42.424 -13.845  -0.056  1.00  0.00     0.166 HD
HETATM   22  C   UNL     1      40.900 -15.628   2.120  1.00  0.00    -0.008 A 
HETATM   23  C   UNL     1      43.337 -15.408   2.134  1.00  0.00     0.030 A 
HETATM   24  C   UNL     1      40.967 -16.503   3.221  1.00  0.00     0.014 A 
HETATM   25  C   UNL     1      39.835 -15.123   1.328  1.00  0.00     0.040 A 
HETATM   26  C   UNL     1      42.217 -16.819   3.766  1.00  0.00     0.001 A 
HETATM   27  C   UNL     1      43.383 -16.278   3.228  1.00  0.00     0.002 A 
ENDBRANCH   1  18
TORSDOF 3
ENDMDL
MODEL 4
REMARK VINA RESULT:      -7.9      1.595      6.129
REMARK  3 active torsions:
REMARK  status: ('A' for Active; 'I' for Inactive)
REMARK    1  A    between atoms: C_7  and  C_8 
REMARK    2  A    between atoms: N_9  and  C_11 
REMARK    3  A    between atoms: C_11  and  C_12 
ROOT
HETATM    1  C   UNL     1      41.029 -13.931   4.282  1.00  0.00     0.238 C 
HETATM    2  N   UNL     1      41.806 -12.653   4.025  1.00  0.00    -0.056 N 
HETATM    3  H   UNL     1      42.571 -12.665   4.709  1.00  0.00     0.281 HD
HETATM    4  C   UNL     1      41.001 -11.404   4.312  1.00  0.00     0.236 C 
HETATM    5  C   UNL     1      40.509 -11.411   5.749  1.00  0.00     0.028 C 
HETATM    6  C   UNL     1      39.653 -12.639   6.008  1.00  0.00     0.004 C 
HETATM    7  C   UNL     1      40.441 -13.904   5.707  1.00  0.00     0.040 C 
ENDROOT
BRANCH   2   8
HETATM    8  C   UNL     1      42.500 -12.583   2.668  1.00  0.00     0.295 C 
BRANCH   8   9
HETATM    9  C   UNL     1      41.694 -11.996   1.577  1.00  0.00     0.077 A 
HETATM   10  N   UNL     1      40.905 -12.701   0.684  1.00  0.00    -0.155 N 
HETATM   11  C   UNL     1      40.257 -11.760  -0.122  1.00  0.00     0.732 A 
HETATM   12  C   UNL     1      40.698 -14.067   0.512  1.00  0.00     0.117 A 
HETATM   13  N   UNL     1      39.344 -12.141  -1.057  1.00  0.00    -0.074 NA
HETATM   14  N   UNL     1      40.678 -10.548   0.164  1.00  0.00    -0.072 NA
HETATM   15  C   UNL     1      39.161 -13.416  -1.201  1.00  0.00     0.138 A 
HETATM   16  C   UNL     1      39.839 -14.492  -0.425  1.00  0.00     0.038 A 
HETATM   17  C   UNL     1      41.599 -10.685   1.153  1.00  0.00     0.164 A 
ENDBRANCH   8   9
ENDBRANCH   2   8
BRANCH   1  18
HETATM   18  C   UNL     1      41.892 -15.149   4.158  1.00  0.00     0.041 A 
HETATM   19  N   UNL     1      41.774 -16.014   3.089  1.00  0.00    -0.357 N 
HETATM   20  C   UNL     1      42.650 -17.067   3.224  1.00  0.00     0.042 A 
HETATM   21  H   UNL     1      41.129 -15.925   2.313  1.00  0.00     0.166 HD
HETATM   22  C   UNL     1      43.325 -16.894   4.428  1.00  0.00    -0.008 A 
HETATM   23  C   UNL     1      42.874 -18.165   2.386  1.00  0.00     0.030 A 
HETATM   24  C   UNL     1      44.270 -17.858   4.827  1.00  0.00     0.014 A 
HETATM   25  C   UNL     1      42.834 -15.696   5.013  1.00  0.00     0.040 A 
HETATM   26  C   UNL     1      44.507 -18.963   4.001  1.00  0.00     0.001 A 
HETATM   27  C   UNL     1      43.818 -19.112   2.799  1.00  0.00     0.002 A 
ENDBRANCH   1  18
TORSDOF 3
ENDMDL
MODEL 5
REMARK VINA RESULT:      -7.8      1.690      6.589
REMARK  3 active torsions:
REMARK  status: ('A' for Active; 'I' for Inactive)
REMARK    1  A    between atoms: C_7  and  C_8 
REMARK    2  A    between atoms: N_9  and  C_11 
REMARK    3  A    between atoms: C_11  and  C_12 
ROOT
HETATM    1  C   UNL     1      40.725 -14.148   3.368  1.00  0.00     0.238 C 
HETATM    2  N   UNL     1      41.354 -12.973   2.641  1.00  0.00    -0.056 N 
HETATM    3  H   UNL     1      42.183 -12.731   3.195  1.00  0.00     0.281 HD
HETATM    4  C   UNL     1      40.474 -11.742   2.635  1.00  0.00     0.236 C 
HETATM    5  C   UNL     1      40.134 -11.329   4.056  1.00  0.00     0.028 C 
HETATM    6  C   UNL     1      39.422 -12.459   4.779  1.00  0.00     0.004 C 
HETATM    7  C   UNL     1      40.285 -13.711   4.779  1.00  0.00     0.040 C 
ENDROOT
BRANCH   2   8
HETATM    8  C   UNL     1      41.897 -13.291   1.251  1.00  0.00     0.295 C 
BRANCH   8   9
HETATM    9  C   UNL     1      40.874 -13.466   0.199  1.00  0.00     0.077 A 
HETATM   10  N   UNL     1      40.566 -12.550  -0.793  1.00  0.00    -0.155 N 
HETATM   11  C   UNL     1      39.608 -13.145  -1.618  1.00  0.00     0.732 A 
HETATM   12  C   UNL     1      41.041 -11.265  -1.043  1.00  0.00     0.117 A 
HETATM   13  N   UNL     1      39.154 -12.518  -2.739  1.00  0.00    -0.074 NA
HETATM   14  N   UNL     1      39.249 -14.312  -1.132  1.00  0.00    -0.072 NA
HETATM   15  C   UNL     1      39.610 -11.325  -2.958  1.00  0.00     0.138 A 
HETATM   16  C   UNL     1      40.594 -10.593  -2.113  1.00  0.00     0.038 A 
HETATM   17  C   UNL     1      39.968 -14.491   0.007  1.00  0.00     0.164 A 
ENDBRANCH   8   9
ENDBRANCH   2   8
BRANCH   1  18
HETATM   18  C   UNL     1      41.677 -15.296   3.510  1.00  0.00     0.041 A 
HETATM   19  N   UNL     1      41.696 -16.338   2.605  1.00  0.00    -0.357 N 
HETATM   20  C   UNL     1      42.630 -17.278   2.975  1.00  0.00     0.042 A 
HETATM   21  H   UNL     1      41.104 -16.435   1.789  1.00  0.00     0.166 HD
HETATM   22  C   UNL     1      43.202 -16.849   4.168  1.00  0.00    -0.008 A 
HETATM   23  C   UNL     1      42.989 -18.482   2.359  1.00  0.00     0.030 A 
HETATM   24  C   UNL     1      44.180 -17.652   4.785  1.00  0.00     0.014 A 
HETATM   25  C   UNL     1      42.590 -15.612   4.503  1.00  0.00     0.040 A 
HETATM   26  C   UNL     1      44.552 -18.858   4.182  1.00  0.00     0.001 A 
HETATM   27  C   UNL     1      43.963 -19.265   2.987  1.00  0.00     0.002 A 
ENDBRANCH   1  18
TORSDOF 3
ENDMDL
MODEL 6
REMARK VINA RESULT:      -7.8      2.765      5.988
REMARK  3 active torsions:
REMARK  status: ('A' for Active; 'I' for Inactive)
REMARK    1  A    between atoms: C_7  and  C_8 
REMARK    2  A    between atoms: N_9  and  C_11 
REMARK    3  A    between atoms: C_11  and  C_12 
ROOT
HETATM    1  C   UNL     1      41.728 -11.891   3.652  1.00  0.00     0.238 C 
HETATM    2  N   UNL     1      41.641 -13.366   3.304  1.00  0.00    -0.056 N 
HETATM    3  H   UNL     1      42.594 -13.631   3.030  1.00  0.00     0.281 HD
HETATM    4  C   UNL     1      40.764 -13.638   2.100  1.00  0.00     0.236 C 
HETATM    5  C   UNL     1      41.270 -12.868   0.893  1.00  0.00     0.028 C 
HETATM    6  C   UNL     1      41.282 -11.377   1.186  1.00  0.00     0.004 C 
HETATM    7  C   UNL     1      42.144 -11.086   2.404  1.00  0.00     0.040 C 
ENDROOT
BRANCH   2   8
HETATM    8  C   UNL     1      41.303 -14.285   4.473  1.00  0.00     0.295 C 
BRANCH   8   9
HETATM    9  C   UNL     1      42.363 -15.242   4.850  1.00  0.00     0.077 A 
HETATM   10  N   UNL     1      42.726 -16.373   4.138  1.00  0.00    -0.155 N 
HETATM   11  C   UNL     1      43.818 -16.942   4.799  1.00  0.00     0.732 A 
HETATM   12  C   UNL     1      42.202 -16.943   2.981  1.00  0.00     0.117 A 
HETATM   13  N   UNL     1      44.456 -18.035   4.296  1.00  0.00    -0.074 NA
HETATM   14  N   UNL     1      44.071 -16.286   5.909  1.00  0.00    -0.072 NA
HETATM   15  C   UNL     1      43.958 -18.550   3.216  1.00  0.00     0.138 A 
HETATM   16  C   UNL     1      42.772 -18.043   2.470  1.00  0.00     0.038 A 
HETATM   17  C   UNL     1      43.153 -15.287   5.983  1.00  0.00     0.164 A 
ENDBRANCH   8   9
ENDBRANCH   2   8
BRANCH   1  18
HETATM   18  C   UNL     1      42.730 -11.627   4.733  1.00  0.00     0.041 A 
HETATM   19  N   UNL     1      42.358 -11.095   5.951  1.00  0.00    -0.357 N 
HETATM   20  C   UNL     1      43.460 -10.916   6.754  1.00  0.00     0.042 A 
HETATM   21  H   UNL     1      41.419 -10.842   6.234  1.00  0.00     0.166 HD
HETATM   22  C   UNL     1      44.576 -11.310   6.022  1.00  0.00    -0.008 A 
HETATM   23  C   UNL     1      43.554 -10.415   8.058  1.00  0.00     0.030 A 
HETATM   24  C   UNL     1      45.852 -11.200   6.608  1.00  0.00     0.014 A 
HETATM   25  C   UNL     1      44.110 -11.742   4.752  1.00  0.00     0.040 A 
HETATM   26  C   UNL     1      45.964 -10.701   7.910  1.00  0.00     0.001 A 
HETATM   27  C   UNL     1      44.830 -10.315   8.622  1.00  0.00     0.002 A 
ENDBRANCH   1  18
TORSDOF 3
ENDMDL
MODEL 7
REMARK VINA RESULT:      -7.7      2.084      6.287
REMARK  3 active torsions:
REMARK  status: ('A' for Active; 'I' for Inactive)
REMARK    1  A    between atoms: C_7  and  C_8 
REMARK    2  A    between atoms: N_9  and  C_11 
REMARK    3  A    between atoms: C_11  and  C_12 
ROOT
HETATM    1  C   UNL     1      41.978 -14.501   2.647  1.00  0.00     0.238 C 
HETATM    2  N   UNL     1      40.675 -14.225   3.376  1.00  0.00    -0.056 N 
HETATM    3  H   UNL     1      40.059 -15.005   3.122  1.00  0.00     0.281 HD
HETATM    4  C   UNL     1      39.985 -12.967   2.897  1.00  0.00     0.236 C 
HETATM    5  C   UNL     1      39.717 -13.046   1.404  1.00  0.00     0.028 C 
HETATM    6  C   UNL     1      41.018 -13.233   0.643  1.00  0.00     0.004 C 
HETATM    7  C   UNL     1      41.735 -14.485   1.124  1.00  0.00     0.040 C 
ENDROOT
BRANCH   2   8
HETATM    8  C   UNL     1      40.764 -14.281   4.897  1.00  0.00     0.295 C 
BRANCH   8   9
HETATM    9  C   UNL     1      40.992 -12.982   5.564  1.00  0.00     0.077 A 
HETATM   10  N   UNL     1      42.211 -12.507   6.019  1.00  0.00    -0.155 N 
HETATM   11  C   UNL     1      41.992 -11.214   6.504  1.00  0.00     0.732 A 
HETATM   12  C   UNL     1      43.476 -13.087   6.046  1.00  0.00     0.117 A 
HETATM   13  N   UNL     1      43.022 -10.447   6.956  1.00  0.00    -0.074 NA
HETATM   14  N   UNL     1      40.712 -10.922   6.460  1.00  0.00    -0.072 NA
HETATM   15  C   UNL     1      44.194 -11.001   6.970  1.00  0.00     0.138 A 
HETATM   16  C   UNL     1      44.515 -12.384   6.520  1.00  0.00     0.038 A 
HETATM   17  C   UNL     1      40.086 -12.013   5.947  1.00  0.00     0.164 A 
ENDBRANCH   8   9
ENDBRANCH   2   8
BRANCH   1  18
HETATM   18  C   UNL     1      42.556 -15.833   3.012  1.00  0.00     0.041 A 
HETATM   19  N   UNL     1      42.469 -16.918   2.164  1.00  0.00    -0.357 N 
HETATM   20  C   UNL     1      43.043 -18.027   2.742  1.00  0.00     0.042 A 
HETATM   21  H   UNL     1      42.031 -16.932   1.251  1.00  0.00     0.166 HD
HETATM   22  C   UNL     1      43.480 -17.656   4.010  1.00  0.00    -0.008 A 
HETATM   23  C   UNL     1      43.183 -19.330   2.249  1.00  0.00     0.030 A 
HETATM   24  C   UNL     1      44.087 -18.623   4.834  1.00  0.00     0.014 A 
HETATM   25  C   UNL     1      43.160 -16.282   4.176  1.00  0.00     0.040 A 
HETATM   26  C   UNL     1      44.236 -19.929   4.356  1.00  0.00     0.001 A 
HETATM   27  C   UNL     1      43.789 -20.275   3.082  1.00  0.00     0.002 A 
ENDBRANCH   1  18
TORSDOF 3
ENDMDL
MODEL 8
REMARK VINA RESULT:      -7.4      2.834      7.737
REMARK  3 active torsions:
REMARK  status: ('A' for Active; 'I' for Inactive)
REMARK    1  A    between atoms: C_7  and  C_8 
REMARK    2  A    between atoms: N_9  and  C_11 
REMARK    3  A    between atoms: C_11  and  C_12 
ROOT
HETATM    1  C   UNL     1      39.708 -13.674  -0.778  1.00  0.00     0.238 C 
HETATM    2  N   UNL     1      38.512 -12.838  -0.363  1.00  0.00    -0.056 N 
HETATM    3  H   UNL     1      37.870 -13.498   0.091  1.00  0.00     0.281 HD
HETATM    4  C   UNL     1      37.759 -12.258  -1.541  1.00  0.00     0.236 C 
HETATM    5  C   UNL     1      37.297 -13.367  -2.470  1.00  0.00     0.028 C 
HETATM    6  C   UNL     1      38.488 -14.166  -2.971  1.00  0.00     0.004 C 
HETATM    7  C   UNL     1      39.267 -14.741  -1.800  1.00  0.00     0.040 C 
ENDROOT
BRANCH   2   8
HETATM    8  C   UNL     1      38.800 -11.784   0.702  1.00  0.00     0.295 C 
BRANCH   8   9
HETATM    9  C   UNL     1      38.864 -10.392   0.210  1.00  0.00     0.077 A 
HETATM   10  N   UNL     1      39.949  -9.803  -0.420  1.00  0.00    -0.155 N 
HETATM   11  C   UNL     1      39.557  -8.514  -0.791  1.00  0.00     0.732 A 
HETATM   12  C   UNL     1      41.225 -10.282  -0.700  1.00  0.00     0.117 A 
HETATM   13  N   UNL     1      40.387  -7.702  -1.503  1.00  0.00    -0.074 NA
HETATM   14  N   UNL     1      38.350  -8.256  -0.340  1.00  0.00    -0.072 NA
HETATM   15  C   UNL     1      41.570  -8.165  -1.758  1.00  0.00     0.138 A 
HETATM   16  C   UNL     1      42.091  -9.504  -1.364  1.00  0.00     0.038 A 
HETATM   17  C   UNL     1      37.942  -9.370   0.324  1.00  0.00     0.164 A 
ENDBRANCH   8   9
ENDBRANCH   2   8
BRANCH   1  18
HETATM   18  C   UNL     1      40.336 -14.375   0.387  1.00  0.00     0.041 A 
HETATM   19  N   UNL     1      41.698 -14.587   0.456  1.00  0.00    -0.357 N 
HETATM   20  C   UNL     1      42.019 -15.279   1.602  1.00  0.00     0.042 A 
HETATM   21  H   UNL     1      42.385 -14.306  -0.232  1.00  0.00     0.166 HD
HETATM   22  C   UNL     1      40.829 -15.550   2.270  1.00  0.00    -0.008 A 
HETATM   23  C   UNL     1      43.264 -15.704   2.080  1.00  0.00     0.030 A 
HETATM   24  C   UNL     1      40.871 -16.281   3.473  1.00  0.00     0.014 A 
HETATM   25  C   UNL     1      39.778 -14.991   1.495  1.00  0.00     0.040 A 
HETATM   26  C   UNL     1      42.108 -16.713   3.965  1.00  0.00     0.001 A 
HETATM   27  C   UNL     1      43.285 -16.427   3.276  1.00  0.00     0.002 A 
ENDBRANCH   1  18
TORSDOF 3
ENDMDL
MODEL 9
REMARK VINA RESULT:      -7.3     15.090     16.571
REMARK  3 active torsions:
REMARK  status: ('A' for Active; 'I' for Inactive)
REMARK    1  A    between atoms: C_7  and  C_8 
REMARK    2  A    between atoms: N_9  and  C_11 
REMARK    3  A    between atoms: C_11  and  C_12 
ROOT
HETATM    1  C   UNL     1      44.762 -29.727   1.727  1.00  0.00     0.238 C 
HETATM    2  N   UNL     1      46.145 -30.102   2.228  1.00  0.00    -0.056 N 
HETATM    3  H   UNL     1      46.418 -30.918   1.669  1.00  0.00     0.281 HD
HETATM    4  C   UNL     1      46.147 -30.558   3.671  1.00  0.00     0.236 C 
HETATM    5  C   UNL     1      45.210 -31.740   3.853  1.00  0.00     0.028 C 
HETATM    6  C   UNL     1      43.798 -31.363   3.441  1.00  0.00     0.004 C 
HETATM    7  C   UNL     1      43.780 -30.885   1.998  1.00  0.00     0.040 C 
ENDROOT
BRANCH   2   8
HETATM    8  C   UNL     1      47.231 -29.065   1.959  1.00  0.00     0.295 C 
BRANCH   8   9
HETATM    9  C   UNL     1      48.549 -29.616   1.580  1.00  0.00     0.077 A 
HETATM   10  N   UNL     1      49.006 -29.809   0.287  1.00  0.00    -0.155 N 
HETATM   11  C   UNL     1      50.323 -30.268   0.382  1.00  0.00     0.732 A 
HETATM   12  C   UNL     1      48.391 -29.621  -0.947  1.00  0.00     0.117 A 
HETATM   13  N   UNL     1      51.078 -30.480  -0.731  1.00  0.00    -0.074 NA
HETATM   14  N   UNL     1      50.651 -30.455   1.641  1.00  0.00    -0.072 NA
HETATM   15  C   UNL     1      50.491 -30.296  -1.872  1.00  0.00     0.138 A 
HETATM   16  C   UNL     1      49.082 -29.856  -2.071  1.00  0.00     0.038 A 
HETATM   17  C   UNL     1      49.558 -30.121   2.376  1.00  0.00     0.164 A 
ENDBRANCH   8   9
ENDBRANCH   2   8
BRANCH   1  18
HETATM   18  C   UNL     1      44.755 -29.444   0.256  1.00  0.00     0.041 A 
HETATM   19  N   UNL     1      44.416 -30.414  -0.666  1.00  0.00    -0.357 N 
HETATM   20  C   UNL     1      44.520 -29.917  -1.945  1.00  0.00     0.042 A 
HETATM   21  H   UNL     1      44.147 -31.369  -0.462  1.00  0.00     0.166 HD
HETATM   22  C   UNL     1      44.971 -28.604  -1.846  1.00  0.00    -0.008 A 
HETATM   23  C   UNL     1      44.273 -30.536  -3.176  1.00  0.00     0.030 A 
HETATM   24  C   UNL     1      45.191 -27.866  -3.024  1.00  0.00     0.014 A 
HETATM   25  C   UNL     1      45.128 -28.321  -0.463  1.00  0.00     0.040 A 
HETATM   26  C   UNL     1      44.949 -28.470  -4.263  1.00  0.00     0.001 A 
HETATM   27  C   UNL     1      44.497 -29.786  -4.334  1.00  0.00     0.002 A 
ENDBRANCH   1  18
TORSDOF 3
ENDMDL
MODEL 10
REMARK VINA RESULT:      -7.3      1.968      6.532
REMARK  3 active torsions:
REMARK  status: ('A' for Active; 'I' for Inactive)
REMARK    1  A    between atoms: C_7  and  C_8 
REMARK    2  A    between atoms: N_9  and  C_11 
REMARK    3  A    between atoms: C_11  and  C_12 
ROOT
HETATM    1  C   UNL     1      41.892 -14.426   2.300  1.00  0.00     0.238 C 
HETATM    2  N   UNL     1      40.688 -14.028   3.134  1.00  0.00    -0.056 N 
HETATM    3  H   UNL     1      39.985 -14.751   2.947  1.00  0.00     0.281 HD
HETATM    4  C   UNL     1      40.073 -12.716   2.695  1.00  0.00     0.236 C 
HETATM    5  C   UNL     1      39.669 -12.786   1.232  1.00  0.00     0.028 C 
HETATM    6  C   UNL     1      40.878 -13.096   0.365  1.00  0.00     0.004 C 
HETATM    7  C   UNL     1      41.520 -14.402   0.804  1.00  0.00     0.040 C 
ENDROOT
BRANCH   2   8
HETATM    8  C   UNL     1      40.904 -14.077   4.643  1.00  0.00     0.295 C 
BRANCH   8   9
HETATM    9  C   UNL     1      41.551 -12.883   5.226  1.00  0.00     0.077 A 
HETATM   10  N   UNL     1      40.915 -11.892   5.956  1.00  0.00    -0.155 N 
HETATM   11  C   UNL     1      41.903 -11.001   6.386  1.00  0.00     0.732 A 
HETATM   12  C   UNL     1      39.575 -11.700   6.280  1.00  0.00     0.117 A 
HETATM   13  N   UNL     1      41.601  -9.950   7.197  1.00  0.00    -0.074 NA
HETATM   14  N   UNL     1      43.070 -11.337   5.882  1.00  0.00    -0.072 NA
HETATM   15  C   UNL     1      40.350  -9.789   7.492  1.00  0.00     0.138 A 
HETATM   16  C   UNL     1      39.224 -10.655   7.044  1.00  0.00     0.038 A 
HETATM   17  C   UNL     1      42.856 -12.444   5.124  1.00  0.00     0.164 A 
ENDBRANCH   8   9
ENDBRANCH   2   8
BRANCH   1  18
HETATM   18  C   UNL     1      42.380 -15.801   2.637  1.00  0.00     0.041 A 
HETATM   19  N   UNL     1      43.118 -16.048   3.778  1.00  0.00    -0.357 N 
HETATM   20  C   UNL     1      43.473 -17.376   3.841  1.00  0.00     0.042 A 
HETATM   21  H   UNL     1      43.392 -15.366   4.475  1.00  0.00     0.166 HD
HETATM   22  C   UNL     1      42.982 -17.993   2.695  1.00  0.00    -0.008 A 
HETATM   23  C   UNL     1      44.209 -18.066   4.810  1.00  0.00     0.030 A 
HETATM   24  C   UNL     1      43.233 -19.364   2.495  1.00  0.00     0.014 A 
HETATM   25  C   UNL     1      42.309 -16.995   1.940  1.00  0.00     0.040 A 
HETATM   26  C   UNL     1      43.968 -20.069   3.454  1.00  0.00     0.001 A 
HETATM   27  C   UNL     1      44.448 -19.427   4.594  1.00  0.00     0.002 A 
ENDBRANCH   1  18
TORSDOF 3
ENDMDL
