MODEL 1
REMARK VINA RESULT:      -8.2      0.000      0.000
REMARK  8 active torsions:
REMARK  status: ('A' for Active; 'I' for Inactive)
REMARK    1  A    between atoms: N_2  and  C_4 
REMARK    2  A    between atoms: C_4  and  C_5 
REMARK    3  A    between atoms: C_5  and  N_6 
REMARK       I    between atoms: N_6  and  C_7 
REMARK    4  A    between atoms: N_6  and  C_23 
REMARK       I    between atoms: C_7  and  N_8 
REMARK    5  A    between atoms: N_8  and  C_9 
REMARK    6  A    between atoms: C_11  and  O_12 
REMARK    7  A    between atoms: O_12  and  C_13 
REMARK    8  A    between atoms: C_23  and  C_24 
ROOT
HETATM    1  N   UNL     1      42.607 -13.657   3.438  1.00  0.00    -0.328 N 
HETATM    2  C   UNL     1      43.218 -12.589   4.104  1.00  0.00     0.323 C 
HETATM    3  N   UNL     1      43.551 -12.859   5.409  1.00  0.00    -0.309 N 
HETATM    4  O   UNL     1      43.450 -11.545   3.501  1.00  0.00    -0.247 OA
HETATM    5  H   UNL     1      43.428 -13.814   5.711  1.00  0.00     0.170 HD
ENDROOT
BRANCH   1   6
HETATM    6  C   UNL     1      42.514 -13.585   1.984  1.00  0.00     0.155 C 
BRANCH   6   7
HETATM    7  C   UNL     1      41.065 -13.521   1.475  1.00  0.00     0.254 C 
BRANCH   7   8
HETATM    8  N   UNL     1      41.013 -13.572  -0.048  1.00  0.00    -0.077 N 
HETATM    9  C   UNL     1      40.949 -12.204  -0.675  1.00  0.00     0.269 C 
HETATM   10  H   UNL     1      41.879 -14.018  -0.381  1.00  0.00     0.279 HD
HETATM   11  C   UNL     1      39.885 -14.443  -0.534  1.00  0.00     0.269 C 
ENDBRANCH   7   8
ENDBRANCH   6   7
ENDBRANCH   1   6
BRANCH   1  12
HETATM   12  C   UNL     1      41.969 -14.800   4.103  1.00  0.00     0.166 C 
BRANCH  12  13
HETATM   13  C   UNL     1      42.660 -16.125   3.879  1.00  0.00    -0.040 A 
HETATM   14  C   UNL     1      42.430 -16.920   2.745  1.00  0.00     0.009 A 
HETATM   15  C   UNL     1      43.139 -18.107   2.554  1.00  0.00     0.001 A 
HETATM   16  C   UNL     1      44.072 -18.524   3.498  1.00  0.00     0.000 A 
HETATM   17  C   UNL     1      44.292 -17.760   4.641  1.00  0.00     0.001 A 
HETATM   18  C   UNL     1      43.588 -16.570   4.833  1.00  0.00     0.009 A 
ENDBRANCH  12  13
ENDBRANCH   1  12
BRANCH   3  19
HETATM   19  C   UNL     1      44.297 -12.081   6.316  1.00  0.00     0.042 A 
HETATM   20  C   UNL     1      43.748 -11.931   7.591  1.00  0.00     0.087 A 
HETATM   21  C   UNL     1      44.443 -11.201   8.541  1.00  0.00     0.171 A 
HETATM   22  N   UNL     1      45.630 -10.613   8.299  1.00  0.00    -0.237 NA
HETATM   23  C   UNL     1      46.139 -10.770   7.056  1.00  0.00     0.122 A 
HETATM   24  C   UNL     1      45.520 -11.488   6.040  1.00  0.00     0.049 A 
BRANCH  21  25
HETATM   25  O   UNL     1      43.820 -11.131   9.784  1.00  0.00    -0.292 OA
BRANCH  25  26
HETATM   26  C   UNL     1      43.394  -9.913  10.242  1.00  0.00     0.077 A 
HETATM   27  C   UNL     1      42.788  -8.974   9.408  1.00  0.00     0.037 A 
HETATM   28  C   UNL     1      42.490  -7.703   9.900  1.00  0.00     0.003 A 
HETATM   29  C   UNL     1      42.817  -7.366  11.215  1.00  0.00     0.000 A 
HETATM   30  C   UNL     1      43.442  -8.300  12.041  1.00  0.00     0.003 A 
HETATM   31  C   UNL     1      43.739  -9.572  11.551  1.00  0.00     0.037 A 
ENDBRANCH  25  26
ENDBRANCH  21  25
ENDBRANCH   3  19
TORSDOF 8
ENDMDL
MODEL 2
REMARK VINA RESULT:      -7.9      3.994      8.425
REMARK  8 active torsions:
REMARK  status: ('A' for Active; 'I' for Inactive)
REMARK    1  A    between atoms: N_2  and  C_4 
REMARK    2  A    between atoms: C_4  and  C_5 
REMARK    3  A    between atoms: C_5  and  N_6 
REMARK       I    between atoms: N_6  and  C_7 
REMARK    4  A    between atoms: N_6  and  C_23 
REMARK       I    between atoms: C_7  and  N_8 
REMARK    5  A    between atoms: N_8  and  C_9 
REMARK    6  A    between atoms: C_11  and  O_12 
REMARK    7  A    between atoms: O_12  and  C_13 
REMARK    8  A    between atoms: C_23  and  C_24 
ROOT
HETATM    1  N   UNL     1      41.414 -14.649   3.641  1.00  0.00    -0.328 N 
HETATM    2  C   UNL     1      40.582 -13.968   2.744  1.00  0.00     0.323 C 
HETATM    3  N   UNL     1      41.042 -13.961   1.450  1.00  0.00    -0.309 N 
HETATM    4  O   UNL     1      39.526 -13.483   3.139  1.00  0.00    -0.247 OA
HETATM    5  H   UNL     1      41.852 -14.531   1.262  1.00  0.00     0.170 HD
ENDROOT
BRANCH   1   6
HETATM    6  C   UNL     1      40.864 -14.990   4.949  1.00  0.00     0.155 C 
BRANCH   6   7
HETATM    7  C   UNL     1      41.133 -13.914   6.014  1.00  0.00     0.254 C 
BRANCH   7   8
HETATM    8  N   UNL     1      42.123 -14.409   7.061  1.00  0.00    -0.077 N 
HETATM    9  C   UNL     1      43.523 -13.905   6.824  1.00  0.00     0.269 C 
HETATM   10  H   UNL     1      41.823 -14.050   7.978  1.00  0.00     0.279 HD
HETATM   11  C   UNL     1      42.102 -15.911   7.177  1.00  0.00     0.269 C 
ENDBRANCH   7   8
ENDBRANCH   6   7
ENDBRANCH   1   6
BRANCH   1  12
HETATM   12  C   UNL     1      42.827 -14.963   3.396  1.00  0.00     0.166 C 
BRANCH  12  13
HETATM   13  C   UNL     1      43.142 -16.439   3.333  1.00  0.00    -0.040 A 
HETATM   14  C   UNL     1      42.703 -17.265   2.286  1.00  0.00     0.009 A 
HETATM   15  C   UNL     1      43.073 -18.610   2.239  1.00  0.00     0.001 A 
HETATM   16  C   UNL     1      43.869 -19.151   3.244  1.00  0.00     0.000 A 
HETATM   17  C   UNL     1      44.290 -18.352   4.303  1.00  0.00     0.001 A 
HETATM   18  C   UNL     1      43.927 -17.005   4.350  1.00  0.00     0.009 A 
ENDBRANCH  12  13
ENDBRANCH   1  12
BRANCH   3  19
HETATM   19  C   UNL     1      40.400 -13.504   0.282  1.00  0.00     0.042 A 
HETATM   20  C   UNL     1      40.275 -12.119   0.153  1.00  0.00     0.087 A 
HETATM   21  C   UNL     1      39.680 -11.599  -0.984  1.00  0.00     0.171 A 
HETATM   22  N   UNL     1      39.200 -12.365  -1.983  1.00  0.00    -0.237 NA
HETATM   23  C   UNL     1      39.329 -13.703  -1.833  1.00  0.00     0.122 A 
HETATM   24  C   UNL     1      39.917 -14.316  -0.732  1.00  0.00     0.049 A 
BRANCH  21  25
HETATM   25  O   UNL     1      39.625 -10.209  -1.023  1.00  0.00    -0.292 OA
BRANCH  25  26
HETATM   26  C   UNL     1      40.675  -9.522  -1.573  1.00  0.00     0.077 A 
HETATM   27  C   UNL     1      41.751  -9.072  -0.810  1.00  0.00     0.037 A 
HETATM   28  C   UNL     1      42.728  -8.268  -1.401  1.00  0.00     0.003 A 
HETATM   29  C   UNL     1      42.615  -7.900  -2.742  1.00  0.00     0.000 A 
HETATM   30  C   UNL     1      41.526  -8.334  -3.498  1.00  0.00     0.003 A 
HETATM   31  C   UNL     1      40.550  -9.138  -2.910  1.00  0.00     0.037 A 
ENDBRANCH  25  26
ENDBRANCH  21  25
ENDBRANCH   3  19
TORSDOF 8
ENDMDL
MODEL 3
REMARK VINA RESULT:      -7.8      2.805      8.679
REMARK  8 active torsions:
REMARK  status: ('A' for Active; 'I' for Inactive)
REMARK    1  A    between atoms: N_2  and  C_4 
REMARK    2  A    between atoms: C_4  and  C_5 
REMARK    3  A    between atoms: C_5  and  N_6 
REMARK       I    between atoms: N_6  and  C_7 
REMARK    4  A    between atoms: N_6  and  C_23 
REMARK       I    between atoms: C_7  and  N_8 
REMARK    5  A    between atoms: N_8  and  C_9 
REMARK    6  A    between atoms: C_11  and  O_12 
REMARK    7  A    between atoms: O_12  and  C_13 
REMARK    8  A    between atoms: C_23  and  C_24 
ROOT
HETATM    1  N   UNL     1      42.520 -14.363   4.965  1.00  0.00    -0.328 N 
HETATM    2  C   UNL     1      42.113 -13.380   4.055  1.00  0.00     0.323 C 
HETATM    3  N   UNL     1      40.852 -13.575   3.548  1.00  0.00    -0.309 N 
HETATM    4  O   UNL     1      42.851 -12.429   3.812  1.00  0.00    -0.247 OA
HETATM    5  H   UNL     1      40.317 -14.324   3.961  1.00  0.00     0.170 HD
ENDROOT
BRANCH   1   6
HETATM    6  C   UNL     1      43.689 -14.078   5.792  1.00  0.00     0.155 C 
BRANCH   6   7
HETATM    7  C   UNL     1      43.324 -13.572   7.197  1.00  0.00     0.254 C 
BRANCH   7   8
HETATM    8  N   UNL     1      43.802 -12.140   7.408  1.00  0.00    -0.077 N 
HETATM    9  C   UNL     1      42.799 -11.116   6.942  1.00  0.00     0.269 C 
HETATM   10  H   UNL     1      43.935 -11.994   8.418  1.00  0.00     0.279 HD
HETATM   11  C   UNL     1      45.147 -11.905   6.774  1.00  0.00     0.269 C 
ENDBRANCH   7   8
ENDBRANCH   6   7
ENDBRANCH   1   6
BRANCH   1  12
HETATM   12  C   UNL     1      41.915 -15.695   5.082  1.00  0.00     0.166 C 
BRANCH  12  13
HETATM   13  C   UNL     1      42.649 -16.787   4.339  1.00  0.00    -0.040 A 
HETATM   14  C   UNL     1      43.591 -17.624   4.957  1.00  0.00     0.009 A 
HETATM   15  C   UNL     1      44.198 -18.660   4.244  1.00  0.00     0.001 A 
HETATM   16  C   UNL     1      43.886 -18.861   2.903  1.00  0.00     0.000 A 
HETATM   17  C   UNL     1      42.974 -18.022   2.269  1.00  0.00     0.001 A 
HETATM   18  C   UNL     1      42.362 -16.989   2.980  1.00  0.00     0.009 A 
ENDBRANCH  12  13
ENDBRANCH   1  12
BRANCH   3  19
HETATM   19  C   UNL     1      40.078 -12.721   2.736  1.00  0.00     0.042 A 
HETATM   20  C   UNL     1      40.414 -12.696   1.381  1.00  0.00     0.087 A 
HETATM   21  C   UNL     1      39.677 -11.900   0.520  1.00  0.00     0.171 A 
HETATM   22  N   UNL     1      38.646 -11.133   0.923  1.00  0.00    -0.237 NA
HETATM   23  C   UNL     1      38.343 -11.172   2.240  1.00  0.00     0.122 A 
HETATM   24  C   UNL     1      39.020 -11.943   3.178  1.00  0.00     0.049 A 
BRANCH  21  25
HETATM   25  O   UNL     1      40.079 -11.963  -0.811  1.00  0.00    -0.292 OA
BRANCH  25  26
HETATM   26  C   UNL     1      39.380 -12.763  -1.675  1.00  0.00     0.077 A 
HETATM   27  C   UNL     1      38.062 -12.491  -2.040  1.00  0.00     0.037 A 
HETATM   28  C   UNL     1      37.359 -13.408  -2.823  1.00  0.00     0.003 A 
HETATM   29  C   UNL     1      37.965 -14.601  -3.220  1.00  0.00     0.000 A 
HETATM   30  C   UNL     1      39.277 -14.881  -2.835  1.00  0.00     0.003 A 
HETATM   31  C   UNL     1      39.981 -13.965  -2.054  1.00  0.00     0.037 A 
ENDBRANCH  25  26
ENDBRANCH  21  25
ENDBRANCH   3  19
TORSDOF 8
ENDMDL
MODEL 4
REMARK VINA RESULT:      -7.7      3.577      9.266
REMARK  8 active torsions:
REMARK  status: ('A' for Active; 'I' for Inactive)
REMARK    1  A    between atoms: N_2  and  C_4 
REMARK    2  A    between atoms: C_4  and  C_5 
REMARK    3  A    between atoms: C_5  and  N_6 
REMARK       I    between atoms: N_6  and  C_7 
REMARK    4  A    between atoms: N_6  and  C_23 
REMARK       I    between atoms: C_7  and  N_8 
REMARK    5  A    between atoms: N_8  and  C_9 
REMARK    6  A    between atoms: C_11  and  O_12 
REMARK    7  A    between atoms: O_12  and  C_13 
REMARK    8  A    between atoms: C_23  and  C_24 
ROOT
HETATM    1  N   UNL     1      41.587  -9.158  10.794  1.00  0.00    -0.328 N 
HETATM    2  C   UNL     1      42.420  -9.199   9.671  1.00  0.00     0.323 C 
HETATM    3  N   UNL     1      43.328 -10.229   9.684  1.00  0.00    -0.309 N 
HETATM    4  O   UNL     1      42.267  -8.383   8.766  1.00  0.00    -0.247 OA
HETATM    5  H   UNL     1      43.227 -10.902  10.429  1.00  0.00     0.170 HD
ENDROOT
BRANCH   1   6
HETATM    6  C   UNL     1      40.396  -8.317  10.724  1.00  0.00     0.155 C 
BRANCH   6   7
HETATM    7  C   UNL     1      39.326  -8.868   9.768  1.00  0.00     0.254 C 
BRANCH   7   8
HETATM    8  N   UNL     1      38.904  -7.816   8.749  1.00  0.00    -0.077 N 
HETATM    9  C   UNL     1      39.249  -8.204   7.334  1.00  0.00     0.269 C 
HETATM   10  H   UNL     1      37.880  -7.720   8.795  1.00  0.00     0.279 HD
HETATM   11  C   UNL     1      39.462  -6.459   9.089  1.00  0.00     0.269 C 
ENDBRANCH   7   8
ENDBRANCH   6   7
ENDBRANCH   1   6
BRANCH   1  12
HETATM   12  C   UNL     1      41.874  -9.823  12.071  1.00  0.00     0.166 C 
BRANCH  12  13
HETATM   13  C   UNL     1      42.142  -8.884  13.224  1.00  0.00    -0.040 A 
HETATM   14  C   UNL     1      43.162  -7.920  13.197  1.00  0.00     0.009 A 
HETATM   15  C   UNL     1      43.330  -7.033  14.262  1.00  0.00     0.001 A 
HETATM   16  C   UNL     1      42.497  -7.110  15.373  1.00  0.00     0.000 A 
HETATM   17  C   UNL     1      41.498  -8.078  15.427  1.00  0.00     0.001 A 
HETATM   18  C   UNL     1      41.324  -8.963  14.362  1.00  0.00     0.009 A 
ENDBRANCH  12  13
ENDBRANCH   1  12
BRANCH   3  19
HETATM   19  C   UNL     1      44.207 -10.654   8.668  1.00  0.00     0.042 A 
HETATM   20  C   UNL     1      43.661 -11.500   7.701  1.00  0.00     0.087 A 
HETATM   21  C   UNL     1      44.461 -11.934   6.657  1.00  0.00     0.171 A 
HETATM   22  N   UNL     1      45.756 -11.586   6.524  1.00  0.00    -0.237 NA
HETATM   23  C   UNL     1      46.262 -10.768   7.475  1.00  0.00     0.122 A 
HETATM   24  C   UNL     1      45.537 -10.278   8.555  1.00  0.00     0.049 A 
BRANCH  21  25
HETATM   25  O   UNL     1      43.816 -12.755   5.737  1.00  0.00    -0.292 OA
BRANCH  25  26
HETATM   26  C   UNL     1      43.064 -13.802   6.200  1.00  0.00     0.077 A 
HETATM   27  C   UNL     1      43.640 -14.943   6.756  1.00  0.00     0.037 A 
HETATM   28  C   UNL     1      42.832 -16.030   7.094  1.00  0.00     0.003 A 
HETATM   29  C   UNL     1      41.457 -15.982   6.855  1.00  0.00     0.000 A 
HETATM   30  C   UNL     1      40.886 -14.847   6.278  1.00  0.00     0.003 A 
HETATM   31  C   UNL     1      41.692 -13.760   5.942  1.00  0.00     0.037 A 
ENDBRANCH  25  26
ENDBRANCH  21  25
ENDBRANCH   3  19
TORSDOF 8
ENDMDL
MODEL 5
REMARK VINA RESULT:      -7.7      1.627      2.198
REMARK  8 active torsions:
REMARK  status: ('A' for Active; 'I' for Inactive)
REMARK    1  A    between atoms: N_2  and  C_4 
REMARK    2  A    between atoms: C_4  and  C_5 
REMARK    3  A    between atoms: C_5  and  N_6 
REMARK       I    between atoms: N_6  and  C_7 
REMARK    4  A    between atoms: N_6  and  C_23 
REMARK       I    between atoms: C_7  and  N_8 
REMARK    5  A    between atoms: N_8  and  C_9 
REMARK    6  A    between atoms: C_11  and  O_12 
REMARK    7  A    between atoms: O_12  and  C_13 
REMARK    8  A    between atoms: C_23  and  C_24 
ROOT
HETATM    1  N   UNL     1      42.282 -14.117   3.002  1.00  0.00    -0.328 N 
HETATM    2  C   UNL     1      42.673 -12.944   3.658  1.00  0.00     0.323 C 
HETATM    3  N   UNL     1      42.886 -13.102   5.006  1.00  0.00    -0.309 N 
HETATM    4  O   UNL     1      42.840 -11.911   3.016  1.00  0.00    -0.247 OA
HETATM    5  H   UNL     1      42.850 -14.047   5.355  1.00  0.00     0.170 HD
ENDROOT
BRANCH   1   6
HETATM    6  C   UNL     1      42.349 -14.132   1.544  1.00  0.00     0.155 C 
BRANCH   6   7
HETATM    7  C   UNL     1      41.048 -14.620   0.887  1.00  0.00     0.254 C 
BRANCH   7   8
HETATM    8  N   UNL     1      40.801 -13.911  -0.440  1.00  0.00    -0.077 N 
HETATM    9  C   UNL     1      40.877 -12.411  -0.322  1.00  0.00     0.269 C 
HETATM   10  H   UNL     1      41.538 -14.201  -1.098  1.00  0.00     0.279 HD
HETATM   11  C   UNL     1      39.498 -14.339  -1.062  1.00  0.00     0.269 C 
ENDBRANCH   7   8
ENDBRANCH   6   7
ENDBRANCH   1   6
BRANCH   1  12
HETATM   12  C   UNL     1      41.721 -15.299   3.668  1.00  0.00     0.166 C 
BRANCH  12  13
HETATM   13  C   UNL     1      42.651 -16.488   3.730  1.00  0.00    -0.040 A 
HETATM   14  C   UNL     1      43.528 -16.710   4.803  1.00  0.00     0.009 A 
HETATM   15  C   UNL     1      44.324 -17.857   4.844  1.00  0.00     0.001 A 
HETATM   16  C   UNL     1      44.267 -18.784   3.809  1.00  0.00     0.000 A 
HETATM   17  C   UNL     1      43.422 -18.565   2.725  1.00  0.00     0.001 A 
HETATM   18  C   UNL     1      42.621 -17.422   2.683  1.00  0.00     0.009 A 
ENDBRANCH  12  13
ENDBRANCH   1  12
BRANCH   3  19
HETATM   19  C   UNL     1      43.419 -12.186   5.935  1.00  0.00     0.042 A 
HETATM   20  C   UNL     1      42.606 -11.098   6.259  1.00  0.00     0.087 A 
HETATM   21  C   UNL     1      43.056 -10.173   7.186  1.00  0.00     0.171 A 
HETATM   22  N   UNL     1      44.254 -10.261   7.795  1.00  0.00    -0.237 NA
HETATM   23  C   UNL     1      45.025 -11.321   7.462  1.00  0.00     0.122 A 
HETATM   24  C   UNL     1      44.657 -12.302   6.548  1.00  0.00     0.049 A 
BRANCH  21  25
HETATM   25  O   UNL     1      42.161  -9.141   7.454  1.00  0.00    -0.292 OA
BRANCH  25  26
HETATM   26  C   UNL     1      41.349  -9.239   8.552  1.00  0.00     0.077 A 
HETATM   27  C   UNL     1      41.851  -9.225   9.853  1.00  0.00     0.037 A 
HETATM   28  C   UNL     1      40.991  -9.456  10.928  1.00  0.00     0.003 A 
HETATM   29  C   UNL     1      39.639  -9.720  10.699  1.00  0.00     0.000 A 
HETATM   30  C   UNL     1      39.144  -9.754   9.396  1.00  0.00     0.003 A 
HETATM   31  C   UNL     1      40.001  -9.522   8.321  1.00  0.00     0.037 A 
ENDBRANCH  25  26
ENDBRANCH  21  25
ENDBRANCH   3  19
TORSDOF 8
ENDMDL
MODEL 6
REMARK VINA RESULT:      -7.5      3.990      8.200
REMARK  8 active torsions:
REMARK  status: ('A' for Active; 'I' for Inactive)
REMARK    1  A    between atoms: N_2  and  C_4 
REMARK    2  A    between atoms: C_4  and  C_5 
REMARK    3  A    between atoms: C_5  and  N_6 
REMARK       I    between atoms: N_6  and  C_7 
REMARK    4  A    between atoms: N_6  and  C_23 
REMARK       I    between atoms: C_7  and  N_8 
REMARK    5  A    between atoms: N_8  and  C_9 
REMARK    6  A    between atoms: C_11  and  O_12 
REMARK    7  A    between atoms: O_12  and  C_13 
REMARK    8  A    between atoms: C_23  and  C_24 
ROOT
HETATM    1  N   UNL     1      41.323 -14.664   3.339  1.00  0.00    -0.328 N 
HETATM    2  C   UNL     1      40.523 -14.116   2.330  1.00  0.00     0.323 C 
HETATM    3  N   UNL     1      41.079 -14.183   1.076  1.00  0.00    -0.309 N 
HETATM    4  O   UNL     1      39.411 -13.673   2.604  1.00  0.00    -0.247 OA
HETATM    5  H   UNL     1      41.935 -14.711   0.996  1.00  0.00     0.170 HD
ENDROOT
BRANCH   1   6
HETATM    6  C   UNL     1      40.697 -14.933   4.629  1.00  0.00     0.155 C 
BRANCH   6   7
HETATM    7  C   UNL     1      41.110 -13.931   5.720  1.00  0.00     0.254 C 
BRANCH   7   8
HETATM    8  N   UNL     1      40.788 -12.500   5.306  1.00  0.00    -0.077 N 
HETATM    9  C   UNL     1      41.962 -11.570   5.464  1.00  0.00     0.269 C 
HETATM   10  H   UNL     1      40.539 -12.507   4.307  1.00  0.00     0.279 HD
HETATM   11  C   UNL     1      39.578 -11.973   6.031  1.00  0.00     0.269 C 
ENDBRANCH   7   8
ENDBRANCH   6   7
ENDBRANCH   1   6
BRANCH   1  12
HETATM   12  C   UNL     1      42.768 -14.899   3.224  1.00  0.00     0.166 C 
BRANCH  12  13
HETATM   13  C   UNL     1      43.178 -16.351   3.307  1.00  0.00    -0.040 A 
HETATM   14  C   UNL     1      43.835 -16.891   4.424  1.00  0.00     0.009 A 
HETATM   15  C   UNL     1      44.138 -18.253   4.481  1.00  0.00     0.001 A 
HETATM   16  C   UNL     1      43.806 -19.087   3.418  1.00  0.00     0.000 A 
HETATM   17  C   UNL     1      43.178 -18.562   2.292  1.00  0.00     0.001 A 
HETATM   18  C   UNL     1      42.869 -17.202   2.235  1.00  0.00     0.009 A 
ENDBRANCH  12  13
ENDBRANCH   1  12
BRANCH   3  19
HETATM   19  C   UNL     1      40.503 -13.868  -0.170  1.00  0.00     0.042 A 
HETATM   20  C   UNL     1      40.972 -12.706  -0.786  1.00  0.00     0.087 A 
HETATM   21  C   UNL     1      40.469 -12.351  -2.027  1.00  0.00     0.171 A 
HETATM   22  N   UNL     1      39.533 -13.069  -2.677  1.00  0.00    -0.237 NA
HETATM   23  C   UNL     1      39.092 -14.188  -2.059  1.00  0.00     0.122 A 
HETATM   24  C   UNL     1      39.541 -14.627  -0.819  1.00  0.00     0.049 A 
BRANCH  21  25
HETATM   25  O   UNL     1      41.019 -11.189  -2.562  1.00  0.00    -0.292 OA
BRANCH  25  26
HETATM   26  C   UNL     1      40.899 -10.019  -1.862  1.00  0.00     0.077 A 
HETATM   27  C   UNL     1      42.002  -9.356  -1.325  1.00  0.00     0.037 A 
HETATM   28  C   UNL     1      41.809  -8.237  -0.514  1.00  0.00     0.003 A 
HETATM   29  C   UNL     1      40.516  -7.796  -0.225  1.00  0.00     0.000 A 
HETATM   30  C   UNL     1      39.413  -8.474  -0.745  1.00  0.00     0.003 A 
HETATM   31  C   UNL     1      39.605  -9.591  -1.557  1.00  0.00     0.037 A 
ENDBRANCH  25  26
ENDBRANCH  21  25
ENDBRANCH   3  19
TORSDOF 8
ENDMDL
MODEL 7
REMARK VINA RESULT:      -7.4      1.692      2.439
REMARK  8 active torsions:
REMARK  status: ('A' for Active; 'I' for Inactive)
REMARK    1  A    between atoms: N_2  and  C_4 
REMARK    2  A    between atoms: C_4  and  C_5 
REMARK    3  A    between atoms: C_5  and  N_6 
REMARK       I    between atoms: N_6  and  C_7 
REMARK    4  A    between atoms: N_6  and  C_23 
REMARK       I    between atoms: C_7  and  N_8 
REMARK    5  A    between atoms: N_8  and  C_9 
REMARK    6  A    between atoms: C_11  and  O_12 
REMARK    7  A    between atoms: O_12  and  C_13 
REMARK    8  A    between atoms: C_23  and  C_24 
ROOT
HETATM    1  N   UNL     1      42.314 -12.848   4.132  1.00  0.00    -0.328 N 
HETATM    2  C   UNL     1      43.129 -11.826   4.632  1.00  0.00     0.323 C 
HETATM    3  N   UNL     1      43.316 -11.873   5.992  1.00  0.00    -0.309 N 
HETATM    4  O   UNL     1      43.640 -11.019   3.860  1.00  0.00    -0.247 OA
HETATM    5  H   UNL     1      42.949 -12.686   6.463  1.00  0.00     0.170 HD
ENDROOT
BRANCH   1   6
HETATM    6  C   UNL     1      42.321 -13.076   2.691  1.00  0.00     0.155 C 
BRANCH   6   7
HETATM    7  C   UNL     1      43.412 -14.061   2.241  1.00  0.00     0.254 C 
BRANCH   7   8
HETATM    8  N   UNL     1      42.854 -15.095   1.270  1.00  0.00    -0.077 N 
HETATM    9  C   UNL     1      41.354 -15.026   1.143  1.00  0.00     0.269 C 
HETATM   10  H   UNL     1      43.246 -14.900   0.338  1.00  0.00     0.279 HD
HETATM   11  C   UNL     1      43.304 -16.488   1.624  1.00  0.00     0.269 C 
ENDBRANCH   7   8
ENDBRANCH   6   7
ENDBRANCH   1   6
BRANCH   1  12
HETATM   12  C   UNL     1      41.383 -13.644   4.940  1.00  0.00     0.166 C 
BRANCH  12  13
HETATM   13  C   UNL     1      42.006 -14.836   5.628  1.00  0.00    -0.040 A 
HETATM   14  C   UNL     1      42.458 -14.795   6.956  1.00  0.00     0.009 A 
HETATM   15  C   UNL     1      42.971 -15.941   7.568  1.00  0.00     0.001 A 
HETATM   16  C   UNL     1      43.055 -17.134   6.857  1.00  0.00     0.000 A 
HETATM   17  C   UNL     1      42.636 -17.184   5.531  1.00  0.00     0.001 A 
HETATM   18  C   UNL     1      42.118 -16.041   4.918  1.00  0.00     0.009 A 
ENDBRANCH  12  13
ENDBRANCH   1  12
BRANCH   3  19
HETATM   19  C   UNL     1      44.178 -11.104   6.798  1.00  0.00     0.042 A 
HETATM   20  C   UNL     1      43.564 -10.176   7.640  1.00  0.00     0.087 A 
HETATM   21  C   UNL     1      44.351  -9.406   8.481  1.00  0.00     0.171 A 
HETATM   22  N   UNL     1      45.693  -9.498   8.526  1.00  0.00    -0.237 NA
HETATM   23  C   UNL     1      46.265 -10.402   7.699  1.00  0.00     0.122 A 
HETATM   24  C   UNL     1      45.560 -11.222   6.826  1.00  0.00     0.049 A 
BRANCH  21  25
HETATM   25  O   UNL     1      43.639  -8.528   9.294  1.00  0.00    -0.292 OA
BRANCH  25  26
HETATM   26  C   UNL     1      42.889  -9.038  10.320  1.00  0.00     0.077 A 
HETATM   27  C   UNL     1      41.496  -9.072  10.278  1.00  0.00     0.037 A 
HETATM   28  C   UNL     1      40.781  -9.486  11.403  1.00  0.00     0.003 A 
HETATM   29  C   UNL     1      41.457  -9.843  12.571  1.00  0.00     0.000 A 
HETATM   30  C   UNL     1      42.850  -9.788  12.617  1.00  0.00     0.003 A 
HETATM   31  C   UNL     1      43.566  -9.376  11.493  1.00  0.00     0.037 A 
ENDBRANCH  25  26
ENDBRANCH  21  25
ENDBRANCH   3  19
TORSDOF 8
ENDMDL
MODEL 8
REMARK VINA RESULT:      -7.4      3.893      8.048
REMARK  8 active torsions:
REMARK  status: ('A' for Active; 'I' for Inactive)
REMARK    1  A    between atoms: N_2  and  C_4 
REMARK    2  A    between atoms: C_4  and  C_5 
REMARK    3  A    between atoms: C_5  and  N_6 
REMARK       I    between atoms: N_6  and  C_7 
REMARK    4  A    between atoms: N_6  and  C_23 
REMARK       I    between atoms: C_7  and  N_8 
REMARK    5  A    between atoms: N_8  and  C_9 
REMARK    6  A    between atoms: C_11  and  O_12 
REMARK    7  A    between atoms: O_12  and  C_13 
REMARK    8  A    between atoms: C_23  and  C_24 
ROOT
HETATM    1  N   UNL     1      41.335 -14.718   3.614  1.00  0.00    -0.328 N 
HETATM    2  C   UNL     1      40.455 -14.158   2.681  1.00  0.00     0.323 C 
HETATM    3  N   UNL     1      40.879 -14.262   1.379  1.00  0.00    -0.309 N 
HETATM    4  O   UNL     1      39.391 -13.675   3.059  1.00  0.00    -0.247 OA
HETATM    5  H   UNL     1      41.705 -14.819   1.223  1.00  0.00     0.170 HD
ENDROOT
BRANCH   1   6
HETATM    6  C   UNL     1      40.835 -14.948   4.965  1.00  0.00     0.155 C 
BRANCH   6   7
HETATM    7  C   UNL     1      41.306 -13.885   5.971  1.00  0.00     0.254 C 
BRANCH   7   8
HETATM    8  N   UNL     1      40.952 -12.480   5.495  1.00  0.00    -0.077 N 
HETATM    9  C   UNL     1      42.121 -11.531   5.562  1.00  0.00     0.269 C 
HETATM   10  H   UNL     1      40.668 -12.541   4.507  1.00  0.00     0.279 HD
HETATM   11  C   UNL     1      39.764 -11.927   6.235  1.00  0.00     0.269 C 
ENDBRANCH   7   8
ENDBRANCH   6   7
ENDBRANCH   1   6
BRANCH   1  12
HETATM   12  C   UNL     1      42.752 -15.004   3.358  1.00  0.00     0.166 C 
BRANCH  12  13
HETATM   13  C   UNL     1      43.107 -16.472   3.348  1.00  0.00    -0.040 A 
HETATM   14  C   UNL     1      42.759 -17.330   2.292  1.00  0.00     0.009 A 
HETATM   15  C   UNL     1      43.163 -18.666   2.299  1.00  0.00     0.001 A 
HETATM   16  C   UNL     1      43.902 -19.167   3.367  1.00  0.00     0.000 A 
HETATM   17  C   UNL     1      44.232 -18.336   4.433  1.00  0.00     0.001 A 
HETATM   18  C   UNL     1      43.834 -16.998   4.427  1.00  0.00     0.009 A 
ENDBRANCH  12  13
ENDBRANCH   1  12
BRANCH   3  19
HETATM   19  C   UNL     1      40.189 -13.945   0.192  1.00  0.00     0.042 A 
HETATM   20  C   UNL     1      40.018 -12.585  -0.073  1.00  0.00     0.087 A 
HETATM   21  C   UNL     1      39.373 -12.201  -1.237  1.00  0.00     0.171 A 
HETATM   22  N   UNL     1      38.888 -13.078  -2.136  1.00  0.00    -0.237 NA
HETATM   23  C   UNL     1      39.063 -14.390  -1.856  1.00  0.00     0.122 A 
HETATM   24  C   UNL     1      39.701 -14.870  -0.719  1.00  0.00     0.049 A 
BRANCH  21  25
HETATM   25  O   UNL     1      39.274 -10.824  -1.415  1.00  0.00    -0.292 OA
BRANCH  25  26
HETATM   26  C   UNL     1      38.436 -10.111  -0.601  1.00  0.00     0.077 A 
HETATM   27  C   UNL     1      38.902  -9.124   0.267  1.00  0.00     0.037 A 
HETATM   28  C   UNL     1      38.020  -8.519   1.163  1.00  0.00     0.003 A 
HETATM   29  C   UNL     1      36.682  -8.917   1.206  1.00  0.00     0.000 A 
HETATM   30  C   UNL     1      36.223  -9.920   0.352  1.00  0.00     0.003 A 
HETATM   31  C   UNL     1      37.103 -10.524  -0.546  1.00  0.00     0.037 A 
ENDBRANCH  25  26
ENDBRANCH  21  25
ENDBRANCH   3  19
TORSDOF 8
ENDMDL
MODEL 9
REMARK VINA RESULT:      -7.3      3.142      9.393
REMARK  8 active torsions:
REMARK  status: ('A' for Active; 'I' for Inactive)
REMARK    1  A    between atoms: N_2  and  C_4 
REMARK    2  A    between atoms: C_4  and  C_5 
REMARK    3  A    between atoms: C_5  and  N_6 
REMARK       I    between atoms: N_6  and  C_7 
REMARK    4  A    between atoms: N_6  and  C_23 
REMARK       I    between atoms: C_7  and  N_8 
REMARK    5  A    between atoms: N_8  and  C_9 
REMARK    6  A    between atoms: C_11  and  O_12 
REMARK    7  A    between atoms: O_12  and  C_13 
REMARK    8  A    between atoms: C_23  and  C_24 
ROOT
HETATM    1  N   UNL     1      40.354  -9.091   8.735  1.00  0.00    -0.328 N 
HETATM    2  C   UNL     1      39.791  -9.996   7.828  1.00  0.00     0.323 C 
HETATM    3  N   UNL     1      40.667 -10.450   6.874  1.00  0.00    -0.309 N 
HETATM    4  O   UNL     1      38.622 -10.347   7.962  1.00  0.00    -0.247 OA
HETATM    5  H   UNL     1      41.632 -10.180   6.990  1.00  0.00     0.170 HD
ENDROOT
BRANCH   1   6
HETATM    6  C   UNL     1      39.612  -8.807   9.959  1.00  0.00     0.155 C 
BRANCH   6   7
HETATM    7  C   UNL     1      39.752  -9.912  11.019  1.00  0.00     0.254 C 
BRANCH   7   8
HETATM    8  N   UNL     1      39.367  -9.401  12.402  1.00  0.00    -0.077 N 
HETATM    9  C   UNL     1      39.062  -7.925  12.415  1.00  0.00     0.269 C 
HETATM   10  H   UNL     1      38.509  -9.889  12.694  1.00  0.00     0.279 HD
HETATM   11  C   UNL     1      40.411  -9.746  13.431  1.00  0.00     0.269 C 
ENDBRANCH   7   8
ENDBRANCH   6   7
ENDBRANCH   1   6
BRANCH   1  12
HETATM   12  C   UNL     1      41.590  -8.334   8.501  1.00  0.00     0.166 C 
BRANCH  12  13
HETATM   13  C   UNL     1      42.816  -8.908   9.173  1.00  0.00    -0.040 A 
HETATM   14  C   UNL     1      43.162  -8.611  10.501  1.00  0.00     0.009 A 
HETATM   15  C   UNL     1      44.271  -9.215  11.098  1.00  0.00     0.001 A 
HETATM   16  C   UNL     1      45.056 -10.105  10.373  1.00  0.00     0.000 A 
HETATM   17  C   UNL     1      44.742 -10.389   9.047  1.00  0.00     0.001 A 
HETATM   18  C   UNL     1      43.631  -9.791   8.448  1.00  0.00     0.009 A 
ENDBRANCH  12  13
ENDBRANCH   1  12
BRANCH   3  19
HETATM   19  C   UNL     1      40.486 -11.462   5.910  1.00  0.00     0.042 A 
HETATM   20  C   UNL     1      41.394 -12.521   5.956  1.00  0.00     0.087 A 
HETATM   21  C   UNL     1      41.257 -13.565   5.055  1.00  0.00     0.171 A 
HETATM   22  N   UNL     1      40.289 -13.611   4.120  1.00  0.00    -0.237 NA
HETATM   23  C   UNL     1      39.424 -12.572   4.093  1.00  0.00     0.122 A 
HETATM   24  C   UNL     1      39.478 -11.485   4.958  1.00  0.00     0.049 A 
BRANCH  21  25
HETATM   25  O   UNL     1      42.199 -14.580   5.200  1.00  0.00    -0.292 OA
BRANCH  25  26
HETATM   26  C   UNL     1      42.651 -15.226   4.081  1.00  0.00     0.077 A 
HETATM   27  C   UNL     1      43.089 -14.539   2.950  1.00  0.00     0.037 A 
HETATM   28  C   UNL     1      43.418 -15.249   1.794  1.00  0.00     0.003 A 
HETATM   29  C   UNL     1      43.288 -16.639   1.765  1.00  0.00     0.000 A 
HETATM   30  C   UNL     1      42.829 -17.322   2.891  1.00  0.00     0.003 A 
HETATM   31  C   UNL     1      42.501 -16.614   4.047  1.00  0.00     0.037 A 
ENDBRANCH  25  26
ENDBRANCH  21  25
ENDBRANCH   3  19
TORSDOF 8
ENDMDL
MODEL 10
REMARK VINA RESULT:      -6.9      4.503      8.406
REMARK  8 active torsions:
REMARK  status: ('A' for Active; 'I' for Inactive)
REMARK    1  A    between atoms: N_2  and  C_4 
REMARK    2  A    between atoms: C_4  and  C_5 
REMARK    3  A    between atoms: C_5  and  N_6 
REMARK       I    between atoms: N_6  and  C_7 
REMARK    4  A    between atoms: N_6  and  C_23 
REMARK       I    between atoms: C_7  and  N_8 
REMARK    5  A    between atoms: N_8  and  C_9 
REMARK    6  A    between atoms: C_11  and  O_12 
REMARK    7  A    between atoms: O_12  and  C_13 
REMARK    8  A    between atoms: C_23  and  C_24 
ROOT
HETATM    1  N   UNL     1      40.408 -11.239  -0.817  1.00  0.00    -0.328 N 
HETATM    2  C   UNL     1      40.798 -12.035   0.266  1.00  0.00     0.323 C 
HETATM    3  N   UNL     1      40.447 -11.525   1.491  1.00  0.00    -0.309 N 
HETATM    4  O   UNL     1      41.361 -13.108   0.064  1.00  0.00    -0.247 OA
HETATM    5  H   UNL     1      39.857 -10.707   1.480  1.00  0.00     0.170 HD
ENDROOT
BRANCH   1   6
HETATM    6  C   UNL     1      40.442 -11.840  -2.147  1.00  0.00     0.155 C 
BRANCH   6   7
HETATM    7  C   UNL     1      39.098 -11.743  -2.887  1.00  0.00     0.254 C 
BRANCH   7   8
HETATM    8  N   UNL     1      38.565 -13.125  -3.245  1.00  0.00    -0.077 N 
HETATM    9  C   UNL     1      37.154 -13.347  -2.765  1.00  0.00     0.269 C 
HETATM   10  H   UNL     1      38.551 -13.205  -4.272  1.00  0.00     0.279 HD
HETATM   11  C   UNL     1      39.481 -14.216  -2.757  1.00  0.00     0.269 C 
ENDBRANCH   7   8
ENDBRANCH   6   7
ENDBRANCH   1   6
BRANCH   1  12
HETATM   12  C   UNL     1      40.057  -9.817  -0.725  1.00  0.00     0.166 C 
BRANCH  12  13
HETATM   13  C   UNL     1      41.031  -8.883  -1.403  1.00  0.00    -0.040 A 
HETATM   14  C   UNL     1      42.340  -8.683  -0.937  1.00  0.00     0.009 A 
HETATM   15  C   UNL     1      43.224  -7.856  -1.633  1.00  0.00     0.001 A 
HETATM   16  C   UNL     1      42.808  -7.206  -2.791  1.00  0.00     0.000 A 
HETATM   17  C   UNL     1      41.504  -7.373  -3.250  1.00  0.00     0.001 A 
HETATM   18  C   UNL     1      40.620  -8.203  -2.559  1.00  0.00     0.009 A 
ENDBRANCH  12  13
ENDBRANCH   1  12
BRANCH   3  19
HETATM   19  C   UNL     1      40.548 -12.120   2.764  1.00  0.00     0.042 A 
HETATM   20  C   UNL     1      40.424 -13.510   2.802  1.00  0.00     0.087 A 
HETATM   21  C   UNL     1      40.542 -14.163   4.018  1.00  0.00     0.171 A 
HETATM   22  N   UNL     1      40.763 -13.524   5.182  1.00  0.00    -0.237 NA
HETATM   23  C   UNL     1      40.876 -12.177   5.120  1.00  0.00     0.122 A 
HETATM   24  C   UNL     1      40.778 -11.436   3.948  1.00  0.00     0.049 A 
BRANCH  21  25
HETATM   25  O   UNL     1      40.424 -15.548   3.942  1.00  0.00    -0.292 OA
BRANCH  25  26
HETATM   26  C   UNL     1      41.548 -16.294   3.704  1.00  0.00     0.077 A 
HETATM   27  C   UNL     1      41.825 -16.844   2.453  1.00  0.00     0.037 A 
HETATM   28  C   UNL     1      42.917 -17.700   2.301  1.00  0.00     0.003 A 
HETATM   29  C   UNL     1      43.714 -18.020   3.402  1.00  0.00     0.000 A 
HETATM   30  C   UNL     1      43.422 -17.486   4.657  1.00  0.00     0.003 A 
HETATM   31  C   UNL     1      42.332 -16.629   4.809  1.00  0.00     0.037 A 
ENDBRANCH  25  26
ENDBRANCH  21  25
ENDBRANCH   3  19
TORSDOF 8
ENDMDL
