MODEL 1
REMARK VINA RESULT:      -7.2      0.000      0.000
REMARK  5 active torsions:
REMARK  status: ('A' for Active; 'I' for Inactive)
REMARK    1  A    between atoms: C_7  and  C_8 
REMARK    2  A    between atoms: C_8  and  N_9 
REMARK    3  A    between atoms: C_12  and  C_13 
REMARK    4  A    between atoms: C_13  and  C_14 
REMARK    5  A    between atoms: C_14  and  O_15 
ROOT
HETATM    1  C   UNL     1      43.640 -15.974   6.686  1.00  0.00     0.020 A 
HETATM    2  C   UNL     1      43.251 -14.932   5.875  1.00  0.00     0.117 A 
HETATM    3  N   UNL     1      43.020 -15.059   4.546  1.00  0.00    -0.260 NA
HETATM    4  C   UNL     1      43.213 -16.270   3.977  1.00  0.00     0.076 A 
HETATM    5  C   UNL     1      43.597 -17.411   4.720  1.00  0.00     0.011 A 
HETATM    6  C   UNL     1      43.807 -17.224   6.102  1.00  0.00     0.016 A 
HETATM    7  C   UNL     1      42.999 -16.389   2.600  1.00  0.00    -0.003 A 
HETATM    8  C   UNL     1      43.157 -17.622   1.949  1.00  0.00     0.012 A 
HETATM    9  C   UNL     1      43.522 -18.749   2.672  1.00  0.00     0.020 A 
HETATM   10  C   UNL     1      43.744 -18.650   4.045  1.00  0.00     0.023 A 
HETATM   11 BR   UNL     1      44.238 -20.253   4.944  1.00  0.00    -0.050 Br
ENDROOT
BRANCH   7  12
HETATM   12  C   UNL     1      42.631 -15.167   1.793  1.00  0.00     0.275 C 
BRANCH  12  13
HETATM   13  N   UNL     1      41.199 -14.729   1.957  1.00  0.00    -0.067 N 
HETATM   14  H   UNL     1      40.929 -15.177   2.856  1.00  0.00     0.280 HD
HETATM   15  C   UNL     1      40.240 -15.228   0.905  1.00  0.00     0.240 C 
HETATM   16  C   UNL     1      39.829 -13.981   0.127  1.00  0.00     0.015 C 
HETATM   17  C   UNL     1      39.795 -12.931   1.236  1.00  0.00     0.034 C 
HETATM   18  C   UNL     1      41.017 -13.240   2.088  1.00  0.00     0.235 C 
BRANCH  16  19
HETATM   19  C   UNL     1      40.808 -13.594  -0.993  1.00  0.00     0.032 C 
BRANCH  19  20
HETATM   20  C   UNL     1      40.267 -13.846  -2.397  1.00  0.00     0.164 C 
BRANCH  20  21
HETATM   21  O   UNL     1      41.306 -13.592  -3.329  1.00  0.00    -0.401 OA
HETATM   22  H   UNL     1      41.941 -14.330  -3.284  1.00  0.00     0.209 HD
ENDBRANCH  20  21
ENDBRANCH  19  20
ENDBRANCH  16  19
ENDBRANCH  12  13
ENDBRANCH   7  12
TORSDOF 5
ENDMDL
MODEL 2
REMARK VINA RESULT:      -6.9      2.492      3.091
REMARK  5 active torsions:
REMARK  status: ('A' for Active; 'I' for Inactive)
REMARK    1  A    between atoms: C_7  and  C_8 
REMARK    2  A    between atoms: C_8  and  N_9 
REMARK    3  A    between atoms: C_12  and  C_13 
REMARK    4  A    between atoms: C_13  and  C_14 
REMARK    5  A    between atoms: C_14  and  O_15 
ROOT
HETATM    1  C   UNL     1      43.533 -16.428   7.099  1.00  0.00     0.020 A 
HETATM    2  C   UNL     1      43.314 -15.333   6.295  1.00  0.00     0.117 A 
HETATM    3  N   UNL     1      43.255 -15.393   4.943  1.00  0.00    -0.260 NA
HETATM    4  C   UNL     1      43.454 -16.590   4.347  1.00  0.00     0.076 A 
HETATM    5  C   UNL     1      43.671 -17.782   5.079  1.00  0.00     0.011 A 
HETATM    6  C   UNL     1      43.706 -17.662   6.485  1.00  0.00     0.016 A 
HETATM    7  C   UNL     1      43.418 -16.642   2.950  1.00  0.00    -0.003 A 
HETATM    8  C   UNL     1      43.592 -17.856   2.267  1.00  0.00     0.012 A 
HETATM    9  C   UNL     1      43.793 -19.031   2.978  1.00  0.00     0.020 A 
HETATM   10  C   UNL     1      43.836 -19.000   4.371  1.00  0.00     0.023 A 
HETATM   11 BR   UNL     1      44.116 -20.665   5.251  1.00  0.00    -0.050 Br
ENDROOT
BRANCH   7  12
HETATM   12  C   UNL     1      43.230 -15.369   2.160  1.00  0.00     0.275 C 
BRANCH  12  13
HETATM   13  N   UNL     1      41.854 -15.213   1.565  1.00  0.00    -0.067 N 
HETATM   14  H   UNL     1      41.985 -15.577   0.601  1.00  0.00     0.280 HD
HETATM   15  C   UNL     1      41.355 -13.794   1.442  1.00  0.00     0.240 C 
HETATM   16  C   UNL     1      40.203 -13.697   2.438  1.00  0.00     0.015 C 
HETATM   17  C   UNL     1      39.590 -15.092   2.327  1.00  0.00     0.034 C 
HETATM   18  C   UNL     1      40.787 -16.027   2.247  1.00  0.00     0.235 C 
BRANCH  16  19
HETATM   19  C   UNL     1      40.646 -13.383   3.876  1.00  0.00     0.032 C 
BRANCH  19  20
HETATM   20  C   UNL     1      39.624 -12.579   4.674  1.00  0.00     0.164 C 
BRANCH  20  21
HETATM   21  O   UNL     1      39.226 -13.348   5.796  1.00  0.00    -0.401 OA
HETATM   22  H   UNL     1      39.521 -12.885   6.602  1.00  0.00     0.209 HD
ENDBRANCH  20  21
ENDBRANCH  19  20
ENDBRANCH  16  19
ENDBRANCH  12  13
ENDBRANCH   7  12
TORSDOF 5
ENDMDL
MODEL 3
REMARK VINA RESULT:      -6.9      1.528      2.001
REMARK  5 active torsions:
REMARK  status: ('A' for Active; 'I' for Inactive)
REMARK    1  A    between atoms: C_7  and  C_8 
REMARK    2  A    between atoms: C_8  and  N_9 
REMARK    3  A    between atoms: C_12  and  C_13 
REMARK    4  A    between atoms: C_13  and  C_14 
REMARK    5  A    between atoms: C_14  and  O_15 
ROOT
HETATM    1  C   UNL     1      43.576 -17.611   6.777  1.00  0.00     0.020 A 
HETATM    2  C   UNL     1      43.327 -16.259   6.713  1.00  0.00     0.117 A 
HETATM    3  N   UNL     1      43.134 -15.583   5.555  1.00  0.00    -0.260 NA
HETATM    4  C   UNL     1      43.223 -16.269   4.393  1.00  0.00     0.076 A 
HETATM    5  C   UNL     1      43.459 -17.663   4.344  1.00  0.00     0.011 A 
HETATM    6  C   UNL     1      43.635 -18.318   5.582  1.00  0.00     0.016 A 
HETATM    7  C   UNL     1      43.049 -15.563   3.199  1.00  0.00    -0.003 A 
HETATM    8  C   UNL     1      43.104 -16.216   1.958  1.00  0.00     0.012 A 
HETATM    9  C   UNL     1      43.324 -17.585   1.902  1.00  0.00     0.020 A 
HETATM   10  C   UNL     1      43.503 -18.308   3.081  1.00  0.00     0.023 A 
HETATM   11 BR   UNL     1      43.796 -20.179   2.896  1.00  0.00    -0.050 Br
ENDROOT
BRANCH   7  12
HETATM   12  C   UNL     1      42.840 -14.068   3.240  1.00  0.00     0.275 C 
BRANCH  12  13
HETATM   13  N   UNL     1      41.563 -13.644   3.917  1.00  0.00    -0.067 N 
HETATM   14  H   UNL     1      41.744 -13.890   4.911  1.00  0.00     0.280 HD
HETATM   15  C   UNL     1      40.321 -14.388   3.491  1.00  0.00     0.240 C 
HETATM   16  C   UNL     1      39.481 -13.354   2.747  1.00  0.00     0.015 C 
HETATM   17  C   UNL     1      39.785 -12.087   3.545  1.00  0.00     0.034 C 
HETATM   18  C   UNL     1      41.276 -12.168   3.832  1.00  0.00     0.235 C 
BRANCH  16  19
HETATM   19  C   UNL     1      39.857 -13.195   1.265  1.00  0.00     0.032 C 
BRANCH  19  20
HETATM   20  C   UNL     1      40.150 -14.516   0.560  1.00  0.00     0.164 C 
BRANCH  20  21
HETATM   21  O   UNL     1      39.343 -14.590  -0.605  1.00  0.00    -0.401 OA
HETATM   22  H   UNL     1      39.466 -13.767  -1.112  1.00  0.00     0.209 HD
ENDBRANCH  20  21
ENDBRANCH  19  20
ENDBRANCH  16  19
ENDBRANCH  12  13
ENDBRANCH   7  12
TORSDOF 5
ENDMDL
MODEL 4
REMARK VINA RESULT:      -6.8      2.333      4.017
REMARK  5 active torsions:
REMARK  status: ('A' for Active; 'I' for Inactive)
REMARK    1  A    between atoms: C_7  and  C_8 
REMARK    2  A    between atoms: C_8  and  N_9 
REMARK    3  A    between atoms: C_12  and  C_13 
REMARK    4  A    between atoms: C_13  and  C_14 
REMARK    5  A    between atoms: C_14  and  O_15 
ROOT
HETATM    1  C   UNL     1      43.284 -17.200   1.975  1.00  0.00     0.020 A 
HETATM    2  C   UNL     1      43.182 -15.835   2.121  1.00  0.00     0.117 A 
HETATM    3  N   UNL     1      43.202 -15.203   3.318  1.00  0.00    -0.260 NA
HETATM    4  C   UNL     1      43.296 -15.957   4.437  1.00  0.00     0.076 A 
HETATM    5  C   UNL     1      43.422 -17.365   4.402  1.00  0.00     0.011 A 
HETATM    6  C   UNL     1      43.412 -17.968   3.126  1.00  0.00     0.016 A 
HETATM    7  C   UNL     1      43.291 -15.301   5.672  1.00  0.00    -0.003 A 
HETATM    8  C   UNL     1      43.409 -16.019   6.872  1.00  0.00     0.012 A 
HETATM    9  C   UNL     1      43.545 -17.400   6.846  1.00  0.00     0.020 A 
HETATM   10  C   UNL     1      43.549 -18.073   5.625  1.00  0.00     0.023 A 
HETATM   11 BR   UNL     1      43.742 -19.965   5.697  1.00  0.00    -0.050 Br
ENDROOT
BRANCH   7  12
HETATM   12  C   UNL     1      43.113 -13.802   5.721  1.00  0.00     0.275 C 
BRANCH  12  13
HETATM   13  N   UNL     1      41.766 -13.358   6.229  1.00  0.00    -0.067 N 
HETATM   14  H   UNL     1      41.790 -13.660   7.223  1.00  0.00     0.280 HD
HETATM   15  C   UNL     1      40.576 -14.028   5.588  1.00  0.00     0.240 C 
HETATM   16  C   UNL     1      39.890 -12.925   4.786  1.00  0.00     0.015 C 
HETATM   17  C   UNL     1      40.116 -11.712   5.688  1.00  0.00     0.034 C 
HETATM   18  C   UNL     1      41.546 -11.869   6.183  1.00  0.00     0.235 C 
BRANCH  16  19
HETATM   19  C   UNL     1      40.484 -12.710   3.385  1.00  0.00     0.032 C 
BRANCH  19  20
HETATM   20  C   UNL     1      39.817 -13.548   2.299  1.00  0.00     0.164 C 
BRANCH  20  21
HETATM   21  O   UNL     1      38.533 -13.937   2.758  1.00  0.00    -0.401 OA
HETATM   22  H   UNL     1      37.943 -14.008   1.985  1.00  0.00     0.209 HD
ENDBRANCH  20  21
ENDBRANCH  19  20
ENDBRANCH  16  19
ENDBRANCH  12  13
ENDBRANCH   7  12
TORSDOF 5
ENDMDL
MODEL 5
REMARK VINA RESULT:      -6.7      2.710      4.801
REMARK  5 active torsions:
REMARK  status: ('A' for Active; 'I' for Inactive)
REMARK    1  A    between atoms: C_7  and  C_8 
REMARK    2  A    between atoms: C_8  and  N_9 
REMARK    3  A    between atoms: C_12  and  C_13 
REMARK    4  A    between atoms: C_13  and  C_14 
REMARK    5  A    between atoms: C_14  and  O_15 
ROOT
HETATM    1  C   UNL     1      43.181 -16.556   1.912  1.00  0.00     0.020 A 
HETATM    2  C   UNL     1      42.670 -15.310   2.201  1.00  0.00     0.117 A 
HETATM    3  N   UNL     1      42.383 -14.888   3.456  1.00  0.00    -0.260 NA
HETATM    4  C   UNL     1      42.579 -15.749   4.480  1.00  0.00     0.076 A 
HETATM    5  C   UNL     1      43.114 -17.046   4.298  1.00  0.00     0.011 A 
HETATM    6  C   UNL     1      43.410 -17.425   2.971  1.00  0.00     0.016 A 
HETATM    7  C   UNL     1      42.257 -15.317   5.771  1.00  0.00    -0.003 A 
HETATM    8  C   UNL     1      42.458 -16.149   6.883  1.00  0.00     0.012 A 
HETATM    9  C   UNL     1      42.993 -17.419   6.713  1.00  0.00     0.020 A 
HETATM   10  C   UNL     1      43.318 -17.869   5.434  1.00  0.00     0.023 A 
HETATM   11 BR   UNL     1      44.047 -19.623   5.310  1.00  0.00    -0.050 Br
ENDROOT
BRANCH   7  12
HETATM   12  C   UNL     1      41.645 -13.951   5.970  1.00  0.00     0.275 C 
BRANCH  12  13
HETATM   13  N   UNL     1      42.547 -12.970   6.675  1.00  0.00    -0.067 N 
HETATM   14  H   UNL     1      42.230 -13.044   7.662  1.00  0.00     0.280 HD
HETATM   15  C   UNL     1      42.389 -11.528   6.262  1.00  0.00     0.240 C 
HETATM   16  C   UNL     1      43.691 -11.181   5.544  1.00  0.00     0.015 C 
HETATM   17  C   UNL     1      44.705 -11.990   6.351  1.00  0.00     0.034 C 
HETATM   18  C   UNL     1      44.011 -13.318   6.611  1.00  0.00     0.235 C 
BRANCH  16  19
HETATM   19  C   UNL     1      43.706 -11.573   4.057  1.00  0.00     0.032 C 
BRANCH  19  20
HETATM   20  C   UNL     1      42.365 -11.378   3.356  1.00  0.00     0.164 C 
BRANCH  20  21
HETATM   21  O   UNL     1      42.566 -10.539   2.231  1.00  0.00    -0.401 OA
HETATM   22  H   UNL     1      42.231 -11.004   1.442  1.00  0.00     0.209 HD
ENDBRANCH  20  21
ENDBRANCH  19  20
ENDBRANCH  16  19
ENDBRANCH  12  13
ENDBRANCH   7  12
TORSDOF 5
ENDMDL
MODEL 6
REMARK VINA RESULT:      -6.6      3.572      5.733
REMARK  5 active torsions:
REMARK  status: ('A' for Active; 'I' for Inactive)
REMARK    1  A    between atoms: C_7  and  C_8 
REMARK    2  A    between atoms: C_8  and  N_9 
REMARK    3  A    between atoms: C_12  and  C_13 
REMARK    4  A    between atoms: C_13  and  C_14 
REMARK    5  A    between atoms: C_14  and  O_15 
ROOT
HETATM    1  C   UNL     1      40.392 -16.061   1.628  1.00  0.00     0.020 A 
HETATM    2  C   UNL     1      39.972 -14.984   2.375  1.00  0.00     0.117 A 
HETATM    3  N   UNL     1      40.538 -14.616   3.549  1.00  0.00    -0.260 NA
HETATM    4  C   UNL     1      41.553 -15.367   4.032  1.00  0.00     0.076 A 
HETATM    5  C   UNL     1      42.074 -16.485   3.339  1.00  0.00     0.011 A 
HETATM    6  C   UNL     1      41.456 -16.812   2.113  1.00  0.00     0.016 A 
HETATM    7  C   UNL     1      42.118 -14.999   5.257  1.00  0.00    -0.003 A 
HETATM    8  C   UNL     1      43.190 -15.719   5.805  1.00  0.00     0.012 A 
HETATM    9  C   UNL     1      43.714 -16.810   5.126  1.00  0.00     0.020 A 
HETATM   10  C   UNL     1      43.164 -17.196   3.904  1.00  0.00     0.023 A 
HETATM   11 BR   UNL     1      43.955 -18.703   3.053  1.00  0.00    -0.050 Br
ENDROOT
BRANCH   7  12
HETATM   12  C   UNL     1      41.540 -13.833   6.025  1.00  0.00     0.275 C 
BRANCH  12  13
HETATM   13  N   UNL     1      41.753 -12.496   5.364  1.00  0.00    -0.067 N 
HETATM   14  H   UNL     1      41.106 -12.541   4.552  1.00  0.00     0.280 HD
HETATM   15  C   UNL     1      43.138 -12.252   4.817  1.00  0.00     0.240 C 
HETATM   16  C   UNL     1      43.721 -11.154   5.703  1.00  0.00     0.015 C 
HETATM   17  C   UNL     1      42.484 -10.303   5.982  1.00  0.00     0.034 C 
HETATM   18  C   UNL     1      41.373 -11.315   6.218  1.00  0.00     0.235 C 
BRANCH  16  19
HETATM   19  C   UNL     1      44.359 -11.674   7.001  1.00  0.00     0.032 C 
BRANCH  19  20
HETATM   20  C   UNL     1      45.756 -11.119   7.265  1.00  0.00     0.164 C 
BRANCH  20  21
HETATM   21  O   UNL     1      46.478 -11.125   6.044  1.00  0.00    -0.401 OA
HETATM   22  H   UNL     1      47.119 -10.391   6.068  1.00  0.00     0.209 HD
ENDBRANCH  20  21
ENDBRANCH  19  20
ENDBRANCH  16  19
ENDBRANCH  12  13
ENDBRANCH   7  12
TORSDOF 5
ENDMDL
MODEL 7
REMARK VINA RESULT:      -6.6      2.178      3.387
REMARK  5 active torsions:
REMARK  status: ('A' for Active; 'I' for Inactive)
REMARK    1  A    between atoms: C_7  and  C_8 
REMARK    2  A    between atoms: C_8  and  N_9 
REMARK    3  A    between atoms: C_12  and  C_13 
REMARK    4  A    between atoms: C_13  and  C_14 
REMARK    5  A    between atoms: C_14  and  O_15 
ROOT
HETATM    1  C   UNL     1      44.065 -18.772   3.301  1.00  0.00     0.020 A 
HETATM    2  C   UNL     1      43.223 -18.455   2.260  1.00  0.00     0.117 A 
HETATM    3  N   UNL     1      42.254 -17.512   2.337  1.00  0.00    -0.260 NA
HETATM    4  C   UNL     1      42.081 -16.869   3.514  1.00  0.00     0.076 A 
HETATM    5  C   UNL     1      42.900 -17.107   4.643  1.00  0.00     0.011 A 
HETATM    6  C   UNL     1      43.905 -18.087   4.499  1.00  0.00     0.016 A 
HETATM    7  C   UNL     1      41.061 -15.916   3.597  1.00  0.00    -0.003 A 
HETATM    8  C   UNL     1      40.841 -15.193   4.780  1.00  0.00     0.012 A 
HETATM    9  C   UNL     1      41.648 -15.412   5.888  1.00  0.00     0.020 A 
HETATM   10  C   UNL     1      42.668 -16.361   5.827  1.00  0.00     0.023 A 
HETATM   11 BR   UNL     1      43.717 -16.584   7.399  1.00  0.00    -0.050 Br
ENDROOT
BRANCH   7  12
HETATM   12  C   UNL     1      40.155 -15.686   2.411  1.00  0.00     0.275 C 
BRANCH  12  13
HETATM   13  N   UNL     1      40.843 -15.069   1.221  1.00  0.00    -0.067 N 
HETATM   14  H   UNL     1      41.550 -15.789   0.973  1.00  0.00     0.280 HD
HETATM   15  C   UNL     1      41.589 -13.786   1.493  1.00  0.00     0.240 C 
HETATM   16  C   UNL     1      40.802 -12.710   0.749  1.00  0.00     0.015 C 
HETATM   17  C   UNL     1      40.345 -13.476  -0.492  1.00  0.00     0.034 C 
HETATM   18  C   UNL     1      39.946 -14.846   0.033  1.00  0.00     0.235 C 
BRANCH  16  19
HETATM   19  C   UNL     1      39.610 -12.149   1.541  1.00  0.00     0.032 C 
BRANCH  19  20
HETATM   20  C   UNL     1      38.658 -11.303   0.703  1.00  0.00     0.164 C 
BRANCH  20  21
HETATM   21  O   UNL     1      37.402 -11.961   0.650  1.00  0.00    -0.401 OA
HETATM   22  H   UNL     1      36.966 -11.851   1.515  1.00  0.00     0.209 HD
ENDBRANCH  20  21
ENDBRANCH  19  20
ENDBRANCH  16  19
ENDBRANCH  12  13
ENDBRANCH   7  12
TORSDOF 5
ENDMDL
MODEL 8
REMARK VINA RESULT:      -6.4     14.171     15.776
REMARK  5 active torsions:
REMARK  status: ('A' for Active; 'I' for Inactive)
REMARK    1  A    between atoms: C_7  and  C_8 
REMARK    2  A    between atoms: C_8  and  N_9 
REMARK    3  A    between atoms: C_12  and  C_13 
REMARK    4  A    between atoms: C_13  and  C_14 
REMARK    5  A    between atoms: C_14  and  O_15 
ROOT
HETATM    1  C   UNL     1      43.065 -29.592   0.513  1.00  0.00     0.020 A 
HETATM    2  C   UNL     1      43.712 -29.585   1.729  1.00  0.00     0.117 A 
HETATM    3  N   UNL     1      44.995 -29.184   1.895  1.00  0.00    -0.260 NA
HETATM    4  C   UNL     1      45.692 -28.801   0.801  1.00  0.00     0.076 A 
HETATM    5  C   UNL     1      45.120 -28.756  -0.492  1.00  0.00     0.011 A 
HETATM    6  C   UNL     1      43.775 -29.168  -0.603  1.00  0.00     0.016 A 
HETATM    7  C   UNL     1      47.024 -28.413   0.974  1.00  0.00    -0.003 A 
HETATM    8  C   UNL     1      47.798 -27.981  -0.113  1.00  0.00     0.012 A 
HETATM    9  C   UNL     1      47.241 -27.922  -1.384  1.00  0.00     0.020 A 
HETATM   10  C   UNL     1      45.915 -28.307  -1.578  1.00  0.00     0.023 A 
HETATM   11 BR   UNL     1      45.247 -28.189  -3.356  1.00  0.00    -0.050 Br
ENDROOT
BRANCH   7  12
HETATM   12  C   UNL     1      47.655 -28.500   2.343  1.00  0.00     0.275 C 
BRANCH  12  13
HETATM   13  N   UNL     1      48.886 -29.367   2.400  1.00  0.00    -0.067 N 
HETATM   14  H   UNL     1      49.410 -29.067   1.554  1.00  0.00     0.280 HD
HETATM   15  C   UNL     1      48.644 -30.851   2.272  1.00  0.00     0.240 C 
HETATM   16  C   UNL     1      48.995 -31.425   3.642  1.00  0.00     0.015 C 
HETATM   17  C   UNL     1      50.165 -30.532   4.051  1.00  0.00     0.034 C 
HETATM   18  C   UNL     1      49.751 -29.137   3.611  1.00  0.00     0.235 C 
BRANCH  16  19
HETATM   19  C   UNL     1      47.845 -31.357   4.659  1.00  0.00     0.032 C 
BRANCH  19  20
HETATM   20  C   UNL     1      46.481 -31.705   4.071  1.00  0.00     0.164 C 
BRANCH  20  21
HETATM   21  O   UNL     1      45.554 -30.708   4.469  1.00  0.00    -0.401 OA
HETATM   22  H   UNL     1      45.325 -30.176   3.685  1.00  0.00     0.209 HD
ENDBRANCH  20  21
ENDBRANCH  19  20
ENDBRANCH  16  19
ENDBRANCH  12  13
ENDBRANCH   7  12
TORSDOF 5
ENDMDL
MODEL 9
REMARK VINA RESULT:      -6.4      1.491      1.925
REMARK  5 active torsions:
REMARK  status: ('A' for Active; 'I' for Inactive)
REMARK    1  A    between atoms: C_7  and  C_8 
REMARK    2  A    between atoms: C_8  and  N_9 
REMARK    3  A    between atoms: C_12  and  C_13 
REMARK    4  A    between atoms: C_13  and  C_14 
REMARK    5  A    between atoms: C_14  and  O_15 
ROOT
HETATM    1  C   UNL     1      43.109 -13.031   6.312  1.00  0.00     0.020 A 
HETATM    2  C   UNL     1      42.846 -12.390   5.122  1.00  0.00     0.117 A 
HETATM    3  N   UNL     1      42.664 -13.034   3.945  1.00  0.00    -0.260 NA
HETATM    4  C   UNL     1      42.778 -14.382   3.930  1.00  0.00     0.076 A 
HETATM    5  C   UNL     1      43.031 -15.140   5.097  1.00  0.00     0.011 A 
HETATM    6  C   UNL     1      43.195 -14.417   6.298  1.00  0.00     0.016 A 
HETATM    7  C   UNL     1      42.615 -15.040   2.708  1.00  0.00    -0.003 A 
HETATM    8  C   UNL     1      42.696 -16.439   2.623  1.00  0.00     0.012 A 
HETATM    9  C   UNL     1      42.932 -17.191   3.766  1.00  0.00     0.020 A 
HETATM   10  C   UNL     1      43.101 -16.554   4.994  1.00  0.00     0.023 A 
HETATM   11 BR   UNL     1      43.419 -17.675   6.498  1.00  0.00    -0.050 Br
ENDROOT
BRANCH   7  12
HETATM   12  C   UNL     1      42.388 -14.236   1.450  1.00  0.00     0.275 C 
BRANCH  12  13
HETATM   13  N   UNL     1      41.111 -13.436   1.454  1.00  0.00    -0.067 N 
HETATM   14  H   UNL     1      40.975 -13.235   2.465  1.00  0.00     0.280 HD
HETATM   15  C   UNL     1      39.882 -14.168   0.975  1.00  0.00     0.240 C 
HETATM   16  C   UNL     1      39.512 -13.492  -0.343  1.00  0.00     0.015 C 
HETATM   17  C   UNL     1      39.883 -12.039  -0.051  1.00  0.00     0.034 C 
HETATM   18  C   UNL     1      41.196 -12.128   0.711  1.00  0.00     0.235 C 
BRANCH  16  19
HETATM   19  C   UNL     1      40.275 -14.040  -1.560  1.00  0.00     0.032 C 
BRANCH  19  20
HETATM   20  C   UNL     1      40.366 -13.056  -2.723  1.00  0.00     0.164 C 
BRANCH  20  21
HETATM   21  O   UNL     1      41.560 -13.321  -3.441  1.00  0.00    -0.401 OA
HETATM   22  H   UNL     1      41.326 -13.462  -4.377  1.00  0.00     0.209 HD
ENDBRANCH  20  21
ENDBRANCH  19  20
ENDBRANCH  16  19
ENDBRANCH  12  13
ENDBRANCH   7  12
TORSDOF 5
ENDMDL
MODEL 10
REMARK VINA RESULT:      -6.4      3.551      6.269
REMARK  5 active torsions:
REMARK  status: ('A' for Active; 'I' for Inactive)
REMARK    1  A    between atoms: C_7  and  C_8 
REMARK    2  A    between atoms: C_8  and  N_9 
REMARK    3  A    between atoms: C_12  and  C_13 
REMARK    4  A    between atoms: C_13  and  C_14 
REMARK    5  A    between atoms: C_14  and  O_15 
ROOT
HETATM    1  C   UNL     1      39.452 -11.645   4.401  1.00  0.00     0.020 A 
HETATM    2  C   UNL     1      39.866 -12.573   5.330  1.00  0.00     0.117 A 
HETATM    3  N   UNL     1      40.268 -13.827   5.013  1.00  0.00    -0.260 NA
HETATM    4  C   UNL     1      40.230 -14.201   3.714  1.00  0.00     0.076 A 
HETATM    5  C   UNL     1      39.836 -13.323   2.677  1.00  0.00     0.011 A 
HETATM    6  C   UNL     1      39.444 -12.023   3.064  1.00  0.00     0.016 A 
HETATM    7  C   UNL     1      40.621 -15.505   3.395  1.00  0.00    -0.003 A 
HETATM    8  C   UNL     1      40.630 -15.952   2.064  1.00  0.00     0.012 A 
HETATM    9  C   UNL     1      40.256 -15.093   1.040  1.00  0.00     0.020 A 
HETATM   10  C   UNL     1      39.859 -13.790   1.337  1.00  0.00     0.023 A 
HETATM   11 BR   UNL     1      39.368 -12.692  -0.138  1.00  0.00    -0.050 Br
ENDROOT
BRANCH   7  12
HETATM   12  C   UNL     1      41.002 -16.461   4.499  1.00  0.00     0.275 C 
BRANCH  12  13
HETATM   13  N   UNL     1      42.241 -16.063   5.258  1.00  0.00    -0.067 N 
HETATM   14  H   UNL     1      42.055 -15.065   5.482  1.00  0.00     0.280 HD
HETATM   15  C   UNL     1      43.529 -16.113   4.475  1.00  0.00     0.240 C 
HETATM   16  C   UNL     1      44.325 -17.254   5.101  1.00  0.00     0.015 C 
HETATM   17  C   UNL     1      43.937 -17.120   6.573  1.00  0.00     0.034 C 
HETATM   18  C   UNL     1      42.447 -16.815   6.546  1.00  0.00     0.235 C 
BRANCH  16  19
HETATM   19  C   UNL     1      43.969 -18.642   4.544  1.00  0.00     0.032 C 
BRANCH  19  20
HETATM   20  C   UNL     1      43.947 -18.706   3.020  1.00  0.00     0.164 C 
BRANCH  20  21
HETATM   21  O   UNL     1      43.666 -20.041   2.632  1.00  0.00    -0.401 OA
HETATM   22  H   UNL     1      43.283 -20.505   3.399  1.00  0.00     0.209 HD
ENDBRANCH  20  21
ENDBRANCH  19  20
ENDBRANCH  16  19
ENDBRANCH  12  13
ENDBRANCH   7  12
TORSDOF 5
ENDMDL
