MODEL 1
REMARK VINA RESULT:      -8.9      0.000      0.000
REMARK  5 active torsions:
REMARK  status: ('A' for Active; 'I' for Inactive)
REMARK    1  A    between atoms: C_8  and  N_9 
REMARK    2  A    between atoms: C_12  and  N_13 
REMARK    3  A    between atoms: N_13  and  C_15 
REMARK    4  A    between atoms: C_15  and  C_16 
REMARK    5  A    between atoms: C_20  and  C_21 
ROOT
HETATM    1  N   UNL     1      40.942 -12.699   3.743  1.00  0.00    -0.065 N 
HETATM    2  H   UNL     1      40.514 -13.449   3.194  1.00  0.00     0.280 HD
HETATM    3  C   UNL     1      40.266 -12.696   5.101  1.00  0.00     0.270 C 
ENDROOT
BRANCH   1   4
HETATM    4  C   UNL     1      40.752 -11.362   2.993  1.00  0.00     0.191 C 
HETATM    5  C   UNL     1      41.433 -11.339   1.616  1.00  0.00     0.053 C 
HETATM    6  C   UNL     1      40.707 -12.194   0.581  1.00  0.00     0.126 C 
HETATM    7  N   UNL     1      39.310 -11.753   0.499  1.00  0.00    -0.366 N 
HETATM    8  C   UNL     1      38.557 -11.854   1.753  1.00  0.00     0.126 C 
HETATM    9  C   UNL     1      39.257 -11.019   2.824  1.00  0.00     0.053 C 
BRANCH   7  10
HETATM   10  C   UNL     1      38.626 -12.178  -0.647  1.00  0.00     0.129 A 
HETATM   11  N   UNL     1      38.944 -13.355  -1.216  1.00  0.00    -0.218 NA
HETATM   12  C   UNL     1      38.321 -13.694  -2.373  1.00  0.00     0.102 A 
HETATM   13  N   UNL     1      37.417 -12.910  -2.976  1.00  0.00    -0.348 N 
HETATM   14  C   UNL     1      38.698 -14.985  -3.026  1.00  0.00     0.091 C 
HETATM   15  C   UNL     1      37.074 -11.734  -2.430  1.00  0.00     0.010 A 
HETATM   16  H   UNL     1      37.002 -13.211  -3.857  1.00  0.00     0.167 HD
HETATM   17  C   UNL     1      36.085 -10.864  -3.135  1.00  0.00     0.068 C 
HETATM   18  C   UNL     1      37.683 -11.344  -1.237  1.00  0.00     0.075 A 
ENDBRANCH   7  10
ENDBRANCH   1   4
BRANCH   1  19
HETATM   19  C   UNL     1      42.408 -13.140   3.937  1.00  0.00     0.295 C 
BRANCH  19  20
HETATM   20  C   UNL     1      42.816 -14.471   3.381  1.00  0.00     0.082 A 
HETATM   21  N   UNL     1      43.206 -14.598   2.106  1.00  0.00    -0.177 NA
HETATM   22  N   UNL     1      43.453 -15.918   1.968  1.00  0.00    -0.277 N 
HETATM   23  H   UNL     1      43.773 -16.267   1.069  1.00  0.00     0.189 HD
HETATM   24  C   UNL     1      43.245 -16.643   3.112  1.00  0.00     0.062 A 
HETATM   25  C   UNL     1      42.844 -15.715   4.054  1.00  0.00     0.062 A 
BRANCH  24  26
HETATM   26  C   UNL     1      43.451 -18.087   3.199  1.00  0.00    -0.008 A 
HETATM   27  C   UNL     1      43.983 -18.658   4.362  1.00  0.00     0.014 A 
HETATM   28  C   UNL     1      44.188 -20.037   4.447  1.00  0.00     0.001 A 
HETATM   29  C   UNL     1      43.858 -20.861   3.374  1.00  0.00     0.000 A 
HETATM   30  C   UNL     1      43.320 -20.308   2.215  1.00  0.00     0.001 A 
HETATM   31  C   UNL     1      43.118 -18.928   2.127  1.00  0.00     0.014 A 
ENDBRANCH  24  26
ENDBRANCH  19  20
ENDBRANCH   1  19
TORSDOF 5
ENDMDL
MODEL 2
REMARK VINA RESULT:      -8.5      2.084      6.167
REMARK  5 active torsions:
REMARK  status: ('A' for Active; 'I' for Inactive)
REMARK    1  A    between atoms: C_8  and  N_9 
REMARK    2  A    between atoms: C_12  and  N_13 
REMARK    3  A    between atoms: N_13  and  C_15 
REMARK    4  A    between atoms: C_15  and  C_16 
REMARK    5  A    between atoms: C_20  and  C_21 
ROOT
HETATM    1  N   UNL     1      40.207 -12.895   0.636  1.00  0.00    -0.065 N 
HETATM    2  H   UNL     1      41.222 -12.804   0.548  1.00  0.00     0.280 HD
HETATM    3  C   UNL     1      39.610 -12.583  -0.723  1.00  0.00     0.270 C 
ENDROOT
BRANCH   1   4
HETATM    4  C   UNL     1      39.713 -11.922   1.729  1.00  0.00     0.191 C 
HETATM    5  C   UNL     1      39.040 -12.634   2.913  1.00  0.00     0.053 C 
HETATM    6  C   UNL     1      40.034 -13.368   3.808  1.00  0.00     0.126 C 
HETATM    7  N   UNL     1      41.055 -12.416   4.260  1.00  0.00    -0.366 N 
HETATM    8  C   UNL     1      41.823 -11.779   3.186  1.00  0.00     0.126 C 
HETATM    9  C   UNL     1      40.862 -11.039   2.257  1.00  0.00     0.053 C 
BRANCH   7  10
HETATM   10  C   UNL     1      41.806 -12.841   5.363  1.00  0.00     0.129 A 
HETATM   11  N   UNL     1      42.693 -12.003   5.930  1.00  0.00    -0.218 NA
HETATM   12  C   UNL     1      43.464 -12.476   6.941  1.00  0.00     0.102 A 
HETATM   13  N   UNL     1      43.390 -13.735   7.392  1.00  0.00    -0.348 N 
HETATM   14  C   UNL     1      44.474 -11.556   7.549  1.00  0.00     0.091 C 
HETATM   15  C   UNL     1      42.512 -14.594   6.852  1.00  0.00     0.010 A 
HETATM   16  H   UNL     1      44.014 -14.037   8.139  1.00  0.00     0.167 HD
HETATM   17  C   UNL     1      42.468 -16.001   7.351  1.00  0.00     0.068 C 
HETATM   18  C   UNL     1      41.692 -14.152   5.813  1.00  0.00     0.075 A 
ENDBRANCH   7  10
ENDBRANCH   1   4
BRANCH   1  19
HETATM   19  C   UNL     1      39.970 -14.391   0.932  1.00  0.00     0.295 C 
BRANCH  19  20
HETATM   20  C   UNL     1      41.140 -15.205   1.396  1.00  0.00     0.082 A 
HETATM   21  N   UNL     1      42.397 -14.807   1.161  1.00  0.00    -0.177 NA
HETATM   22  N   UNL     1      43.157 -15.793   1.683  1.00  0.00    -0.277 N 
HETATM   23  H   UNL     1      44.168 -15.715   1.631  1.00  0.00     0.189 HD
HETATM   24  C   UNL     1      42.433 -16.806   2.256  1.00  0.00     0.062 A 
HETATM   25  C   UNL     1      41.112 -16.435   2.094  1.00  0.00     0.062 A 
BRANCH  24  26
HETATM   26  C   UNL     1      43.043 -17.975   2.885  1.00  0.00    -0.008 A 
HETATM   27  C   UNL     1      43.112 -19.195   2.198  1.00  0.00     0.014 A 
HETATM   28  C   UNL     1      43.687 -20.317   2.797  1.00  0.00     0.001 A 
HETATM   29  C   UNL     1      44.206 -20.233   4.087  1.00  0.00     0.000 A 
HETATM   30  C   UNL     1      44.152 -19.026   4.778  1.00  0.00     0.001 A 
HETATM   31  C   UNL     1      43.573 -17.902   4.181  1.00  0.00     0.014 A 
ENDBRANCH  24  26
ENDBRANCH  19  20
ENDBRANCH   1  19
TORSDOF 5
ENDMDL
MODEL 3
REMARK VINA RESULT:      -8.5      2.108      2.725
REMARK  5 active torsions:
REMARK  status: ('A' for Active; 'I' for Inactive)
REMARK    1  A    between atoms: C_8  and  N_9 
REMARK    2  A    between atoms: C_12  and  N_13 
REMARK    3  A    between atoms: N_13  and  C_15 
REMARK    4  A    between atoms: C_15  and  C_16 
REMARK    5  A    between atoms: C_20  and  C_21 
ROOT
HETATM    1  N   UNL     1      41.379 -13.347   5.088  1.00  0.00    -0.065 N 
HETATM    2  H   UNL     1      41.317 -14.075   4.371  1.00  0.00     0.280 HD
HETATM    3  C   UNL     1      40.154 -13.483   5.972  1.00  0.00     0.270 C 
ENDROOT
BRANCH   1   4
HETATM    4  C   UNL     1      41.450 -11.969   4.392  1.00  0.00     0.191 C 
HETATM    5  C   UNL     1      42.561 -11.882   3.336  1.00  0.00     0.053 C 
HETATM    6  C   UNL     1      42.239 -12.669   2.069  1.00  0.00     0.126 C 
HETATM    7  N   UNL     1      40.952 -12.206   1.538  1.00  0.00    -0.366 N 
HETATM    8  C   UNL     1      39.816 -12.365   2.451  1.00  0.00     0.126 C 
HETATM    9  C   UNL     1      40.101 -11.599   3.741  1.00  0.00     0.053 C 
BRANCH   7  10
HETATM   10  C   UNL     1      40.704 -12.559   0.205  1.00  0.00     0.129 A 
HETATM   11  N   UNL     1      40.985 -11.687  -0.780  1.00  0.00    -0.218 NA
HETATM   12  C   UNL     1      40.653 -12.029  -2.050  1.00  0.00     0.102 A 
HETATM   13  N   UNL     1      40.052 -13.185  -2.365  1.00  0.00    -0.348 N 
HETATM   14  C   UNL     1      40.933 -11.047  -3.142  1.00  0.00     0.091 C 
HETATM   15  C   UNL     1      39.764 -14.077  -1.406  1.00  0.00     0.010 A 
HETATM   16  H   UNL     1      39.806 -13.372  -3.336  1.00  0.00     0.167 HD
HETATM   17  C   UNL     1      39.068 -15.346  -1.777  1.00  0.00     0.068 C 
HETATM   18  C   UNL     1      40.093 -13.774  -0.085  1.00  0.00     0.075 A 
ENDBRANCH   7  10
ENDBRANCH   1   4
BRANCH   1  19
HETATM   19  C   UNL     1      42.620 -13.725   5.925  1.00  0.00     0.295 C 
BRANCH  19  20
HETATM   20  C   UNL     1      43.212 -15.086   5.721  1.00  0.00     0.082 A 
HETATM   21  N   UNL     1      44.281 -15.488   6.419  1.00  0.00    -0.177 NA
HETATM   22  N   UNL     1      44.539 -16.725   5.945  1.00  0.00    -0.277 N 
HETATM   23  H   UNL     1      45.319 -17.248   6.331  1.00  0.00     0.189 HD
HETATM   24  C   UNL     1      43.665 -17.138   4.972  1.00  0.00     0.062 A 
HETATM   25  C   UNL     1      42.779 -16.089   4.821  1.00  0.00     0.062 A 
BRANCH  24  26
HETATM   26  C   UNL     1      43.748 -18.440   4.316  1.00  0.00    -0.008 A 
HETATM   27  C   UNL     1      43.564 -18.549   2.931  1.00  0.00     0.014 A 
HETATM   28  C   UNL     1      43.636 -19.793   2.300  1.00  0.00     0.001 A 
HETATM   29  C   UNL     1      43.897 -20.941   3.044  1.00  0.00     0.000 A 
HETATM   30  C   UNL     1      44.091 -20.847   4.419  1.00  0.00     0.001 A 
HETATM   31  C   UNL     1      44.016 -19.603   5.053  1.00  0.00     0.014 A 
ENDBRANCH  24  26
ENDBRANCH  19  20
ENDBRANCH   1  19
TORSDOF 5
ENDMDL
MODEL 4
REMARK VINA RESULT:      -8.3      2.416      3.385
REMARK  5 active torsions:
REMARK  status: ('A' for Active; 'I' for Inactive)
REMARK    1  A    between atoms: C_8  and  N_9 
REMARK    2  A    between atoms: C_12  and  N_13 
REMARK    3  A    between atoms: N_13  and  C_15 
REMARK    4  A    between atoms: C_15  and  C_16 
REMARK    5  A    between atoms: C_20  and  C_21 
ROOT
HETATM    1  N   UNL     1      41.480 -13.131   5.099  1.00  0.00    -0.065 N 
HETATM    2  H   UNL     1      41.349 -13.592   4.194  1.00  0.00     0.280 HD
HETATM    3  C   UNL     1      40.491 -13.753   6.066  1.00  0.00     0.270 C 
ENDROOT
BRANCH   1   4
HETATM    4  C   UNL     1      41.250 -11.614   4.922  1.00  0.00     0.191 C 
HETATM    5  C   UNL     1      42.444 -10.892   4.280  1.00  0.00     0.053 C 
HETATM    6  C   UNL     1      42.589 -11.193   2.791  1.00  0.00     0.126 C 
HETATM    7  N   UNL     1      41.330 -10.859   2.116  1.00  0.00    -0.366 N 
HETATM    8  C   UNL     1      40.158 -11.595   2.598  1.00  0.00     0.126 C 
HETATM    9  C   UNL     1      39.981 -11.330   4.092  1.00  0.00     0.053 C 
BRANCH   7  10
HETATM   10  C   UNL     1      41.426 -10.728   0.725  1.00  0.00     0.129 A 
HETATM   11  N   UNL     1      42.002  -9.633   0.195  1.00  0.00    -0.218 NA
HETATM   12  C   UNL     1      42.001  -9.500  -1.155  1.00  0.00     0.102 A 
HETATM   13  N   UNL     1      41.446 -10.399  -1.980  1.00  0.00    -0.348 N 
HETATM   14  C   UNL     1      42.609  -8.267  -1.744  1.00  0.00     0.091 C 
HETATM   15  C   UNL     1      40.869 -11.503  -1.483  1.00  0.00     0.010 A 
HETATM   16  H   UNL     1      41.456 -10.229  -2.985  1.00  0.00     0.167 HD
HETATM   17  C   UNL     1      40.232 -12.477  -2.420  1.00  0.00     0.068 C 
HETATM   18  C   UNL     1      40.852 -11.689  -0.100  1.00  0.00     0.075 A 
ENDBRANCH   7  10
ENDBRANCH   1   4
BRANCH   1  19
HETATM   19  C   UNL     1      42.903 -13.533   5.542  1.00  0.00     0.295 C 
BRANCH  19  20
HETATM   20  C   UNL     1      43.242 -14.992   5.563  1.00  0.00     0.082 A 
HETATM   21  N   UNL     1      43.746 -15.571   6.660  1.00  0.00    -0.177 NA
HETATM   22  N   UNL     1      43.952 -16.853   6.291  1.00  0.00    -0.277 N 
HETATM   23  H   UNL     1      44.334 -17.505   6.970  1.00  0.00     0.189 HD
HETATM   24  C   UNL     1      43.590 -17.122   4.997  1.00  0.00     0.062 A 
HETATM   25  C   UNL     1      43.108 -15.924   4.506  1.00  0.00     0.062 A 
BRANCH  24  26
HETATM   26  C   UNL     1      43.721 -18.440   4.382  1.00  0.00    -0.008 A 
HETATM   27  C   UNL     1      43.570 -18.595   2.997  1.00  0.00     0.014 A 
HETATM   28  C   UNL     1      43.688 -19.854   2.405  1.00  0.00     0.001 A 
HETATM   29  C   UNL     1      43.964 -20.972   3.188  1.00  0.00     0.000 A 
HETATM   30  C   UNL     1      44.125 -20.833   4.564  1.00  0.00     0.001 A 
HETATM   31  C   UNL     1      44.004 -19.573   5.159  1.00  0.00     0.014 A 
ENDBRANCH  24  26
ENDBRANCH  19  20
ENDBRANCH   1  19
TORSDOF 5
ENDMDL
MODEL 5
REMARK VINA RESULT:      -8.2      3.178      7.975
REMARK  5 active torsions:
REMARK  status: ('A' for Active; 'I' for Inactive)
REMARK    1  A    between atoms: C_8  and  N_9 
REMARK    2  A    between atoms: C_12  and  N_13 
REMARK    3  A    between atoms: N_13  and  C_15 
REMARK    4  A    between atoms: C_15  and  C_16 
REMARK    5  A    between atoms: C_20  and  C_21 
ROOT
HETATM    1  N   UNL     1      40.027 -12.586   2.571  1.00  0.00    -0.065 N 
HETATM    2  H   UNL     1      40.019 -13.202   3.389  1.00  0.00     0.280 HD
HETATM    3  C   UNL     1      38.592 -12.169   2.310  1.00  0.00     0.270 C 
ENDROOT
BRANCH   1   4
HETATM    4  C   UNL     1      40.641 -13.351   1.378  1.00  0.00     0.191 C 
HETATM    5  C   UNL     1      42.168 -13.490   1.470  1.00  0.00     0.053 C 
HETATM    6  C   UNL     1      42.610 -14.494   2.531  1.00  0.00     0.126 C 
HETATM    7  N   UNL     1      41.965 -15.784   2.259  1.00  0.00    -0.366 N 
HETATM    8  C   UNL     1      40.500 -15.756   2.269  1.00  0.00     0.126 C 
HETATM    9  C   UNL     1      40.013 -14.752   1.225  1.00  0.00     0.053 C 
BRANCH   7  10
HETATM   10  C   UNL     1      42.549 -16.880   2.908  1.00  0.00     0.129 A 
HETATM   11  N   UNL     1      42.909 -16.776   4.200  1.00  0.00    -0.218 NA
HETATM   12  C   UNL     1      43.548 -17.828   4.771  1.00  0.00     0.102 A 
HETATM   13  N   UNL     1      43.845 -18.954   4.108  1.00  0.00    -0.348 N 
HETATM   14  C   UNL     1      43.981 -17.702   6.197  1.00  0.00     0.091 C 
HETATM   15  C   UNL     1      43.494 -19.090   2.820  1.00  0.00     0.010 A 
HETATM   16  H   UNL     1      44.349 -19.699   4.587  1.00  0.00     0.167 HD
HETATM   17  C   UNL     1      43.861 -20.343   2.093  1.00  0.00     0.068 C 
HETATM   18  C   UNL     1      42.828 -18.038   2.190  1.00  0.00     0.075 A 
ENDBRANCH   7  10
ENDBRANCH   1   4
BRANCH   1  19
HETATM   19  C   UNL     1      40.814 -11.338   3.027  1.00  0.00     0.295 C 
BRANCH  19  20
HETATM   20  C   UNL     1      41.427 -11.360   4.394  1.00  0.00     0.082 A 
HETATM   21  N   UNL     1      40.888 -12.084   5.383  1.00  0.00    -0.177 NA
HETATM   22  N   UNL     1      41.679 -11.827   6.446  1.00  0.00    -0.277 N 
HETATM   23  H   UNL     1      41.471 -12.275   7.334  1.00  0.00     0.189 HD
HETATM   24  C   UNL     1      42.715 -10.972   6.173  1.00  0.00     0.062 A 
HETATM   25  C   UNL     1      42.579 -10.666   4.833  1.00  0.00     0.062 A 
BRANCH  24  26
HETATM   26  C   UNL     1      43.698 -10.554   7.169  1.00  0.00    -0.008 A 
HETATM   27  C   UNL     1      45.038 -10.945   7.050  1.00  0.00     0.014 A 
HETATM   28  C   UNL     1      45.981 -10.554   8.003  1.00  0.00     0.001 A 
HETATM   29  C   UNL     1      45.598  -9.764   9.083  1.00  0.00     0.000 A 
HETATM   30  C   UNL     1      44.271  -9.361   9.211  1.00  0.00     0.001 A 
HETATM   31  C   UNL     1      43.325  -9.754   8.259  1.00  0.00     0.014 A 
ENDBRANCH  24  26
ENDBRANCH  19  20
ENDBRANCH   1  19
TORSDOF 5
ENDMDL
MODEL 6
REMARK VINA RESULT:      -8.0      3.632      7.027
REMARK  5 active torsions:
REMARK  status: ('A' for Active; 'I' for Inactive)
REMARK    1  A    between atoms: C_8  and  N_9 
REMARK    2  A    between atoms: C_12  and  N_13 
REMARK    3  A    between atoms: N_13  and  C_15 
REMARK    4  A    between atoms: C_15  and  C_16 
REMARK    5  A    between atoms: C_20  and  C_21 
ROOT
HETATM    1  N   UNL     1      41.377 -12.786   3.788  1.00  0.00    -0.065 N 
HETATM    2  H   UNL     1      41.249 -11.794   3.573  1.00  0.00     0.280 HD
HETATM    3  C   UNL     1      40.364 -13.558   2.965  1.00  0.00     0.270 C 
ENDROOT
BRANCH   1   4
HETATM    4  C   UNL     1      41.178 -12.995   5.306  1.00  0.00     0.191 C 
HETATM    5  C   UNL     1      42.457 -12.755   6.122  1.00  0.00     0.053 C 
HETATM    6  C   UNL     1      42.828 -11.278   6.225  1.00  0.00     0.126 C 
HETATM    7  N   UNL     1      41.686 -10.541   6.780  1.00  0.00    -0.366 N 
HETATM    8  C   UNL     1      40.453 -10.628   5.991  1.00  0.00     0.126 C 
HETATM    9  C   UNL     1      40.051 -12.095   5.854  1.00  0.00     0.053 C 
BRANCH   7  10
HETATM   10  C   UNL     1      41.994  -9.267   7.274  1.00  0.00     0.129 A 
HETATM   11  N   UNL     1      42.470  -9.133   8.525  1.00  0.00    -0.218 NA
HETATM   12  C   UNL     1      42.676  -7.878   8.999  1.00  0.00     0.102 A 
HETATM   13  N   UNL     1      42.417  -6.773   8.287  1.00  0.00    -0.348 N 
HETATM   14  C   UNL     1      43.172  -7.726  10.402  1.00  0.00     0.091 C 
HETATM   15  C   UNL     1      41.947  -6.874   7.035  1.00  0.00     0.010 A 
HETATM   16  H   UNL     1      42.570  -5.859   8.709  1.00  0.00     0.167 HD
HETATM   17  C   UNL     1      41.638  -5.628   6.270  1.00  0.00     0.068 C 
HETATM   18  C   UNL     1      41.726  -8.143   6.499  1.00  0.00     0.075 A 
ENDBRANCH   7  10
ENDBRANCH   1   4
BRANCH   1  19
HETATM   19  C   UNL     1      42.786 -13.126   3.258  1.00  0.00     0.295 C 
BRANCH  19  20
HETATM   20  C   UNL     1      43.059 -14.544   2.859  1.00  0.00     0.082 A 
HETATM   21  N   UNL     1      43.228 -14.883   1.575  1.00  0.00    -0.177 NA
HETATM   22  N   UNL     1      43.412 -16.220   1.608  1.00  0.00    -0.277 N 
HETATM   23  H   UNL     1      43.569 -16.716   0.736  1.00  0.00     0.189 HD
HETATM   24  C   UNL     1      43.377 -16.752   2.870  1.00  0.00     0.062 A 
HETATM   25  C   UNL     1      43.163 -15.673   3.706  1.00  0.00     0.062 A 
BRANCH  24  26
HETATM   26  C   UNL     1      43.553 -18.175   3.148  1.00  0.00    -0.008 A 
HETATM   27  C   UNL     1      43.256 -19.132   2.168  1.00  0.00     0.014 A 
HETATM   28  C   UNL     1      43.416 -20.494   2.431  1.00  0.00     0.001 A 
HETATM   29  C   UNL     1      43.881 -20.916   3.674  1.00  0.00     0.000 A 
HETATM   30  C   UNL     1      44.189 -19.977   4.655  1.00  0.00     0.001 A 
HETATM   31  C   UNL     1      44.026 -18.613   4.394  1.00  0.00     0.014 A 
ENDBRANCH  24  26
ENDBRANCH  19  20
ENDBRANCH   1  19
TORSDOF 5
ENDMDL
MODEL 7
REMARK VINA RESULT:      -8.0      3.493      8.153
REMARK  5 active torsions:
REMARK  status: ('A' for Active; 'I' for Inactive)
REMARK    1  A    between atoms: C_8  and  N_9 
REMARK    2  A    between atoms: C_12  and  N_13 
REMARK    3  A    between atoms: N_13  and  C_15 
REMARK    4  A    between atoms: C_15  and  C_16 
REMARK    5  A    between atoms: C_20  and  C_21 
ROOT
HETATM    1  N   UNL     1      40.491 -12.767   3.146  1.00  0.00    -0.065 N 
HETATM    2  H   UNL     1      40.514 -13.416   3.938  1.00  0.00     0.280 HD
HETATM    3  C   UNL     1      39.078 -12.222   3.055  1.00  0.00     0.270 C 
ENDROOT
BRANCH   1   4
HETATM    4  C   UNL     1      40.907 -13.529   1.868  1.00  0.00     0.191 C 
HETATM    5  C   UNL     1      42.425 -13.736   1.755  1.00  0.00     0.053 C 
HETATM    6  C   UNL     1      42.955 -14.784   2.730  1.00  0.00     0.126 C 
HETATM    7  N   UNL     1      42.222 -16.038   2.521  1.00  0.00    -0.366 N 
HETATM    8  C   UNL     1      40.773 -15.946   2.724  1.00  0.00     0.126 C 
HETATM    9  C   UNL     1      40.201 -14.897   1.773  1.00  0.00     0.053 C 
BRANCH   7  10
HETATM   10  C   UNL     1      42.833 -17.174   3.066  1.00  0.00     0.129 A 
HETATM   11  N   UNL     1      43.134 -18.217   2.271  1.00  0.00    -0.218 NA
HETATM   12  C   UNL     1      43.647 -19.333   2.848  1.00  0.00     0.102 A 
HETATM   13  N   UNL     1      43.855 -19.447   4.166  1.00  0.00    -0.348 N 
HETATM   14  C   UNL     1      43.949 -20.506   1.970  1.00  0.00     0.091 C 
HETATM   15  C   UNL     1      43.571 -18.423   4.984  1.00  0.00     0.010 A 
HETATM   16  H   UNL     1      44.220 -20.322   4.541  1.00  0.00     0.167 HD
HETATM   17  C   UNL     1      43.785 -18.584   6.455  1.00  0.00     0.068 C 
HETATM   18  C   UNL     1      43.048 -17.251   4.438  1.00  0.00     0.075 A 
ENDBRANCH   7  10
ENDBRANCH   1   4
BRANCH   1  19
HETATM   19  C   UNL     1      41.427 -11.611   3.556  1.00  0.00     0.295 C 
BRANCH  19  20
HETATM   20  C   UNL     1      42.090 -11.692   4.898  1.00  0.00     0.082 A 
HETATM   21  N   UNL     1      42.014 -12.802   5.642  1.00  0.00    -0.177 NA
HETATM   22  N   UNL     1      42.686 -12.488   6.770  1.00  0.00    -0.277 N 
HETATM   23  H   UNL     1      42.772 -13.188   7.502  1.00  0.00     0.189 HD
HETATM   24  C   UNL     1      43.200 -11.218   6.773  1.00  0.00     0.062 A 
HETATM   25  C   UNL     1      42.836 -10.684   5.553  1.00  0.00     0.062 A 
BRANCH  24  26
HETATM   26  C   UNL     1      43.965 -10.662   7.887  1.00  0.00    -0.008 A 
HETATM   27  C   UNL     1      45.314 -10.322   7.720  1.00  0.00     0.014 A 
HETATM   28  C   UNL     1      46.052  -9.797   8.783  1.00  0.00     0.001 A 
HETATM   29  C   UNL     1      45.449  -9.600  10.023  1.00  0.00     0.000 A 
HETATM   30  C   UNL     1      44.107  -9.925  10.201  1.00  0.00     0.001 A 
HETATM   31  C   UNL     1      43.368 -10.454   9.139  1.00  0.00     0.014 A 
ENDBRANCH  24  26
ENDBRANCH  19  20
ENDBRANCH   1  19
TORSDOF 5
ENDMDL
MODEL 8
REMARK VINA RESULT:      -7.9      2.183      2.797
REMARK  5 active torsions:
REMARK  status: ('A' for Active; 'I' for Inactive)
REMARK    1  A    between atoms: C_8  and  N_9 
REMARK    2  A    between atoms: C_12  and  N_13 
REMARK    3  A    between atoms: N_13  and  C_15 
REMARK    4  A    between atoms: C_15  and  C_16 
REMARK    5  A    between atoms: C_20  and  C_21 
ROOT
HETATM    1  N   UNL     1      41.008 -11.384   4.953  1.00  0.00    -0.065 N 
HETATM    2  H   UNL     1      40.474 -12.032   4.368  1.00  0.00     0.280 HD
HETATM    3  C   UNL     1      40.010 -10.619   5.801  1.00  0.00     0.270 C 
ENDROOT
BRANCH   1   4
HETATM    4  C   UNL     1      41.835 -10.453   4.039  1.00  0.00     0.191 C 
HETATM    5  C   UNL     1      42.834 -11.209   3.151  1.00  0.00     0.053 C 
HETATM    6  C   UNL     1      42.160 -11.971   2.013  1.00  0.00     0.126 C 
HETATM    7  N   UNL     1      41.346 -11.032   1.233  1.00  0.00    -0.366 N 
HETATM    8  C   UNL     1      40.290 -10.354   1.989  1.00  0.00     0.126 C 
HETATM    9  C   UNL     1      40.922  -9.585   3.148  1.00  0.00     0.053 C 
BRANCH   7  10
HETATM   10  C   UNL     1      40.973 -11.493  -0.037  1.00  0.00     0.129 A 
HETATM   11  N   UNL     1      41.102 -10.686  -1.105  1.00  0.00    -0.218 NA
HETATM   12  C   UNL     1      40.651 -11.135  -2.303  1.00  0.00     0.102 A 
HETATM   13  N   UNL     1      40.076 -12.334  -2.468  1.00  0.00    -0.348 N 
HETATM   14  C   UNL     1      40.762 -10.225  -3.485  1.00  0.00     0.091 C 
HETATM   15  C   UNL     1      39.938 -13.164  -1.424  1.00  0.00     0.010 A 
HETATM   16  H   UNL     1      39.735 -12.603  -3.390  1.00  0.00     0.167 HD
HETATM   17  C   UNL     1      39.268 -14.484  -1.625  1.00  0.00     0.068 C 
HETATM   18  C   UNL     1      40.393 -12.750  -0.171  1.00  0.00     0.075 A 
ENDBRANCH   7  10
ENDBRANCH   1   4
BRANCH   1  19
HETATM   19  C   UNL     1      41.837 -12.291   5.888  1.00  0.00     0.295 C 
BRANCH  19  20
HETATM   20  C   UNL     1      41.862 -13.760   5.594  1.00  0.00     0.082 A 
HETATM   21  N   UNL     1      40.997 -14.599   6.178  1.00  0.00    -0.177 NA
HETATM   22  N   UNL     1      41.345 -15.814   5.704  1.00  0.00    -0.277 N 
HETATM   23  H   UNL     1      40.818 -16.629   6.005  1.00  0.00     0.189 HD
HETATM   24  C   UNL     1      42.398 -15.785   4.827  1.00  0.00     0.062 A 
HETATM   25  C   UNL     1      42.742 -14.451   4.728  1.00  0.00     0.062 A 
BRANCH  24  26
HETATM   26  C   UNL     1      42.945 -16.979   4.187  1.00  0.00    -0.008 A 
HETATM   27  C   UNL     1      43.873 -17.783   4.862  1.00  0.00     0.014 A 
HETATM   28  C   UNL     1      44.404 -18.922   4.253  1.00  0.00     0.001 A 
HETATM   29  C   UNL     1      44.010 -19.274   2.964  1.00  0.00     0.000 A 
HETATM   30  C   UNL     1      43.082 -18.489   2.284  1.00  0.00     0.001 A 
HETATM   31  C   UNL     1      42.552 -17.347   2.892  1.00  0.00     0.014 A 
ENDBRANCH  24  26
ENDBRANCH  19  20
ENDBRANCH   1  19
TORSDOF 5
ENDMDL
MODEL 9
REMARK VINA RESULT:      -7.7      5.048      9.466
REMARK  5 active torsions:
REMARK  status: ('A' for Active; 'I' for Inactive)
REMARK    1  A    between atoms: C_8  and  N_9 
REMARK    2  A    between atoms: C_12  and  N_13 
REMARK    3  A    between atoms: N_13  and  C_15 
REMARK    4  A    between atoms: C_15  and  C_16 
REMARK    5  A    between atoms: C_20  and  C_21 
ROOT
HETATM    1  N   UNL     1      40.944 -10.424   5.522  1.00  0.00    -0.065 N 
HETATM    2  H   UNL     1      41.032 -11.211   6.171  1.00  0.00     0.280 HD
HETATM    3  C   UNL     1      39.473 -10.058   5.459  1.00  0.00     0.270 C 
ENDROOT
BRANCH   1   4
HETATM    4  C   UNL     1      41.500 -10.850   4.145  1.00  0.00     0.191 C 
HETATM    5  C   UNL     1      42.988 -11.231   4.186  1.00  0.00     0.053 C 
HETATM    6  C   UNL     1      43.239 -12.573   4.867  1.00  0.00     0.126 C 
HETATM    7  N   UNL     1      42.437 -13.601   4.196  1.00  0.00    -0.366 N 
HETATM    8  C   UNL     1      40.990 -13.366   4.216  1.00  0.00     0.126 C 
HETATM    9  C   UNL     1      40.693 -12.023   3.551  1.00  0.00     0.053 C 
BRANCH   7  10
HETATM   10  C   UNL     1      42.834 -14.919   4.457  1.00  0.00     0.129 A 
HETATM   11  N   UNL     1      43.244 -15.261   5.692  1.00  0.00    -0.218 NA
HETATM   12  C   UNL     1      43.702 -16.523   5.887  1.00  0.00     0.102 A 
HETATM   13  N   UNL     1      43.773 -17.437   4.910  1.00  0.00    -0.348 N 
HETATM   14  C   UNL     1      44.191 -16.894   7.251  1.00  0.00     0.091 C 
HETATM   15  C   UNL     1      43.366 -17.129   3.669  1.00  0.00     0.010 A 
HETATM   16  H   UNL     1      44.150 -18.361   5.115  1.00  0.00     0.167 HD
HETATM   17  C   UNL     1      43.482 -18.154   2.588  1.00  0.00     0.068 C 
HETATM   18  C   UNL     1      42.881 -15.845   3.420  1.00  0.00     0.075 A 
ENDBRANCH   7  10
ENDBRANCH   1   4
BRANCH   1  19
HETATM   19  C   UNL     1      41.699  -9.265   6.206  1.00  0.00     0.295 C 
BRANCH  19  20
HETATM   20  C   UNL     1      42.174  -9.473   7.612  1.00  0.00     0.082 A 
HETATM   21  N   UNL     1      43.116 -10.380   7.897  1.00  0.00    -0.177 NA
HETATM   22  N   UNL     1      43.249 -10.305   9.238  1.00  0.00    -0.277 N 
HETATM   23  H   UNL     1      43.925 -10.908   9.700  1.00  0.00     0.189 HD
HETATM   24  C   UNL     1      42.432  -9.375   9.825  1.00  0.00     0.062 A 
HETATM   25  C   UNL     1      41.731  -8.807   8.779  1.00  0.00     0.062 A 
BRANCH  24  26
HETATM   26  C   UNL     1      42.406  -9.119  11.263  1.00  0.00    -0.008 A 
HETATM   27  C   UNL     1      41.510  -9.810  12.090  1.00  0.00     0.014 A 
HETATM   28  C   UNL     1      41.476  -9.564  13.464  1.00  0.00     0.001 A 
HETATM   29  C   UNL     1      42.340  -8.630  14.029  1.00  0.00     0.000 A 
HETATM   30  C   UNL     1      43.242  -7.942  13.221  1.00  0.00     0.001 A 
HETATM   31  C   UNL     1      43.274  -8.184  11.845  1.00  0.00     0.014 A 
ENDBRANCH  24  26
ENDBRANCH  19  20
ENDBRANCH   1  19
TORSDOF 5
ENDMDL
MODEL 10
REMARK VINA RESULT:      -7.6      6.622     10.307
REMARK  5 active torsions:
REMARK  status: ('A' for Active; 'I' for Inactive)
REMARK    1  A    between atoms: C_8  and  N_9 
REMARK    2  A    between atoms: C_12  and  N_13 
REMARK    3  A    between atoms: N_13  and  C_15 
REMARK    4  A    between atoms: C_15  and  C_16 
REMARK    5  A    between atoms: C_20  and  C_21 
ROOT
HETATM    1  N   UNL     1      43.031 -10.783   7.967  1.00  0.00    -0.065 N 
HETATM    2  H   UNL     1      42.501 -11.651   8.080  1.00  0.00     0.280 HD
HETATM    3  C   UNL     1      42.039  -9.639   8.052  1.00  0.00     0.270 C 
ENDROOT
BRANCH   1   4
HETATM    4  C   UNL     1      43.764 -10.821   6.608  1.00  0.00     0.191 C 
HETATM    5  C   UNL     1      44.695 -12.034   6.457  1.00  0.00     0.053 C 
HETATM    6  C   UNL     1      43.937 -13.342   6.251  1.00  0.00     0.126 C 
HETATM    7  N   UNL     1      43.048 -13.197   5.094  1.00  0.00    -0.366 N 
HETATM    8  C   UNL     1      42.050 -12.129   5.212  1.00  0.00     0.126 C 
HETATM    9  C   UNL     1      42.768 -10.798   5.430  1.00  0.00     0.053 C 
BRANCH   7  10
HETATM   10  C   UNL     1      42.574 -14.403   4.561  1.00  0.00     0.129 A 
HETATM   11  N   UNL     1      43.267 -15.539   4.762  1.00  0.00    -0.218 NA
HETATM   12  C   UNL     1      42.825 -16.672   4.160  1.00  0.00     0.102 A 
HETATM   13  N   UNL     1      41.742 -16.709   3.371  1.00  0.00    -0.348 N 
HETATM   14  C   UNL     1      43.613 -17.928   4.353  1.00  0.00     0.091 C 
HETATM   15  C   UNL     1      41.027 -15.594   3.157  1.00  0.00     0.010 A 
HETATM   16  H   UNL     1      41.476 -17.587   2.928  1.00  0.00     0.167 HD
HETATM   17  C   UNL     1      39.841 -15.653   2.251  1.00  0.00     0.068 C 
HETATM   18  C   UNL     1      41.438 -14.405   3.759  1.00  0.00     0.075 A 
ENDBRANCH   7  10
ENDBRANCH   1   4
BRANCH   1  19
HETATM   19  C   UNL     1      43.948 -10.718   9.206  1.00  0.00     0.295 C 
BRANCH  19  20
HETATM   20  C   UNL     1      43.635  -9.692  10.253  1.00  0.00     0.082 A 
HETATM   21  N   UNL     1      43.890  -8.393  10.049  1.00  0.00    -0.177 NA
HETATM   22  N   UNL     1      43.517  -7.799  11.202  1.00  0.00    -0.277 N 
HETATM   23  H   UNL     1      43.612  -6.792  11.289  1.00  0.00     0.189 HD
HETATM   24  C   UNL     1      43.021  -8.669  12.138  1.00  0.00     0.062 A 
HETATM   25  C   UNL     1      43.074  -9.910  11.534  1.00  0.00     0.062 A 
BRANCH  24  26
HETATM   26  C   UNL     1      42.553  -8.251  13.457  1.00  0.00    -0.008 A 
HETATM   27  C   UNL     1      43.148  -7.161  14.107  1.00  0.00     0.014 A 
HETATM   28  C   UNL     1      42.710  -6.762  15.372  1.00  0.00     0.001 A 
HETATM   29  C   UNL     1      41.669  -7.442  15.999  1.00  0.00     0.000 A 
HETATM   30  C   UNL     1      41.064  -8.522  15.361  1.00  0.00     0.001 A 
HETATM   31  C   UNL     1      41.503  -8.925  14.097  1.00  0.00     0.014 A 
ENDBRANCH  24  26
ENDBRANCH  19  20
ENDBRANCH   1  19
TORSDOF 5
ENDMDL
