MODEL 1
REMARK VINA RESULT:      -9.6      0.000      0.000
REMARK  5 active torsions:
REMARK  status: ('A' for Active; 'I' for Inactive)
REMARK    1  A    between atoms: C_3  and  O_4 
REMARK    2  A    between atoms: C_8  and  C_9 
REMARK       I    between atoms: N_10  and  C_11 
REMARK    3  A    between atoms: C_11  and  C_12 
REMARK    4  A    between atoms: C_12  and  C_13 
REMARK    5  A    between atoms: C_13  and  C_14 
ROOT
HETATM    1  C   UNL     1      41.738 -13.403   2.512  1.00  0.00     0.171 C 
HETATM    2  N   UNL     1      40.976 -12.846   3.661  1.00  0.00    -0.338 N 
HETATM    3  C   UNL     1      41.564 -12.187   4.737  1.00  0.00     0.221 C 
HETATM    4  O   UNL     1      40.895 -11.751   5.676  1.00  0.00    -0.273 OA
HETATM    5  C   UNL     1      39.498 -12.967   3.631  1.00  0.00     0.131 C 
HETATM    6  C   UNL     1      38.886 -12.292   2.392  1.00  0.00     0.061 C 
HETATM    7  C   UNL     1      39.621 -12.745   1.180  1.00  0.00    -0.019 A 
HETATM    8  C   UNL     1      40.898 -13.270   1.272  1.00  0.00     0.044 A 
HETATM    9  N   UNL     1      41.304 -13.587   0.002  1.00  0.00    -0.356 N 
HETATM   10  H   UNL     1      42.189 -14.006  -0.248  1.00  0.00     0.166 HD
HETATM   11  C   UNL     1      40.338 -13.221  -0.910  1.00  0.00     0.043 A 
HETATM   12  C   UNL     1      39.262 -12.698  -0.192  1.00  0.00    -0.001 A 
HETATM   13  C   UNL     1      40.342 -13.309  -2.308  1.00  0.00     0.030 A 
HETATM   14  C   UNL     1      39.215 -12.843  -2.989  1.00  0.00     0.002 A 
HETATM   15  C   UNL     1      38.123 -12.319  -2.298  1.00  0.00     0.001 A 
HETATM   16  C   UNL     1      38.133 -12.243  -0.900  1.00  0.00     0.014 A 
ENDROOT
BRANCH   1  17
HETATM   17  C   UNL     1      42.274 -14.814   2.745  1.00  0.00    -0.029 A 
HETATM   18  C   UNL     1      42.855 -15.590   1.735  1.00  0.00     0.012 A 
HETATM   19  C   UNL     1      43.352 -16.872   1.998  1.00  0.00     0.038 A 
HETATM   20  C   UNL     1      43.291 -17.410   3.285  1.00  0.00     0.074 A 
HETATM   21  C   UNL     1      42.712 -16.654   4.316  1.00  0.00    -0.028 A 
HETATM   22  C   UNL     1      42.597 -17.207   5.711  1.00  0.00     0.051 C 
HETATM   23  C   UNL     1      42.197 -15.376   4.034  1.00  0.00     0.019 A 
BRANCH  20  24
HETATM   24  O   UNL     1      43.744 -18.655   3.633  1.00  0.00    -0.355 OA
HETATM   25  C   UNL     1      43.670 -19.674   2.645  1.00  0.00     0.210 C 
ENDBRANCH  20  24
ENDBRANCH   1  17
BRANCH   3  26
HETATM   26  C   UNL     1      43.066 -11.947   4.667  1.00  0.00     0.108 C 
BRANCH  26  27
HETATM   27  C   UNL     1      43.854 -12.678   5.753  1.00  0.00     0.051 C 
BRANCH  27  28
HETATM   28  C   UNL     1      44.565 -11.789   6.720  1.00  0.00    -0.021 A 
HETATM   29  C   UNL     1      44.153 -11.332   7.956  1.00  0.00     0.120 A 
HETATM   30  N   UNL     1      45.182 -10.587   8.453  1.00  0.00    -0.285 N 
HETATM   31  C   UNL     1      45.226  -9.907   9.725  1.00  0.00     0.179 C 
HETATM   32  N   UNL     1      46.250 -10.537   7.639  1.00  0.00    -0.185 NA
HETATM   33  C   UNL     1      45.868 -11.256   6.580  1.00  0.00     0.147 A 
ENDBRANCH  27  28
ENDBRANCH  26  27
ENDBRANCH   3  26
TORSDOF 5
ENDMDL
MODEL 2
REMARK VINA RESULT:      -8.7      3.093      7.390
REMARK  5 active torsions:
REMARK  status: ('A' for Active; 'I' for Inactive)
REMARK    1  A    between atoms: C_3  and  O_4 
REMARK    2  A    between atoms: C_8  and  C_9 
REMARK       I    between atoms: N_10  and  C_11 
REMARK    3  A    between atoms: C_11  and  C_12 
REMARK    4  A    between atoms: C_12  and  C_13 
REMARK    5  A    between atoms: C_13  and  C_14 
ROOT
HETATM    1  C   UNL     1      40.906 -13.707   2.486  1.00  0.00     0.171 C 
HETATM    2  N   UNL     1      41.337 -12.686   3.478  1.00  0.00    -0.338 N 
HETATM    3  C   UNL     1      40.475 -11.769   4.073  1.00  0.00     0.221 C 
HETATM    4  O   UNL     1      40.878 -10.931   4.882  1.00  0.00    -0.273 OA
HETATM    5  C   UNL     1      42.764 -12.678   3.883  1.00  0.00     0.131 C 
HETATM    6  C   UNL     1      43.202 -14.022   4.490  1.00  0.00     0.061 C 
HETATM    7  C   UNL     1      42.765 -15.125   3.592  1.00  0.00    -0.019 A 
HETATM    8  C   UNL     1      41.744 -14.942   2.677  1.00  0.00     0.044 A 
HETATM    9  N   UNL     1      41.573 -16.126   2.008  1.00  0.00    -0.356 N 
HETATM   10  H   UNL     1      40.909 -16.295   1.266  1.00  0.00     0.166 HD
HETATM   11  C   UNL     1      42.422 -17.084   2.516  1.00  0.00     0.043 A 
HETATM   12  C   UNL     1      43.193 -16.476   3.509  1.00  0.00    -0.001 A 
HETATM   13  C   UNL     1      42.559 -18.436   2.177  1.00  0.00     0.030 A 
HETATM   14  C   UNL     1      43.507 -19.186   2.877  1.00  0.00     0.002 A 
HETATM   15  C   UNL     1      44.293 -18.605   3.870  1.00  0.00     0.001 A 
HETATM   16  C   UNL     1      44.148 -17.251   4.194  1.00  0.00     0.014 A 
ENDROOT
BRANCH   1  17
HETATM   17  C   UNL     1      40.871 -13.202   1.046  1.00  0.00    -0.029 A 
HETATM   18  C   UNL     1      41.462 -11.999   0.640  1.00  0.00     0.012 A 
HETATM   19  C   UNL     1      41.423 -11.584  -0.696  1.00  0.00     0.038 A 
HETATM   20  C   UNL     1      40.800 -12.369  -1.668  1.00  0.00     0.074 A 
HETATM   21  C   UNL     1      40.198 -13.579  -1.289  1.00  0.00    -0.028 A 
HETATM   22  C   UNL     1      39.487 -14.440  -2.298  1.00  0.00     0.051 C 
HETATM   23  C   UNL     1      40.225 -13.973   0.061  1.00  0.00     0.019 A 
BRANCH  20  24
HETATM   24  O   UNL     1      40.707 -12.041  -2.995  1.00  0.00    -0.355 OA
HETATM   25  C   UNL     1      40.594 -10.660  -3.317  1.00  0.00     0.210 C 
ENDBRANCH  20  24
ENDBRANCH   1  17
BRANCH   3  26
HETATM   26  C   UNL     1      38.993 -11.899   3.750  1.00  0.00     0.108 C 
BRANCH  26  27
HETATM   27  C   UNL     1      38.362 -10.604   3.240  1.00  0.00     0.051 C 
BRANCH  27  28
HETATM   28  C   UNL     1      38.251 -10.502   1.755  1.00  0.00    -0.021 A 
HETATM   29  C   UNL     1      37.628 -11.351   0.862  1.00  0.00     0.120 A 
HETATM   30  N   UNL     1      37.776 -10.788  -0.372  1.00  0.00    -0.285 N 
HETATM   31  C   UNL     1      37.284 -11.305  -1.626  1.00  0.00     0.179 C 
HETATM   32  N   UNL     1      38.437  -9.619  -0.351  1.00  0.00    -0.185 NA
HETATM   33  C   UNL     1      38.737  -9.452   0.939  1.00  0.00     0.147 A 
ENDBRANCH  27  28
ENDBRANCH  26  27
ENDBRANCH   3  26
TORSDOF 5
ENDMDL
MODEL 3
REMARK VINA RESULT:      -8.7     10.386     16.165
REMARK  5 active torsions:
REMARK  status: ('A' for Active; 'I' for Inactive)
REMARK    1  A    between atoms: C_3  and  O_4 
REMARK    2  A    between atoms: C_8  and  C_9 
REMARK       I    between atoms: N_10  and  C_11 
REMARK    3  A    between atoms: C_11  and  C_12 
REMARK    4  A    between atoms: C_12  and  C_13 
REMARK    5  A    between atoms: C_13  and  C_14 
ROOT
HETATM    1  C   UNL     1      40.826  -6.794  16.911  1.00  0.00     0.171 C 
HETATM    2  N   UNL     1      40.633  -5.320  16.886  1.00  0.00    -0.338 N 
HETATM    3  C   UNL     1      39.525  -4.691  16.325  1.00  0.00     0.221 C 
HETATM    4  O   UNL     1      39.411  -3.464  16.315  1.00  0.00    -0.273 OA
HETATM    5  C   UNL     1      41.666  -4.479  17.537  1.00  0.00     0.131 C 
HETATM    6  C   UNL     1      41.844  -4.825  19.025  1.00  0.00     0.061 C 
HETATM    7  C   UNL     1      41.991  -6.299  19.166  1.00  0.00    -0.019 A 
HETATM    8  C   UNL     1      41.547  -7.161  18.179  1.00  0.00     0.044 A 
HETATM    9  N   UNL     1      41.817  -8.438  18.596  1.00  0.00    -0.356 N 
HETATM   10  H   UNL     1      41.623  -9.282  18.077  1.00  0.00     0.166 HD
HETATM   11  C   UNL     1      42.371  -8.418  19.858  1.00  0.00     0.043 A 
HETATM   12  C   UNL     1      42.502  -7.080  20.235  1.00  0.00    -0.001 A 
HETATM   13  C   UNL     1      42.756  -9.478  20.688  1.00  0.00     0.030 A 
HETATM   14  C   UNL     1      43.285  -9.159  21.941  1.00  0.00     0.002 A 
HETATM   15  C   UNL     1      43.431  -7.833  22.344  1.00  0.00     0.001 A 
HETATM   16  C   UNL     1      43.046  -6.784  21.500  1.00  0.00     0.014 A 
ENDROOT
BRANCH   1  17
HETATM   17  C   UNL     1      41.473  -7.360  15.648  1.00  0.00    -0.029 A 
HETATM   18  C   UNL     1      42.668  -6.866  15.111  1.00  0.00     0.012 A 
HETATM   19  C   UNL     1      43.236  -7.429  13.963  1.00  0.00     0.038 A 
HETATM   20  C   UNL     1      42.627  -8.511  13.323  1.00  0.00     0.074 A 
HETATM   21  C   UNL     1      41.428  -9.024  13.839  1.00  0.00    -0.028 A 
HETATM   22  C   UNL     1      40.721 -10.169  13.164  1.00  0.00     0.051 C 
HETATM   23  C   UNL     1      40.856  -8.436  14.982  1.00  0.00     0.019 A 
BRANCH  20  24
HETATM   24  O   UNL     1      43.106  -9.119  12.193  1.00  0.00    -0.355 OA
HETATM   25  C   UNL     1      43.249  -8.313  11.031  1.00  0.00     0.210 C 
ENDBRANCH  20  24
ENDBRANCH   1  17
BRANCH   3  26
HETATM   26  C   UNL     1      38.412  -5.586  15.798  1.00  0.00     0.108 C 
BRANCH  26  27
HETATM   27  C   UNL     1      37.939  -5.213  14.394  1.00  0.00     0.051 C 
BRANCH  27  28
HETATM   28  C   UNL     1      38.710  -5.844  13.283  1.00  0.00    -0.021 A 
HETATM   29  C   UNL     1      38.358  -6.894  12.458  1.00  0.00     0.120 A 
HETATM   30  N   UNL     1      39.390  -7.058  11.581  1.00  0.00    -0.285 N 
HETATM   31  C   UNL     1      39.481  -8.031  10.519  1.00  0.00     0.179 C 
HETATM   32  N   UNL     1      40.389  -6.177  11.759  1.00  0.00    -0.185 NA
HETATM   33  C   UNL     1      39.981  -5.449  12.801  1.00  0.00     0.147 A 
ENDBRANCH  27  28
ENDBRANCH  26  27
ENDBRANCH   3  26
TORSDOF 5
ENDMDL
MODEL 4
REMARK VINA RESULT:      -8.6      2.874      6.781
REMARK  5 active torsions:
REMARK  status: ('A' for Active; 'I' for Inactive)
REMARK    1  A    between atoms: C_3  and  O_4 
REMARK    2  A    between atoms: C_8  and  C_9 
REMARK       I    between atoms: N_10  and  C_11 
REMARK    3  A    between atoms: C_11  and  C_12 
REMARK    4  A    between atoms: C_12  and  C_13 
REMARK    5  A    between atoms: C_13  and  C_14 
ROOT
HETATM    1  C   UNL     1      41.118 -13.981   3.518  1.00  0.00     0.171 C 
HETATM    2  N   UNL     1      41.615 -13.167   4.659  1.00  0.00    -0.338 N 
HETATM    3  C   UNL     1      40.802 -12.360   5.449  1.00  0.00     0.221 C 
HETATM    4  O   UNL     1      41.257 -11.691   6.379  1.00  0.00    -0.273 OA
HETATM    5  C   UNL     1      43.057 -13.258   4.995  1.00  0.00     0.131 C 
HETATM    6  C   UNL     1      43.486 -14.697   5.326  1.00  0.00     0.061 C 
HETATM    7  C   UNL     1      42.985 -15.609   4.262  1.00  0.00    -0.019 A 
HETATM    8  C   UNL     1      41.932 -15.244   3.443  1.00  0.00     0.044 A 
HETATM    9  N   UNL     1      41.704 -16.283   2.578  1.00  0.00    -0.356 N 
HETATM   10  H   UNL     1      41.006 -16.302   1.848  1.00  0.00     0.166 HD
HETATM   11  C   UNL     1      42.549 -17.333   2.865  1.00  0.00     0.043 A 
HETATM   12  C   UNL     1      43.375 -16.929   3.915  1.00  0.00    -0.001 A 
HETATM   13  C   UNL     1      42.638 -18.601   2.279  1.00  0.00     0.030 A 
HETATM   14  C   UNL     1      43.595 -19.483   2.787  1.00  0.00     0.002 A 
HETATM   15  C   UNL     1      44.436 -19.107   3.833  1.00  0.00     0.001 A 
HETATM   16  C   UNL     1      44.338 -17.833   4.405  1.00  0.00     0.014 A 
ENDROOT
BRANCH   1  17
HETATM   17  C   UNL     1      41.037 -13.220   2.197  1.00  0.00    -0.029 A 
HETATM   18  C   UNL     1      41.754 -12.044   1.944  1.00  0.00     0.012 A 
HETATM   19  C   UNL     1      41.665 -11.391   0.709  1.00  0.00     0.038 A 
HETATM   20  C   UNL     1      40.861 -11.902  -0.312  1.00  0.00     0.074 A 
HETATM   21  C   UNL     1      40.131 -13.078  -0.084  1.00  0.00    -0.028 A 
HETATM   22  C   UNL     1      39.228 -13.646  -1.146  1.00  0.00     0.051 C 
HETATM   23  C   UNL     1      40.212 -13.714   1.168  1.00  0.00     0.019 A 
BRANCH  20  24
HETATM   24  O   UNL     1      40.708 -11.327  -1.546  1.00  0.00    -0.355 OA
HETATM   25  C   UNL     1      40.858  -9.916  -1.629  1.00  0.00     0.210 C 
ENDBRANCH  20  24
ENDBRANCH   1  17
BRANCH   3  26
HETATM   26  C   UNL     1      39.305 -12.403   5.175  1.00  0.00     0.108 C 
BRANCH  26  27
HETATM   27  C   UNL     1      38.655 -11.022   5.109  1.00  0.00     0.051 C 
BRANCH  27  28
HETATM   28  C   UNL     1      38.887 -10.278   3.835  1.00  0.00    -0.021 A 
HETATM   29  C   UNL     1      39.711  -9.198   3.589  1.00  0.00     0.120 A 
HETATM   30  N   UNL     1      39.596  -8.921   2.258  1.00  0.00    -0.285 N 
HETATM   31  C   UNL     1      40.274  -7.879   1.526  1.00  0.00     0.179 C 
HETATM   32  N   UNL     1      38.769  -9.756   1.607  1.00  0.00    -0.185 NA
HETATM   33  C   UNL     1      38.328 -10.572   2.568  1.00  0.00     0.147 A 
ENDBRANCH  27  28
ENDBRANCH  26  27
ENDBRANCH   3  26
TORSDOF 5
ENDMDL
MODEL 5
REMARK VINA RESULT:      -8.2      3.145      7.647
REMARK  5 active torsions:
REMARK  status: ('A' for Active; 'I' for Inactive)
REMARK    1  A    between atoms: C_3  and  O_4 
REMARK    2  A    between atoms: C_8  and  C_9 
REMARK       I    between atoms: N_10  and  C_11 
REMARK    3  A    between atoms: C_11  and  C_12 
REMARK    4  A    between atoms: C_12  and  C_13 
REMARK    5  A    between atoms: C_13  and  C_14 
ROOT
HETATM    1  C   UNL     1      40.790 -12.887   3.197  1.00  0.00     0.171 C 
HETATM    2  N   UNL     1      41.307 -11.517   3.455  1.00  0.00    -0.338 N 
HETATM    3  C   UNL     1      40.500 -10.386   3.541  1.00  0.00     0.221 C 
HETATM    4  O   UNL     1      40.972  -9.266   3.744  1.00  0.00    -0.273 OA
HETATM    5  C   UNL     1      42.765 -11.361   3.674  1.00  0.00     0.131 C 
HETATM    6  C   UNL     1      43.266 -12.198   4.863  1.00  0.00     0.061 C 
HETATM    7  C   UNL     1      42.752 -13.588   4.728  1.00  0.00    -0.019 A 
HETATM    8  C   UNL     1      41.649 -13.871   3.944  1.00  0.00     0.044 A 
HETATM    9  N   UNL     1      41.422 -15.220   4.023  1.00  0.00    -0.356 N 
HETATM   10  H   UNL     1      40.692 -15.726   3.543  1.00  0.00     0.166 HD
HETATM   11  C   UNL     1      42.321 -15.801   4.891  1.00  0.00     0.043 A 
HETATM   12  C   UNL     1      43.178 -14.795   5.340  1.00  0.00    -0.001 A 
HETATM   13  C   UNL     1      42.433 -17.132   5.312  1.00  0.00     0.030 A 
HETATM   14  C   UNL     1      43.447 -17.440   6.222  1.00  0.00     0.002 A 
HETATM   15  C   UNL     1      44.320 -16.458   6.685  1.00  0.00     0.001 A 
HETATM   16  C   UNL     1      44.198 -15.133   6.251  1.00  0.00     0.014 A 
ENDROOT
BRANCH   1  17
HETATM   17  C   UNL     1      40.617 -13.220   1.717  1.00  0.00    -0.029 A 
HETATM   18  C   UNL     1      40.056 -14.419   1.260  1.00  0.00     0.012 A 
HETATM   19  C   UNL     1      39.897 -14.673  -0.108  1.00  0.00     0.038 A 
HETATM   20  C   UNL     1      40.289 -13.728  -1.058  1.00  0.00     0.074 A 
HETATM   21  C   UNL     1      40.856 -12.518  -0.628  1.00  0.00    -0.028 A 
HETATM   22  C   UNL     1      41.320 -11.486  -1.619  1.00  0.00     0.051 C 
HETATM   23  C   UNL     1      41.028 -12.284   0.748  1.00  0.00     0.019 A 
BRANCH  20  24
HETATM   24  O   UNL     1      40.179 -13.893  -2.413  1.00  0.00    -0.355 OA
HETATM   25  C   UNL     1      38.868 -14.010  -2.950  1.00  0.00     0.210 C 
ENDBRANCH  20  24
ENDBRANCH   1  17
BRANCH   3  26
HETATM   26  C   UNL     1      38.995 -10.599   3.460  1.00  0.00     0.108 C 
BRANCH  26  27
HETATM   27  C   UNL     1      38.287  -9.619   2.527  1.00  0.00     0.051 C 
BRANCH  27  28
HETATM   28  C   UNL     1      38.011 -10.143   1.156  1.00  0.00    -0.021 A 
HETATM   29  C   UNL     1      38.281  -9.572  -0.071  1.00  0.00     0.120 A 
HETATM   30  N   UNL     1      37.874 -10.471  -1.013  1.00  0.00    -0.285 N 
HETATM   31  C   UNL     1      37.957 -10.325  -2.446  1.00  0.00     0.179 C 
HETATM   32  N   UNL     1      37.372 -11.602  -0.491  1.00  0.00    -0.185 NA
HETATM   33  C   UNL     1      37.443 -11.397   0.827  1.00  0.00     0.147 A 
ENDBRANCH  27  28
ENDBRANCH  26  27
ENDBRANCH   3  26
TORSDOF 5
ENDMDL
MODEL 6
REMARK VINA RESULT:      -8.2     16.123     17.962
REMARK  5 active torsions:
REMARK  status: ('A' for Active; 'I' for Inactive)
REMARK    1  A    between atoms: C_3  and  O_4 
REMARK    2  A    between atoms: C_8  and  C_9 
REMARK       I    between atoms: N_10  and  C_11 
REMARK    3  A    between atoms: C_11  and  C_12 
REMARK    4  A    between atoms: C_12  and  C_13 
REMARK    5  A    between atoms: C_13  and  C_14 
ROOT
HETATM    1  C   UNL     1      45.094 -30.411  -0.185  1.00  0.00     0.171 C 
HETATM    2  N   UNL     1      45.707 -29.065  -0.030  1.00  0.00    -0.338 N 
HETATM    3  C   UNL     1      46.661 -28.753   0.934  1.00  0.00     0.221 C 
HETATM    4  O   UNL     1      47.135 -27.620   1.036  1.00  0.00    -0.273 OA
HETATM    5  C   UNL     1      45.303 -28.009  -0.990  1.00  0.00     0.131 C 
HETATM    6  C   UNL     1      45.596 -28.406  -2.447  1.00  0.00     0.061 C 
HETATM    7  C   UNL     1      45.066 -29.775  -2.692  1.00  0.00    -0.019 A 
HETATM    8  C   UNL     1      44.822 -30.647  -1.646  1.00  0.00     0.044 A 
HETATM    9  N   UNL     1      44.348 -31.814  -2.186  1.00  0.00    -0.356 N 
HETATM   10  H   UNL     1      44.066 -32.633  -1.666  1.00  0.00     0.166 HD
HETATM   11  C   UNL     1      44.339 -31.731  -3.561  1.00  0.00     0.043 A 
HETATM   12  C   UNL     1      44.777 -30.451  -3.906  1.00  0.00    -0.001 A 
HETATM   13  C   UNL     1      43.985 -32.691  -4.517  1.00  0.00     0.030 A 
HETATM   14  C   UNL     1      44.087 -32.332  -5.864  1.00  0.00     0.002 A 
HETATM   15  C   UNL     1      44.517 -31.060  -6.238  1.00  0.00     0.001 A 
HETATM   16  C   UNL     1      44.863 -30.110  -5.269  1.00  0.00     0.014 A 
ENDROOT
BRANCH   1  17
HETATM   17  C   UNL     1      43.883 -30.653   0.714  1.00  0.00    -0.029 A 
HETATM   18  C   UNL     1      42.951 -29.657   1.029  1.00  0.00     0.012 A 
HETATM   19  C   UNL     1      41.844 -29.929   1.841  1.00  0.00     0.038 A 
HETATM   20  C   UNL     1      41.634 -31.210   2.354  1.00  0.00     0.074 A 
HETATM   21  C   UNL     1      42.554 -32.227   2.055  1.00  0.00    -0.028 A 
HETATM   22  C   UNL     1      42.383 -33.614   2.613  1.00  0.00     0.051 C 
HETATM   23  C   UNL     1      43.673 -31.936   1.255  1.00  0.00     0.019 A 
BRANCH  20  24
HETATM   24  O   UNL     1      40.585 -31.565   3.161  1.00  0.00    -0.355 OA
HETATM   25  C   UNL     1      40.558 -31.015   4.472  1.00  0.00     0.210 C 
ENDBRANCH  20  24
ENDBRANCH   1  17
BRANCH   3  26
HETATM   26  C   UNL     1      47.165 -29.895   1.807  1.00  0.00     0.108 C 
BRANCH  26  27
HETATM   27  C   UNL     1      47.636 -29.446   3.189  1.00  0.00     0.051 C 
BRANCH  27  28
HETATM   28  C   UNL     1      49.015 -29.886   3.556  1.00  0.00    -0.021 A 
HETATM   29  C   UNL     1      49.452 -30.545   4.688  1.00  0.00     0.120 A 
HETATM   30  N   UNL     1      50.790 -30.753   4.521  1.00  0.00    -0.285 N 
HETATM   31  C   UNL     1      51.687 -31.413   5.437  1.00  0.00     0.179 C 
HETATM   32  N   UNL     1      51.260 -30.294   3.348  1.00  0.00    -0.185 NA
HETATM   33  C   UNL     1      50.184 -29.755   2.769  1.00  0.00     0.147 A 
ENDBRANCH  27  28
ENDBRANCH  26  27
ENDBRANCH   3  26
TORSDOF 5
ENDMDL
MODEL 7
REMARK VINA RESULT:      -8.1      6.601     10.442
REMARK  5 active torsions:
REMARK  status: ('A' for Active; 'I' for Inactive)
REMARK    1  A    between atoms: C_3  and  O_4 
REMARK    2  A    between atoms: C_8  and  C_9 
REMARK       I    between atoms: N_10  and  C_11 
REMARK    3  A    between atoms: C_11  and  C_12 
REMARK    4  A    between atoms: C_12  and  C_13 
REMARK    5  A    between atoms: C_13  and  C_14 
ROOT
HETATM    1  C   UNL     1      41.443  -8.010   9.277  1.00  0.00     0.171 C 
HETATM    2  N   UNL     1      40.145  -8.165   8.568  1.00  0.00    -0.338 N 
HETATM    3  C   UNL     1      39.227  -7.133   8.394  1.00  0.00     0.221 C 
HETATM    4  O   UNL     1      38.156  -7.309   7.809  1.00  0.00    -0.273 OA
HETATM    5  C   UNL     1      39.836  -9.490   7.978  1.00  0.00     0.131 C 
HETATM    6  C   UNL     1      40.896  -9.931   6.954  1.00  0.00     0.061 C 
HETATM    7  C   UNL     1      42.248  -9.760   7.552  1.00  0.00    -0.019 A 
HETATM    8  C   UNL     1      42.456  -8.906   8.620  1.00  0.00     0.044 A 
HETATM    9  N   UNL     1      43.788  -8.963   8.938  1.00  0.00    -0.356 N 
HETATM   10  H   UNL     1      44.238  -8.460   9.690  1.00  0.00     0.166 HD
HETATM   11  C   UNL     1      44.451  -9.790   8.058  1.00  0.00     0.043 A 
HETATM   12  C   UNL     1      43.501 -10.314   7.180  1.00  0.00    -0.001 A 
HETATM   13  C   UNL     1      45.813 -10.104   7.971  1.00  0.00     0.030 A 
HETATM   14  C   UNL     1      46.213 -10.975   6.955  1.00  0.00     0.002 A 
HETATM   15  C   UNL     1      45.286 -11.517   6.066  1.00  0.00     0.001 A 
HETATM   16  C   UNL     1      43.927 -11.197   6.169  1.00  0.00     0.014 A 
ENDROOT
BRANCH   1  17
HETATM   17  C   UNL     1      41.351  -8.188  10.791  1.00  0.00    -0.029 A 
HETATM   18  C   UNL     1      41.941  -7.307  11.704  1.00  0.00     0.012 A 
HETATM   19  C   UNL     1      41.814  -7.498  13.085  1.00  0.00     0.038 A 
HETATM   20  C   UNL     1      41.083  -8.575  13.591  1.00  0.00     0.074 A 
HETATM   21  C   UNL     1      40.483  -9.475  12.698  1.00  0.00    -0.028 A 
HETATM   22  C   UNL     1      39.713 -10.666  13.200  1.00  0.00     0.051 C 
HETATM   23  C   UNL     1      40.636  -9.283  11.313  1.00  0.00     0.019 A 
BRANCH  20  24
HETATM   24  O   UNL     1      40.912  -8.844  14.923  1.00  0.00    -0.355 OA
HETATM   25  C   UNL     1      41.478  -7.927  15.851  1.00  0.00     0.210 C 
ENDBRANCH  20  24
ENDBRANCH   1  17
BRANCH   3  26
HETATM   26  C   UNL     1      39.637  -5.750   8.879  1.00  0.00     0.108 C 
BRANCH  26  27
HETATM   27  C   UNL     1      38.582  -5.069   9.750  1.00  0.00     0.051 C 
BRANCH  27  28
HETATM   28  C   UNL     1      38.587  -5.485  11.184  1.00  0.00    -0.021 A 
HETATM   29  C   UNL     1      39.087  -4.822  12.287  1.00  0.00     0.120 A 
HETATM   30  N   UNL     1      38.804  -5.604  13.368  1.00  0.00    -0.285 N 
HETATM   31  C   UNL     1      39.123  -5.327  14.747  1.00  0.00     0.179 C 
HETATM   32  N   UNL     1      38.136  -6.727  13.055  1.00  0.00    -0.185 NA
HETATM   33  C   UNL     1      38.016  -6.660  11.727  1.00  0.00     0.147 A 
ENDBRANCH  27  28
ENDBRANCH  26  27
ENDBRANCH   3  26
TORSDOF 5
ENDMDL
MODEL 8
REMARK VINA RESULT:      -8.1     16.129     18.081
REMARK  5 active torsions:
REMARK  status: ('A' for Active; 'I' for Inactive)
REMARK    1  A    between atoms: C_3  and  O_4 
REMARK    2  A    between atoms: C_8  and  C_9 
REMARK       I    between atoms: N_10  and  C_11 
REMARK    3  A    between atoms: C_11  and  C_12 
REMARK    4  A    between atoms: C_12  and  C_13 
REMARK    5  A    between atoms: C_13  and  C_14 
ROOT
HETATM    1  C   UNL     1      45.927 -30.554   1.637  1.00  0.00     0.171 C 
HETATM    2  N   UNL     1      46.884 -29.605   2.266  1.00  0.00    -0.338 N 
HETATM    3  C   UNL     1      47.905 -29.990   3.130  1.00  0.00     0.221 C 
HETATM    4  O   UNL     1      48.669 -29.168   3.639  1.00  0.00    -0.273 OA
HETATM    5  C   UNL     1      46.764 -28.170   1.912  1.00  0.00     0.131 C 
HETATM    6  C   UNL     1      46.912 -27.930   0.400  1.00  0.00     0.061 C 
HETATM    7  C   UNL     1      46.027 -28.878  -0.330  1.00  0.00    -0.019 A 
HETATM    8  C   UNL     1      45.576 -30.041   0.268  1.00  0.00     0.044 A 
HETATM    9  N   UNL     1      44.794 -30.697  -0.647  1.00  0.00    -0.356 N 
HETATM   10  H   UNL     1      44.310 -31.570  -0.493  1.00  0.00     0.166 HD
HETATM   11  C   UNL     1      44.783 -30.009  -1.841  1.00  0.00     0.043 A 
HETATM   12  C   UNL     1      45.544 -28.852  -1.664  1.00  0.00    -0.001 A 
HETATM   13  C   UNL     1      44.165 -30.328  -3.057  1.00  0.00     0.030 A 
HETATM   14  C   UNL     1      44.336 -29.440  -4.122  1.00  0.00     0.002 A 
HETATM   15  C   UNL     1      45.087 -28.275  -3.974  1.00  0.00     0.001 A 
HETATM   16  C   UNL     1      45.694 -27.968  -2.750  1.00  0.00     0.014 A 
ENDROOT
BRANCH   1  17
HETATM   17  C   UNL     1      44.713 -30.880   2.504  1.00  0.00    -0.029 A 
HETATM   18  C   UNL     1      43.622 -30.017   2.652  1.00  0.00     0.012 A 
HETATM   19  C   UNL     1      42.519 -30.367   3.441  1.00  0.00     0.038 A 
HETATM   20  C   UNL     1      42.475 -31.598   4.098  1.00  0.00     0.074 A 
HETATM   21  C   UNL     1      43.557 -32.482   3.968  1.00  0.00    -0.028 A 
HETATM   22  C   UNL     1      43.565 -33.806   4.684  1.00  0.00     0.051 C 
HETATM   23  C   UNL     1      44.667 -32.110   3.189  1.00  0.00     0.019 A 
BRANCH  20  24
HETATM   24  O   UNL     1      41.444 -32.020   4.894  1.00  0.00    -0.355 OA
HETATM   25  C   UNL     1      40.158 -31.470   4.641  1.00  0.00     0.210 C 
ENDBRANCH  20  24
ENDBRANCH   1  17
BRANCH   3  26
HETATM   26  C   UNL     1      48.097 -31.483   3.357  1.00  0.00     0.108 C 
BRANCH  26  27
HETATM   27  C   UNL     1      49.359 -32.044   2.705  1.00  0.00     0.051 C 
BRANCH  27  28
HETATM   28  C   UNL     1      49.713 -31.431   1.390  1.00  0.00    -0.021 A 
HETATM   29  C   UNL     1      49.107 -31.587   0.159  1.00  0.00     0.120 A 
HETATM   30  N   UNL     1      49.784 -30.781  -0.709  1.00  0.00    -0.285 N 
HETATM   31  C   UNL     1      49.514 -30.599  -2.114  1.00  0.00     0.179 C 
HETATM   32  N   UNL     1      50.782 -30.092  -0.131  1.00  0.00    -0.185 NA
HETATM   33  C   UNL     1      50.747 -30.497   1.141  1.00  0.00     0.147 A 
ENDBRANCH  27  28
ENDBRANCH  26  27
ENDBRANCH   3  26
TORSDOF 5
ENDMDL
MODEL 9
REMARK VINA RESULT:      -7.9      5.705     11.880
REMARK  5 active torsions:
REMARK  status: ('A' for Active; 'I' for Inactive)
REMARK    1  A    between atoms: C_3  and  O_4 
REMARK    2  A    between atoms: C_8  and  C_9 
REMARK       I    between atoms: N_10  and  C_11 
REMARK    3  A    between atoms: C_11  and  C_12 
REMARK    4  A    between atoms: C_12  and  C_13 
REMARK    5  A    between atoms: C_13  and  C_14 
ROOT
HETATM    1  C   UNL     1      43.047  -7.829  11.426  1.00  0.00     0.171 C 
HETATM    2  N   UNL     1      43.225  -9.301  11.533  1.00  0.00    -0.338 N 
HETATM    3  C   UNL     1      44.288  -9.998  10.965  1.00  0.00     0.221 C 
HETATM    4  O   UNL     1      44.390 -11.222  11.067  1.00  0.00    -0.273 OA
HETATM    5  C   UNL     1      42.230 -10.060  12.329  1.00  0.00     0.131 C 
HETATM    6  C   UNL     1      42.155  -9.568  13.784  1.00  0.00     0.061 C 
HETATM    7  C   UNL     1      42.030  -8.086  13.789  1.00  0.00    -0.019 A 
HETATM    8  C   UNL     1      42.415  -7.330  12.697  1.00  0.00     0.044 A 
HETATM    9  N   UNL     1      42.184  -6.015  13.004  1.00  0.00    -0.356 N 
HETATM   10  H   UNL     1      42.351  -5.227  12.393  1.00  0.00     0.166 HD
HETATM   11  C   UNL     1      41.715  -5.904  14.294  1.00  0.00     0.043 A 
HETATM   12  C   UNL     1      41.598  -7.197  14.809  1.00  0.00    -0.001 A 
HETATM   13  C   UNL     1      41.395  -4.763  15.040  1.00  0.00     0.030 A 
HETATM   14  C   UNL     1      40.948  -4.951  16.351  1.00  0.00     0.002 A 
HETATM   15  C   UNL     1      40.818  -6.230  16.890  1.00  0.00     0.001 A 
HETATM   16  C   UNL     1      41.137  -7.361  16.129  1.00  0.00     0.014 A 
ENDROOT
BRANCH   1  17
HETATM   17  C   UNL     1      42.323  -7.378  10.159  1.00  0.00    -0.029 A 
HETATM   18  C   UNL     1      42.635  -6.198   9.475  1.00  0.00     0.012 A 
HETATM   19  C   UNL     1      41.958  -5.835   8.305  1.00  0.00     0.038 A 
HETATM   20  C   UNL     1      40.953  -6.650   7.781  1.00  0.00     0.074 A 
HETATM   21  C   UNL     1      40.619  -7.838   8.447  1.00  0.00    -0.028 A 
HETATM   22  C   UNL     1      39.520  -8.731   7.935  1.00  0.00     0.051 C 
HETATM   23  C   UNL     1      41.292  -8.181   9.633  1.00  0.00     0.019 A 
BRANCH  20  24
HETATM   24  O   UNL     1      40.234  -6.372   6.648  1.00  0.00    -0.355 OA
HETATM   25  C   UNL     1      40.960  -6.236   5.433  1.00  0.00     0.210 C 
ENDBRANCH  20  24
ENDBRANCH   1  17
BRANCH   3  26
HETATM   26  C   UNL     1      45.371  -9.175  10.282  1.00  0.00     0.108 C 
BRANCH  26  27
HETATM   27  C   UNL     1      45.093  -8.902   8.804  1.00  0.00     0.051 C 
BRANCH  27  28
HETATM   28  C   UNL     1      44.708 -10.103   8.005  1.00  0.00    -0.021 A 
HETATM   29  C   UNL     1      43.469 -10.474   7.522  1.00  0.00     0.120 A 
HETATM   30  N   UNL     1      43.658 -11.628   6.820  1.00  0.00    -0.285 N 
HETATM   31  C   UNL     1      42.654 -12.394   6.122  1.00  0.00     0.179 C 
HETATM   32  N   UNL     1      44.939 -12.032   6.790  1.00  0.00    -0.185 NA
HETATM   33  C   UNL     1      45.574 -11.113   7.522  1.00  0.00     0.147 A 
ENDBRANCH  27  28
ENDBRANCH  26  27
ENDBRANCH   3  26
TORSDOF 5
ENDMDL
MODEL 10
REMARK VINA RESULT:      -7.8      3.245      7.413
REMARK  5 active torsions:
REMARK  status: ('A' for Active; 'I' for Inactive)
REMARK    1  A    between atoms: C_3  and  O_4 
REMARK    2  A    between atoms: C_8  and  C_9 
REMARK       I    between atoms: N_10  and  C_11 
REMARK    3  A    between atoms: C_11  and  C_12 
REMARK    4  A    between atoms: C_12  and  C_13 
REMARK    5  A    between atoms: C_13  and  C_14 
ROOT
HETATM    1  C   UNL     1      41.753 -13.288   2.722  1.00  0.00     0.171 C 
HETATM    2  N   UNL     1      40.825 -13.290   1.560  1.00  0.00    -0.338 N 
HETATM    3  C   UNL     1      40.739 -12.255   0.634  1.00  0.00     0.221 C 
HETATM    4  O   UNL     1      39.945 -12.292  -0.309  1.00  0.00    -0.273 OA
HETATM    5  C   UNL     1      39.974 -14.488   1.359  1.00  0.00     0.131 C 
HETATM    6  C   UNL     1      40.807 -15.771   1.196  1.00  0.00     0.061 C 
HETATM    7  C   UNL     1      41.814 -15.837   2.290  1.00  0.00    -0.019 A 
HETATM    8  C   UNL     1      42.198 -14.702   2.980  1.00  0.00     0.044 A 
HETATM    9  N   UNL     1      43.130 -15.082   3.911  1.00  0.00    -0.356 N 
HETATM   10  H   UNL     1      43.582 -14.472   4.576  1.00  0.00     0.166 HD
HETATM   11  C   UNL     1      43.396 -16.429   3.793  1.00  0.00     0.043 A 
HETATM   12  C   UNL     1      42.570 -16.931   2.786  1.00  0.00    -0.001 A 
HETATM   13  C   UNL     1      44.304 -17.231   4.495  1.00  0.00     0.030 A 
HETATM   14  C   UNL     1      44.373 -18.583   4.152  1.00  0.00     0.002 A 
HETATM   15  C   UNL     1      43.559 -19.114   3.153  1.00  0.00     0.001 A 
HETATM   16  C   UNL     1      42.652 -18.300   2.464  1.00  0.00     0.014 A 
ENDROOT
BRANCH   1  17
HETATM   17  C   UNL     1      41.204 -12.580   3.958  1.00  0.00    -0.029 A 
HETATM   18  C   UNL     1      39.882 -12.717   4.397  1.00  0.00     0.012 A 
HETATM   19  C   UNL     1      39.427 -12.065   5.549  1.00  0.00     0.038 A 
HETATM   20  C   UNL     1      40.287 -11.262   6.299  1.00  0.00     0.074 A 
HETATM   21  C   UNL     1      41.617 -11.105   5.881  1.00  0.00    -0.028 A 
HETATM   22  C   UNL     1      42.569 -10.223   6.643  1.00  0.00     0.051 C 
HETATM   23  C   UNL     1      42.056 -11.749   4.711  1.00  0.00     0.019 A 
BRANCH  20  24
HETATM   24  O   UNL     1      39.928 -10.581   7.433  1.00  0.00    -0.355 OA
HETATM   25  C   UNL     1      39.195  -9.374   7.262  1.00  0.00     0.210 C 
ENDBRANCH  20  24
ENDBRANCH   1  17
BRANCH   3  26
HETATM   26  C   UNL     1      41.728 -11.108   0.780  1.00  0.00     0.108 C 
BRANCH  26  27
HETATM   27  C   UNL     1      41.063  -9.745   0.970  1.00  0.00     0.051 C 
BRANCH  27  28
HETATM   28  C   UNL     1      41.433  -8.718  -0.048  1.00  0.00    -0.021 A 
HETATM   29  C   UNL     1      42.132  -8.866  -1.229  1.00  0.00     0.120 A 
HETATM   30  N   UNL     1      42.165  -7.635  -1.815  1.00  0.00    -0.285 N 
HETATM   31  C   UNL     1      42.780  -7.288  -3.073  1.00  0.00     0.179 C 
HETATM   32  N   UNL     1      41.520  -6.690  -1.111  1.00  0.00    -0.185 NA
HETATM   33  C   UNL     1      41.087  -7.345  -0.031  1.00  0.00     0.147 A 
ENDBRANCH  27  28
ENDBRANCH  26  27
ENDBRANCH   3  26
TORSDOF 5
ENDMDL
