MODEL 1
REMARK VINA RESULT:      -8.3      0.000      0.000
REMARK  4 active torsions:
REMARK  status: ('A' for Active; 'I' for Inactive)
REMARK    1  A    between atoms: C_2  and  C_3 
REMARK    2  A    between atoms: C_3  and  N_4 
REMARK    3  A    between atoms: N_8  and  C_9 
REMARK    4  A    between atoms: C_9  and  C_10 
ROOT
HETATM    1  N   UNL     1      43.038 -14.107   4.121  1.00  0.00    -0.061 N 
HETATM    2  H   UNL     1      43.963 -14.527   4.266  1.00  0.00     0.280 HD
HETATM    3  C   UNL     1      42.529 -13.740   5.517  1.00  0.00     0.216 C 
HETATM    4  C   UNL     1      43.699 -13.181   6.380  1.00  0.00     0.305 C 
HETATM    5  N   UNL     1      43.957 -11.747   6.251  1.00  0.00     0.095 N 
HETATM    6  C   UNL     1      44.180 -11.272   4.884  1.00  0.00     0.279 C 
HETATM    7  C   UNL     1      43.038 -11.595   3.901  1.00  0.00     0.040 C 
HETATM    8  C   UNL     1      43.239 -12.931   3.201  1.00  0.00     0.242 C 
HETATM    9  C   UNL     1      41.344 -12.778   5.402  1.00  0.00     0.035 C 
HETATM   10  C   UNL     1      41.647 -11.540   4.551  1.00  0.00     0.010 C 
ENDROOT
BRANCH   1  11
HETATM   11  C   UNL     1      42.234 -15.203   3.439  1.00  0.00     0.274 C 
BRANCH  11  12
HETATM   12  C   UNL     1      42.807 -16.582   3.618  1.00  0.00    -0.032 A 
HETATM   13  C   UNL     1      43.459 -16.928   4.811  1.00  0.00     0.011 A 
HETATM   14  C   UNL     1      44.002 -18.201   5.005  1.00  0.00     0.031 A 
HETATM   15  C   UNL     1      43.869 -19.127   3.966  1.00  0.00     0.042 A 
HETATM   16  C   UNL     1      43.227 -18.826   2.767  1.00  0.00    -0.008 A 
HETATM   17  N   UNL     1      44.285 -20.438   3.887  1.00  0.00    -0.365 N 
HETATM   18  C   UNL     1      42.688 -17.536   2.589  1.00  0.00     0.022 A 
HETATM   19  C   UNL     1      43.271 -19.996   1.961  1.00  0.00     0.030 A 
HETATM   20  C   UNL     1      43.929 -20.971   2.676  1.00  0.00     0.089 A 
HETATM   21  H   UNL     1      44.771 -20.938   4.620  1.00  0.00     0.165 HD
ENDBRANCH  11  12
ENDBRANCH   1  11
BRANCH   5  22
HETATM   22  C   UNL     1      45.027 -11.312   7.175  1.00  0.00     0.311 C 
BRANCH  22  23
HETATM   23  C   UNL     1      44.515 -10.495   8.338  1.00  0.00    -0.027 A 
HETATM   24  C   UNL     1      43.219  -9.965   8.326  1.00  0.00     0.028 A 
HETATM   25  C   UNL     1      42.796  -9.216   9.412  1.00  0.00     0.116 A 
HETATM   26  N   UNL     1      43.562  -8.966  10.493  1.00  0.00    -0.273 NA
HETATM   27  C   UNL     1      44.801  -9.499  10.498  1.00  0.00     0.116 A 
HETATM   28  C   UNL     1      45.317 -10.260   9.459  1.00  0.00     0.028 A 
ENDBRANCH  22  23
ENDBRANCH   5  22
TORSDOF 4
ENDMDL
MODEL 2
REMARK VINA RESULT:      -8.3      1.620      8.718
REMARK  4 active torsions:
REMARK  status: ('A' for Active; 'I' for Inactive)
REMARK    1  A    between atoms: C_2  and  C_3 
REMARK    2  A    between atoms: C_3  and  N_4 
REMARK    3  A    between atoms: N_8  and  C_9 
REMARK    4  A    between atoms: C_9  and  C_10 
ROOT
HETATM    1  N   UNL     1      41.889 -13.636   5.845  1.00  0.00    -0.061 N 
HETATM    2  H   UNL     1      42.602 -13.613   6.583  1.00  0.00     0.280 HD
HETATM    3  C   UNL     1      42.602 -14.168   4.600  1.00  0.00     0.216 C 
HETATM    4  C   UNL     1      43.592 -15.303   4.998  1.00  0.00     0.305 C 
HETATM    5  N   UNL     1      43.022 -16.648   5.073  1.00  0.00     0.095 N 
HETATM    6  C   UNL     1      41.855 -16.785   5.945  1.00  0.00     0.279 C 
HETATM    7  C   UNL     1      40.686 -15.840   5.603  1.00  0.00     0.040 C 
HETATM    8  C   UNL     1      40.776 -14.518   6.351  1.00  0.00     0.242 C 
HETATM    9  C   UNL     1      41.570 -14.599   3.554  1.00  0.00     0.035 C 
HETATM   10  C   UNL     1      40.534 -15.589   4.096  1.00  0.00     0.010 C 
ENDROOT
BRANCH   1  11
HETATM   11  C   UNL     1      41.430 -12.192   5.725  1.00  0.00     0.274 C 
BRANCH  11  12
HETATM   12  C   UNL     1      42.304 -11.210   6.457  1.00  0.00    -0.032 A 
HETATM   13  C   UNL     1      41.747 -10.057   7.028  1.00  0.00     0.011 A 
HETATM   14  C   UNL     1      42.535  -9.127   7.713  1.00  0.00     0.031 A 
HETATM   15  C   UNL     1      43.904  -9.388   7.816  1.00  0.00     0.042 A 
HETATM   16  C   UNL     1      44.497 -10.523   7.265  1.00  0.00    -0.008 A 
HETATM   17  N   UNL     1      44.902  -8.669   8.436  1.00  0.00    -0.365 N 
HETATM   18  C   UNL     1      43.687 -11.448   6.577  1.00  0.00     0.022 A 
HETATM   19  C   UNL     1      45.884 -10.464   7.572  1.00  0.00     0.030 A 
HETATM   20  C   UNL     1      46.103  -9.311   8.292  1.00  0.00     0.089 A 
HETATM   21  H   UNL     1      44.765  -7.799   8.935  1.00  0.00     0.165 HD
ENDBRANCH  11  12
ENDBRANCH   1  11
BRANCH   5  22
HETATM   22  C   UNL     1      44.065 -17.653   5.373  1.00  0.00     0.311 C 
BRANCH  22  23
HETATM   23  C   UNL     1      43.991 -18.873   4.483  1.00  0.00    -0.027 A 
HETATM   24  C   UNL     1      44.095 -20.161   5.022  1.00  0.00     0.028 A 
HETATM   25  C   UNL     1      44.029 -21.248   4.167  1.00  0.00     0.116 A 
HETATM   26  N   UNL     1      43.865 -21.142   2.833  1.00  0.00    -0.273 NA
HETATM   27  C   UNL     1      43.747 -19.896   2.331  1.00  0.00     0.116 A 
HETATM   28  C   UNL     1      43.803 -18.745   3.104  1.00  0.00     0.028 A 
ENDBRANCH  22  23
ENDBRANCH   5  22
TORSDOF 4
ENDMDL
MODEL 3
REMARK VINA RESULT:      -8.3      3.521      6.603
REMARK  4 active torsions:
REMARK  status: ('A' for Active; 'I' for Inactive)
REMARK    1  A    between atoms: C_2  and  C_3 
REMARK    2  A    between atoms: C_3  and  N_4 
REMARK    3  A    between atoms: N_8  and  C_9 
REMARK    4  A    between atoms: C_9  and  C_10 
ROOT
HETATM    1  N   UNL     1      42.216 -14.699   4.132  1.00  0.00    -0.061 N 
HETATM    2  H   UNL     1      41.587 -15.479   3.911  1.00  0.00     0.280 HD
HETATM    3  C   UNL     1      42.632 -14.111   2.782  1.00  0.00     0.216 C 
HETATM    4  C   UNL     1      41.417 -14.103   1.808  1.00  0.00     0.305 C 
HETATM    5  N   UNL     1      40.544 -12.931   1.889  1.00  0.00     0.095 N 
HETATM    6  C   UNL     1      40.015 -12.637   3.222  1.00  0.00     0.279 C 
HETATM    7  C   UNL     1      41.090 -12.449   4.309  1.00  0.00     0.040 C 
HETATM    8  C   UNL     1      41.437 -13.754   5.011  1.00  0.00     0.242 C 
HETATM    9  C   UNL     1      43.258 -12.729   2.988  1.00  0.00     0.035 C 
HETATM   10  C   UNL     1      42.366 -11.772   3.787  1.00  0.00     0.010 C 
ENDROOT
BRANCH   1  11
HETATM   11  C   UNL     1      43.356 -15.346   4.903  1.00  0.00     0.274 C 
BRANCH  11  12
HETATM   12  C   UNL     1      43.520 -16.817   4.630  1.00  0.00    -0.032 A 
HETATM   13  C   UNL     1      43.776 -17.707   5.683  1.00  0.00     0.011 A 
HETATM   14  C   UNL     1      43.933 -19.078   5.459  1.00  0.00     0.031 A 
HETATM   15  C   UNL     1      43.823 -19.536   4.143  1.00  0.00     0.042 A 
HETATM   16  C   UNL     1      43.568 -18.686   3.069  1.00  0.00    -0.008 A 
HETATM   17  N   UNL     1      43.916 -20.814   3.638  1.00  0.00    -0.365 N 
HETATM   18  C   UNL     1      43.414 -17.307   3.314  1.00  0.00     0.022 A 
HETATM   19  C   UNL     1      43.512 -19.492   1.900  1.00  0.00     0.030 A 
HETATM   20  C   UNL     1      43.731 -20.797   2.281  1.00  0.00     0.089 A 
HETATM   21  H   UNL     1      44.084 -21.645   4.190  1.00  0.00     0.165 HD
ENDBRANCH  11  12
ENDBRANCH   1  11
BRANCH   5  22
HETATM   22  C   UNL     1      39.478 -12.989   0.865  1.00  0.00     0.311 C 
BRANCH  22  23
HETATM   23  C   UNL     1      40.010 -12.975  -0.550  1.00  0.00    -0.027 A 
HETATM   24  C   UNL     1      40.798 -11.913  -1.009  1.00  0.00     0.028 A 
HETATM   25  C   UNL     1      41.256 -11.940  -2.315  1.00  0.00     0.116 A 
HETATM   26  N   UNL     1      40.991 -12.939  -3.182  1.00  0.00    -0.273 NA
HETATM   27  C   UNL     1      40.246 -13.964  -2.719  1.00  0.00     0.116 A 
HETATM   28  C   UNL     1      39.739 -14.028  -1.429  1.00  0.00     0.028 A 
ENDBRANCH  22  23
ENDBRANCH   5  22
TORSDOF 4
ENDMDL
MODEL 4
REMARK VINA RESULT:      -8.1      4.441      7.803
REMARK  4 active torsions:
REMARK  status: ('A' for Active; 'I' for Inactive)
REMARK    1  A    between atoms: C_2  and  C_3 
REMARK    2  A    between atoms: C_3  and  N_4 
REMARK    3  A    between atoms: N_8  and  C_9 
REMARK    4  A    between atoms: C_9  and  C_10 
ROOT
HETATM    1  N   UNL     1      41.363 -13.100   2.263  1.00  0.00    -0.061 N 
HETATM    2  H   UNL     1      41.609 -12.516   3.070  1.00  0.00     0.280 HD
HETATM    3  C   UNL     1      42.526 -14.081   2.097  1.00  0.00     0.216 C 
HETATM    4  C   UNL     1      43.026 -14.555   3.494  1.00  0.00     0.305 C 
HETATM    5  N   UNL     1      42.323 -15.705   4.066  1.00  0.00     0.095 N 
HETATM    6  C   UNL     1      40.870 -15.562   4.167  1.00  0.00     0.279 C 
HETATM    7  C   UNL     1      40.164 -15.244   2.834  1.00  0.00     0.040 C 
HETATM    8  C   UNL     1      40.041 -13.748   2.587  1.00  0.00     0.242 C 
HETATM    9  C   UNL     1      42.108 -15.232   1.177  1.00  0.00     0.035 C 
HETATM   10  C   UNL     1      40.819 -15.930   1.625  1.00  0.00     0.010 C 
ENDROOT
BRANCH   1  11
HETATM   11  C   UNL     1      41.220 -12.112   1.117  1.00  0.00     0.274 C 
BRANCH  11  12
HETATM   12  C   UNL     1      40.117 -12.451   0.152  1.00  0.00    -0.032 A 
HETATM   13  C   UNL     1      38.876 -11.804   0.242  1.00  0.00     0.011 A 
HETATM   14  C   UNL     1      37.832 -12.099  -0.641  1.00  0.00     0.031 A 
HETATM   15  C   UNL     1      38.069 -13.064  -1.624  1.00  0.00     0.042 A 
HETATM   16  C   UNL     1      39.287 -13.728  -1.749  1.00  0.00    -0.008 A 
HETATM   17  N   UNL     1      37.244 -13.537  -2.621  1.00  0.00    -0.365 N 
HETATM   18  C   UNL     1      40.327 -13.419  -0.850  1.00  0.00     0.022 A 
HETATM   19  C   UNL     1      39.170 -14.618  -2.852  1.00  0.00     0.030 A 
HETATM   20  C   UNL     1      37.901 -14.479  -3.367  1.00  0.00     0.089 A 
HETATM   21  H   UNL     1      36.295 -13.225  -2.785  1.00  0.00     0.165 HD
ENDBRANCH  11  12
ENDBRANCH   1  11
BRANCH   5  22
HETATM   22  C   UNL     1      42.934 -16.119   5.347  1.00  0.00     0.311 C 
BRANCH  22  23
HETATM   23  C   UNL     1      43.333 -17.577   5.373  1.00  0.00    -0.027 A 
HETATM   24  C   UNL     1      43.875 -18.192   4.238  1.00  0.00     0.028 A 
HETATM   25  C   UNL     1      44.219 -19.532   4.306  1.00  0.00     0.116 A 
HETATM   26  N   UNL     1      44.066 -20.288   5.412  1.00  0.00    -0.273 NA
HETATM   27  C   UNL     1      43.560 -19.677   6.503  1.00  0.00     0.116 A 
HETATM   28  C   UNL     1      43.184 -18.342   6.533  1.00  0.00     0.028 A 
ENDBRANCH  22  23
ENDBRANCH   5  22
TORSDOF 4
ENDMDL
MODEL 5
REMARK VINA RESULT:      -7.8      4.414      6.569
REMARK  4 active torsions:
REMARK  status: ('A' for Active; 'I' for Inactive)
REMARK    1  A    between atoms: C_2  and  C_3 
REMARK    2  A    between atoms: C_3  and  N_4 
REMARK    3  A    between atoms: N_8  and  C_9 
REMARK    4  A    between atoms: C_9  and  C_10 
ROOT
HETATM    1  N   UNL     1      40.795 -14.166   1.687  1.00  0.00    -0.061 N 
HETATM    2  H   UNL     1      40.141 -13.377   1.637  1.00  0.00     0.280 HD
HETATM    3  C   UNL     1      42.193 -13.544   1.658  1.00  0.00     0.216 C 
HETATM    4  C   UNL     1      42.213 -12.240   2.510  1.00  0.00     0.305 C 
HETATM    5  N   UNL     1      42.475 -12.417   3.939  1.00  0.00     0.095 N 
HETATM    6  C   UNL     1      41.586 -13.354   4.627  1.00  0.00     0.279 C 
HETATM    7  C   UNL     1      41.552 -14.768   4.017  1.00  0.00     0.040 C 
HETATM    8  C   UNL     1      40.471 -14.914   2.955  1.00  0.00     0.242 C 
HETATM    9  C   UNL     1      43.232 -14.578   2.102  1.00  0.00     0.035 C 
HETATM   10  C   UNL     1      42.909 -15.218   3.457  1.00  0.00     0.010 C 
ENDROOT
BRANCH   1  11
HETATM   11  C   UNL     1      40.466 -15.002   0.461  1.00  0.00     0.274 C 
BRANCH  11  12
HETATM   12  C   UNL     1      39.596 -14.296  -0.544  1.00  0.00    -0.032 A 
HETATM   13  C   UNL     1      39.207 -14.948  -1.724  1.00  0.00     0.011 A 
HETATM   14  C   UNL     1      38.401 -14.317  -2.675  1.00  0.00     0.031 A 
HETATM   15  C   UNL     1      37.989 -13.008  -2.410  1.00  0.00     0.042 A 
HETATM   16  C   UNL     1      38.350 -12.326  -1.249  1.00  0.00    -0.008 A 
HETATM   17  N   UNL     1      37.191 -12.161  -3.147  1.00  0.00    -0.365 N 
HETATM   18  C   UNL     1      39.165 -12.978  -0.303  1.00  0.00     0.022 A 
HETATM   19  C   UNL     1      37.747 -11.040  -1.313  1.00  0.00     0.030 A 
HETATM   20  C   UNL     1      37.041 -10.968  -2.492  1.00  0.00     0.089 A 
HETATM   21  H   UNL     1      36.768 -12.392  -4.037  1.00  0.00     0.165 HD
ENDBRANCH  11  12
ENDBRANCH   1  11
BRANCH   5  22
HETATM   22  C   UNL     1      42.556 -11.112   4.631  1.00  0.00     0.311 C 
BRANCH  22  23
HETATM   23  C   UNL     1      43.496 -11.122   5.814  1.00  0.00    -0.027 A 
HETATM   24  C   UNL     1      44.840 -11.481   5.659  1.00  0.00     0.028 A 
HETATM   25  C   UNL     1      45.661 -11.484   6.775  1.00  0.00     0.116 A 
HETATM   26  N   UNL     1      45.243 -11.155   8.014  1.00  0.00    -0.273 NA
HETATM   27  C   UNL     1      43.950 -10.794   8.144  1.00  0.00     0.116 A 
HETATM   28  C   UNL     1      43.048 -10.762   7.089  1.00  0.00     0.028 A 
ENDBRANCH  22  23
ENDBRANCH   5  22
TORSDOF 4
ENDMDL
MODEL 6
REMARK VINA RESULT:      -7.6      3.008      6.004
REMARK  4 active torsions:
REMARK  status: ('A' for Active; 'I' for Inactive)
REMARK    1  A    between atoms: C_2  and  C_3 
REMARK    2  A    between atoms: C_3  and  N_4 
REMARK    3  A    between atoms: N_8  and  C_9 
REMARK    4  A    between atoms: C_9  and  C_10 
ROOT
HETATM    1  N   UNL     1      42.814 -10.495   8.069  1.00  0.00    -0.061 N 
HETATM    2  H   UNL     1      42.158 -11.250   8.299  1.00  0.00     0.280 HD
HETATM    3  C   UNL     1      42.306  -9.264   8.822  1.00  0.00     0.216 C 
HETATM    4  C   UNL     1      41.795  -9.678  10.234  1.00  0.00     0.305 C 
HETATM    5  N   UNL     1      42.809  -9.730  11.288  1.00  0.00     0.095 N 
HETATM    6  C   UNL     1      43.970 -10.573  10.999  1.00  0.00     0.279 C 
HETATM    7  C   UNL     1      44.716 -10.210   9.700  1.00  0.00     0.040 C 
HETATM    8  C   UNL     1      44.181 -10.968   8.494  1.00  0.00     0.242 C 
HETATM    9  C   UNL     1      43.398  -8.191   8.859  1.00  0.00     0.035 C 
HETATM   10  C   UNL     1      44.732  -8.701   9.415  1.00  0.00     0.010 C 
ENDROOT
BRANCH   1  11
HETATM   11  C   UNL     1      42.726 -10.374   6.556  1.00  0.00     0.274 C 
BRANCH  11  12
HETATM   12  C   UNL     1      41.989 -11.507   5.894  1.00  0.00    -0.032 A 
HETATM   13  C   UNL     1      40.601 -11.632   6.047  1.00  0.00     0.011 A 
HETATM   14  C   UNL     1      39.890 -12.674   5.444  1.00  0.00     0.031 A 
HETATM   15  C   UNL     1      40.613 -13.592   4.676  1.00  0.00     0.042 A 
HETATM   16  C   UNL     1      41.992 -13.502   4.497  1.00  0.00    -0.008 A 
HETATM   17  N   UNL     1      40.181 -14.691   3.967  1.00  0.00    -0.365 N 
HETATM   18  C   UNL     1      42.691 -12.446   5.114  1.00  0.00     0.022 A 
HETATM   19  C   UNL     1      42.378 -14.583   3.658  1.00  0.00     0.030 A 
HETATM   20  C   UNL     1      41.243 -15.297   3.349  1.00  0.00     0.089 A 
HETATM   21  H   UNL     1      39.219 -14.997   3.901  1.00  0.00     0.165 HD
ENDBRANCH  11  12
ENDBRANCH   1  11
BRANCH   5  22
HETATM   22  C   UNL     1      42.199 -10.048  12.598  1.00  0.00     0.311 C 
BRANCH  22  23
HETATM   23  C   UNL     1      42.275  -8.905  13.584  1.00  0.00    -0.027 A 
HETATM   24  C   UNL     1      43.195  -7.865  13.406  1.00  0.00     0.028 A 
HETATM   25  C   UNL     1      43.234  -6.843  14.340  1.00  0.00     0.116 A 
HETATM   26  N   UNL     1      42.428  -6.784  15.420  1.00  0.00    -0.273 NA
HETATM   27  C   UNL     1      41.535  -7.784  15.567  1.00  0.00     0.116 A 
HETATM   28  C   UNL     1      41.421  -8.852  14.689  1.00  0.00     0.028 A 
ENDBRANCH  22  23
ENDBRANCH   5  22
TORSDOF 4
ENDMDL
MODEL 7
REMARK VINA RESULT:      -7.6      1.899      9.288
REMARK  4 active torsions:
REMARK  status: ('A' for Active; 'I' for Inactive)
REMARK    1  A    between atoms: C_2  and  C_3 
REMARK    2  A    between atoms: C_3  and  N_4 
REMARK    3  A    between atoms: N_8  and  C_9 
REMARK    4  A    between atoms: C_9  and  C_10 
ROOT
HETATM    1  N   UNL     1      43.800 -11.298   7.737  1.00  0.00    -0.061 N 
HETATM    2  H   UNL     1      43.499 -11.892   8.517  1.00  0.00     0.280 HD
HETATM    3  C   UNL     1      44.565 -12.223   6.787  1.00  0.00     0.216 C 
HETATM    4  C   UNL     1      43.855 -13.607   6.707  1.00  0.00     0.305 C 
HETATM    5  N   UNL     1      42.780 -13.716   5.720  1.00  0.00     0.095 N 
HETATM    6  C   UNL     1      41.723 -12.709   5.833  1.00  0.00     0.279 C 
HETATM    7  C   UNL     1      42.219 -11.251   5.772  1.00  0.00     0.040 C 
HETATM    8  C   UNL     1      42.550 -10.695   7.149  1.00  0.00     0.242 C 
HETATM    9  C   UNL     1      44.733 -11.545   5.425  1.00  0.00     0.035 C 
HETATM   10  C   UNL     1      43.410 -11.058   4.822  1.00  0.00     0.010 C 
ENDROOT
BRANCH   1  11
HETATM   11  C   UNL     1      44.665 -10.232   8.391  1.00  0.00     0.274 C 
BRANCH  11  12
HETATM   12  C   UNL     1      43.995  -9.519   9.534  1.00  0.00    -0.032 A 
HETATM   13  C   UNL     1      43.723  -8.146   9.448  1.00  0.00     0.011 A 
HETATM   14  C   UNL     1      43.102  -7.457  10.494  1.00  0.00     0.031 A 
HETATM   15  C   UNL     1      42.755  -8.187  11.635  1.00  0.00     0.042 A 
HETATM   16  C   UNL     1      43.005  -9.552  11.759  1.00  0.00    -0.008 A 
HETATM   17  N   UNL     1      42.130  -7.780  12.793  1.00  0.00    -0.365 N 
HETATM   18  C   UNL     1      43.633 -10.229  10.695  1.00  0.00     0.022 A 
HETATM   19  C   UNL     1      42.512  -9.955  13.030  1.00  0.00     0.030 A 
HETATM   20  C   UNL     1      41.981  -8.844  13.644  1.00  0.00     0.089 A 
HETATM   21  H   UNL     1      41.816  -6.837  12.982  1.00  0.00     0.165 HD
ENDBRANCH  11  12
ENDBRANCH   1  11
BRANCH   5  22
HETATM   22  C   UNL     1      42.239 -15.092   5.671  1.00  0.00     0.311 C 
BRANCH  22  23
HETATM   23  C   UNL     1      42.674 -15.860   4.445  1.00  0.00    -0.027 A 
HETATM   24  C   UNL     1      42.738 -15.236   3.193  1.00  0.00     0.028 A 
HETATM   25  C   UNL     1      43.135 -15.982   2.096  1.00  0.00     0.116 A 
HETATM   26  N   UNL     1      43.471 -17.287   2.160  1.00  0.00    -0.273 NA
HETATM   27  C   UNL     1      43.422 -17.869   3.376  1.00  0.00     0.116 A 
HETATM   28  C   UNL     1      43.035 -17.207   4.533  1.00  0.00     0.028 A 
ENDBRANCH  22  23
ENDBRANCH   5  22
TORSDOF 4
ENDMDL
MODEL 8
REMARK VINA RESULT:      -7.5      4.868      9.295
REMARK  4 active torsions:
REMARK  status: ('A' for Active; 'I' for Inactive)
REMARK    1  A    between atoms: C_2  and  C_3 
REMARK    2  A    between atoms: C_3  and  N_4 
REMARK    3  A    between atoms: N_8  and  C_9 
REMARK    4  A    between atoms: C_9  and  C_10 
ROOT
HETATM    1  N   UNL     1      42.995  -9.048  11.522  1.00  0.00    -0.061 N 
HETATM    2  H   UNL     1      42.593  -9.048  10.578  1.00  0.00     0.280 HD
HETATM    3  C   UNL     1      42.686  -7.666  12.102  1.00  0.00     0.216 C 
HETATM    4  C   UNL     1      41.254  -7.221  11.680  1.00  0.00     0.305 C 
HETATM    5  N   UNL     1      40.165  -7.672  12.548  1.00  0.00     0.095 N 
HETATM    6  C   UNL     1      40.105  -9.116  12.776  1.00  0.00     0.279 C 
HETATM    7  C   UNL     1      41.397  -9.728  13.352  1.00  0.00     0.040 C 
HETATM    8  C   UNL     1      42.352 -10.193  12.262  1.00  0.00     0.242 C 
HETATM    9  C   UNL     1      42.899  -7.679  13.618  1.00  0.00     0.035 C 
HETATM   10  C   UNL     1      42.124  -8.793  14.330  1.00  0.00     0.010 C 
ENDROOT
BRANCH   1  11
HETATM   11  C   UNL     1      44.476  -9.307  11.297  1.00  0.00     0.274 C 
BRANCH  11  12
HETATM   12  C   UNL     1      44.815  -9.737   9.895  1.00  0.00    -0.032 A 
HETATM   13  C   UNL     1      45.890  -9.147   9.215  1.00  0.00     0.011 A 
HETATM   14  C   UNL     1      46.228  -9.525   7.913  1.00  0.00     0.031 A 
HETATM   15  C   UNL     1      45.456 -10.521   7.307  1.00  0.00     0.042 A 
HETATM   16  C   UNL     1      44.381 -11.135   7.948  1.00  0.00    -0.008 A 
HETATM   17  N   UNL     1      45.566 -11.094   6.059  1.00  0.00    -0.365 N 
HETATM   18  C   UNL     1      44.055 -10.738   9.260  1.00  0.00     0.022 A 
HETATM   19  C   UNL     1      43.846 -12.094   7.046  1.00  0.00     0.030 A 
HETATM   20  C   UNL     1      44.595 -12.045   5.892  1.00  0.00     0.089 A 
HETATM   21  H   UNL     1      46.269 -10.855   5.372  1.00  0.00     0.165 HD
ENDBRANCH  11  12
ENDBRANCH   1  11
BRANCH   5  22
HETATM   22  C   UNL     1      38.866  -7.121  12.104  1.00  0.00     0.311 C 
BRANCH  22  23
HETATM   23  C   UNL     1      38.268  -6.141  13.086  1.00  0.00    -0.027 A 
HETATM   24  C   UNL     1      37.410  -5.124  12.650  1.00  0.00     0.028 A 
HETATM   25  C   UNL     1      36.892  -4.244  13.586  1.00  0.00     0.116 A 
HETATM   26  N   UNL     1      37.162  -4.309  14.905  1.00  0.00    -0.273 NA
HETATM   27  C   UNL     1      37.975  -5.305  15.312  1.00  0.00     0.116 A 
HETATM   28  C   UNL     1      38.546  -6.234  14.453  1.00  0.00     0.028 A 
ENDBRANCH  22  23
ENDBRANCH   5  22
TORSDOF 4
ENDMDL
MODEL 9
REMARK VINA RESULT:      -7.4      2.600      5.375
REMARK  4 active torsions:
REMARK  status: ('A' for Active; 'I' for Inactive)
REMARK    1  A    between atoms: C_2  and  C_3 
REMARK    2  A    between atoms: C_3  and  N_4 
REMARK    3  A    between atoms: N_8  and  C_9 
REMARK    4  A    between atoms: C_9  and  C_10 
ROOT
HETATM    1  N   UNL     1      43.757 -10.823   7.865  1.00  0.00    -0.061 N 
HETATM    2  H   UNL     1      43.418 -11.713   8.248  1.00  0.00     0.280 HD
HETATM    3  C   UNL     1      42.850  -9.746   8.464  1.00  0.00     0.216 C 
HETATM    4  C   UNL     1      42.538 -10.080   9.953  1.00  0.00     0.305 C 
HETATM    5  N   UNL     1      43.515  -9.601  10.932  1.00  0.00     0.095 N 
HETATM    6  C   UNL     1      44.898 -10.017  10.690  1.00  0.00     0.279 C 
HETATM    7  C   UNL     1      45.449  -9.628   9.304  1.00  0.00     0.040 C 
HETATM    8  C   UNL     1      45.207 -10.709   8.261  1.00  0.00     0.242 C 
HETATM    9  C   UNL     1      43.485  -8.366   8.269  1.00  0.00     0.035 C 
HETATM   10  C   UNL     1      44.919  -8.277   8.801  1.00  0.00     0.010 C 
ENDROOT
BRANCH   1  11
HETATM   11  C   UNL     1      43.613 -10.986   6.361  1.00  0.00     0.274 C 
BRANCH  11  12
HETATM   12  C   UNL     1      43.413 -12.409   5.916  1.00  0.00    -0.032 A 
HETATM   13  C   UNL     1      43.018 -12.690   4.601  1.00  0.00     0.011 A 
HETATM   14  C   UNL     1      42.824 -14.003   4.160  1.00  0.00     0.031 A 
HETATM   15  C   UNL     1      43.042 -15.033   5.079  1.00  0.00     0.042 A 
HETATM   16  C   UNL     1      43.438 -14.798   6.394  1.00  0.00    -0.008 A 
HETATM   17  N   UNL     1      42.945 -16.398   4.922  1.00  0.00    -0.365 N 
HETATM   18  C   UNL     1      43.627 -13.468   6.820  1.00  0.00     0.022 A 
HETATM   19  C   UNL     1      43.574 -16.064   7.025  1.00  0.00     0.030 A 
HETATM   20  C   UNL     1      43.263 -17.030   6.095  1.00  0.00     0.089 A 
HETATM   21  H   UNL     1      42.688 -16.866   4.062  1.00  0.00     0.165 HD
ENDBRANCH  11  12
ENDBRANCH   1  11
BRANCH   5  22
HETATM   22  C   UNL     1      43.076  -9.899  12.312  1.00  0.00     0.311 C 
BRANCH  22  23
HETATM   23  C   UNL     1      42.647  -8.669  13.079  1.00  0.00    -0.027 A 
HETATM   24  C   UNL     1      42.074  -8.780  14.351  1.00  0.00     0.028 A 
HETATM   25  C   UNL     1      41.689  -7.626  15.012  1.00  0.00     0.116 A 
HETATM   26  N   UNL     1      41.839  -6.386  14.502  1.00  0.00    -0.273 NA
HETATM   27  C   UNL     1      42.409  -6.294  13.284  1.00  0.00     0.116 A 
HETATM   28  C   UNL     1      42.825  -7.390  12.542  1.00  0.00     0.028 A 
ENDBRANCH  22  23
ENDBRANCH   5  22
TORSDOF 4
ENDMDL
MODEL 10
REMARK VINA RESULT:      -7.3      2.649      8.404
REMARK  4 active torsions:
REMARK  status: ('A' for Active; 'I' for Inactive)
REMARK    1  A    between atoms: C_2  and  C_3 
REMARK    2  A    between atoms: C_3  and  N_4 
REMARK    3  A    between atoms: N_8  and  C_9 
REMARK    4  A    between atoms: C_9  and  C_10 
ROOT
HETATM    1  N   UNL     1      42.266 -13.440   6.418  1.00  0.00    -0.061 N 
HETATM    2  H   UNL     1      42.542 -13.673   7.378  1.00  0.00     0.280 HD
HETATM    3  C   UNL     1      43.359 -14.025   5.521  1.00  0.00     0.216 C 
HETATM    4  C   UNL     1      43.811 -15.411   6.069  1.00  0.00     0.305 C 
HETATM    5  N   UNL     1      43.025 -16.561   5.619  1.00  0.00     0.095 N 
HETATM    6  C   UNL     1      41.585 -16.465   5.857  1.00  0.00     0.279 C 
HETATM    7  C   UNL     1      40.916 -15.219   5.244  1.00  0.00     0.040 C 
HETATM    8  C   UNL     1      40.899 -14.040   6.207  1.00  0.00     0.242 C 
HETATM    9  C   UNL     1      42.873 -14.072   4.070  1.00  0.00     0.035 C 
HETATM   10  C   UNL     1      41.535 -14.800   3.903  1.00  0.00     0.010 C 
ENDROOT
BRANCH   1  11
HETATM   11  C   UNL     1      42.202 -11.921   6.405  1.00  0.00     0.274 C 
BRANCH  11  12
HETATM   12  C   UNL     1      41.009 -11.366   5.677  1.00  0.00    -0.032 A 
HETATM   13  C   UNL     1      39.826 -11.079   6.373  1.00  0.00     0.011 A 
HETATM   14  C   UNL     1      38.701 -10.563   5.723  1.00  0.00     0.031 A 
HETATM   15  C   UNL     1      38.796 -10.336   4.347  1.00  0.00     0.042 A 
HETATM   16  C   UNL     1      39.953 -10.605   3.618  1.00  0.00    -0.008 A 
HETATM   17  N   UNL     1      37.868  -9.829   3.465  1.00  0.00    -0.365 N 
HETATM   18  C   UNL     1      41.075 -11.127   4.291  1.00  0.00     0.022 A 
HETATM   19  C   UNL     1      39.691 -10.245   2.268  1.00  0.00     0.030 A 
HETATM   20  C   UNL     1      38.401  -9.772   2.204  1.00  0.00     0.089 A 
HETATM   21  H   UNL     1      36.934  -9.530   3.714  1.00  0.00     0.165 HD
ENDBRANCH  11  12
ENDBRANCH   1  11
BRANCH   5  22
HETATM   22  C   UNL     1      43.594 -17.827   6.129  1.00  0.00     0.311 C 
BRANCH  22  23
HETATM   23  C   UNL     1      43.720 -18.895   5.066  1.00  0.00    -0.027 A 
HETATM   24  C   UNL     1      43.835 -20.245   5.416  1.00  0.00     0.028 A 
HETATM   25  C   UNL     1      43.956 -21.187   4.408  1.00  0.00     0.116 A 
HETATM   26  N   UNL     1      43.966 -20.880   3.095  1.00  0.00    -0.273 NA
HETATM   27  C   UNL     1      43.836 -19.577   2.773  1.00  0.00     0.116 A 
HETATM   28  C   UNL     1      43.712 -18.560   3.709  1.00  0.00     0.028 A 
ENDBRANCH  22  23
ENDBRANCH   5  22
TORSDOF 4
ENDMDL
