MODEL 1
REMARK VINA RESULT:      -8.9      0.000      0.000
REMARK  5 active torsions:
REMARK  status: ('A' for Active; 'I' for Inactive)
REMARK    1  A    between atoms: C_2  and  C_3 
REMARK    2  A    between atoms: C_7  and  C_8 
REMARK    3  A    between atoms: C_11  and  C_12 
REMARK       I    between atoms: C_12  and  N_13 
REMARK    4  A    between atoms: N_13  and  C_14 
REMARK    5  A    between atoms: C_17  and  N_18 
REMARK       I    between atoms: N_18  and  C_19 
ROOT
HETATM    1  C   UNL     1      43.446 -11.741   6.789  1.00  0.00     0.010 A 
HETATM    2  C   UNL     1      44.575 -11.461   7.574  1.00  0.00     0.016 A 
HETATM    3  C   UNL     1      44.688 -10.240   8.254  1.00  0.00     0.018 A 
HETATM    4  C   UNL     1      43.671  -9.286   8.146  1.00  0.00     0.032 A 
HETATM    5  C   UNL     1      42.530  -9.578   7.385  1.00  0.00     0.018 A 
HETATM    6  C   UNL     1      42.415 -10.797   6.711  1.00  0.00     0.016 A 
ENDROOT
BRANCH   4   7
HETATM    7  C   UNL     1      43.727  -7.963   8.836  1.00  0.00     0.256 C 
HETATM    8  N   UNL     1      42.669  -7.688   9.684  1.00  0.00    -0.323 N 
HETATM    9  H   UNL     1      41.965  -8.404   9.797  1.00  0.00     0.169 HD
HETATM   10  O   UNL     1      44.710  -7.260   8.636  1.00  0.00    -0.267 OA
BRANCH   8  11
HETATM   11  C   UNL     1      42.525  -6.561  10.523  1.00  0.00     0.035 A 
HETATM   12  C   UNL     1      42.406  -5.251  10.063  1.00  0.00     0.032 A 
HETATM   13  C   UNL     1      42.329  -4.177  10.962  1.00  0.00     0.032 A 
HETATM   14  C   UNL     1      42.363  -4.394  12.337  1.00  0.00     0.034 A 
HETATM   15  C   UNL     1      42.450  -5.711  12.802  1.00  0.00     0.032 A 
HETATM   16  C   UNL     1      42.530  -6.783  11.904  1.00  0.00     0.032 A 
BRANCH  14  17
HETATM   17  N   UNL     1      42.340  -3.367  13.302  1.00  0.00    -0.328 N 
HETATM   18  C   UNL     1      43.076  -2.196  13.302  1.00  0.00     0.218 C 
HETATM   19  C   UNL     1      42.841  -1.367  14.541  1.00  0.00     0.117 C 
HETATM   20  O   UNL     1      43.834  -1.800  12.425  1.00  0.00    -0.274 OA
HETATM   21  H   UNL     1      41.727  -3.518  14.094  1.00  0.00     0.169 HD
ENDBRANCH  14  17
ENDBRANCH   8  11
ENDBRANCH   4   7
BRANCH   1  22
HETATM   22  C   UNL     1      43.361 -13.059   6.095  1.00  0.00     0.142 A 
HETATM   23  N   UNL     1      43.895 -14.116   6.630  1.00  0.00    -0.222 NA
HETATM   24  C   UNL     1      43.739 -15.265   5.920  1.00  0.00     0.116 A 
HETATM   25  C   UNL     1      43.098 -15.413   4.709  1.00  0.00     0.075 A 
HETATM   26  S   UNL     1      44.350 -16.745   6.491  1.00  0.00    -0.074 SA
HETATM   27  C   UNL     1      43.089 -16.775   4.238  1.00  0.00    -0.027 A 
HETATM   28  C   UNL     1      42.538 -14.216   4.113  1.00  0.00     0.260 A 
HETATM   29  C   UNL     1      43.746 -17.605   5.140  1.00  0.00    -0.012 A 
HETATM   30  C   UNL     1      43.963 -19.080   5.051  1.00  0.00     0.057 C 
HETATM   31  N   UNL     1      42.709 -13.081   4.873  1.00  0.00    -0.307 N 
HETATM   32  O   UNL     1      41.962 -14.176   3.030  1.00  0.00    -0.267 OA
HETATM   33  H   UNL     1      42.353 -12.243   4.441  1.00  0.00     0.170 HD
BRANCH  27  34
HETATM   34  C   UNL     1      42.448 -17.237   2.958  1.00  0.00     0.036 C 
HETATM   35  C   UNL     1      43.318 -16.955   1.742  1.00  0.00     0.010 C 
ENDBRANCH  27  34
ENDBRANCH   1  22
TORSDOF 5
ENDMDL
MODEL 2
REMARK VINA RESULT:      -8.6      2.156      2.696
REMARK  5 active torsions:
REMARK  status: ('A' for Active; 'I' for Inactive)
REMARK    1  A    between atoms: C_2  and  C_3 
REMARK    2  A    between atoms: C_7  and  C_8 
REMARK    3  A    between atoms: C_11  and  C_12 
REMARK       I    between atoms: C_12  and  N_13 
REMARK    4  A    between atoms: N_13  and  C_14 
REMARK    5  A    between atoms: C_17  and  N_18 
REMARK       I    between atoms: N_18  and  C_19 
ROOT
HETATM    1  C   UNL     1      42.946 -11.693   6.472  1.00  0.00     0.010 A 
HETATM    2  C   UNL     1      42.057 -10.607   6.495  1.00  0.00     0.016 A 
HETATM    3  C   UNL     1      42.182  -9.600   7.462  1.00  0.00     0.018 A 
HETATM    4  C   UNL     1      43.199  -9.677   8.419  1.00  0.00     0.032 A 
HETATM    5  C   UNL     1      44.106 -10.746   8.378  1.00  0.00     0.018 A 
HETATM    6  C   UNL     1      43.983 -11.748   7.410  1.00  0.00     0.016 A 
ENDROOT
BRANCH   4   7
HETATM    7  C   UNL     1      43.390  -8.646   9.481  1.00  0.00     0.256 C 
HETATM    8  N   UNL     1      42.480  -8.686  10.522  1.00  0.00    -0.323 N 
HETATM    9  H   UNL     1      41.785  -9.418  10.504  1.00  0.00     0.169 HD
HETATM   10  O   UNL     1      44.348  -7.888   9.371  1.00  0.00    -0.267 OA
BRANCH   8  11
HETATM   11  C   UNL     1      42.492  -7.892  11.691  1.00  0.00     0.035 A 
HETATM   12  C   UNL     1      43.276  -8.158  12.811  1.00  0.00     0.032 A 
HETATM   13  C   UNL     1      43.186  -7.356  13.959  1.00  0.00     0.032 A 
HETATM   14  C   UNL     1      42.316  -6.270  14.004  1.00  0.00     0.034 A 
HETATM   15  C   UNL     1      41.551  -5.981  12.868  1.00  0.00     0.032 A 
HETATM   16  C   UNL     1      41.638  -6.784  11.723  1.00  0.00     0.032 A 
BRANCH  14  17
HETATM   17  N   UNL     1      42.133  -5.448  15.134  1.00  0.00    -0.328 N 
HETATM   18  C   UNL     1      41.371  -5.719  16.256  1.00  0.00     0.218 C 
HETATM   19  C   UNL     1      41.354  -4.567  17.232  1.00  0.00     0.117 C 
HETATM   20  O   UNL     1      40.771  -6.756  16.509  1.00  0.00    -0.274 OA
HETATM   21  H   UNL     1      42.598  -4.549  15.106  1.00  0.00     0.169 HD
ENDBRANCH  14  17
ENDBRANCH   8  11
ENDBRANCH   4   7
BRANCH   1  22
HETATM   22  C   UNL     1      42.783 -12.734   5.415  1.00  0.00     0.142 A 
HETATM   23  N   UNL     1      43.252 -13.932   5.600  1.00  0.00    -0.222 NA
HETATM   24  C   UNL     1      43.030 -14.803   4.580  1.00  0.00     0.116 A 
HETATM   25  C   UNL     1      42.383 -14.543   3.391  1.00  0.00     0.075 A 
HETATM   26  S   UNL     1      43.550 -16.419   4.671  1.00  0.00    -0.074 SA
HETATM   27  C   UNL     1      42.294 -15.698   2.534  1.00  0.00    -0.027 A 
HETATM   28  C   UNL     1      41.897 -13.192   3.191  1.00  0.00     0.260 A 
HETATM   29  C   UNL     1      42.899 -16.796   3.133  1.00  0.00    -0.012 A 
HETATM   30  C   UNL     1      43.028 -18.187   2.602  1.00  0.00     0.057 C 
HETATM   31  N   UNL     1      42.133 -12.350   4.254  1.00  0.00    -0.307 N 
HETATM   32  O   UNL     1      41.326 -12.796   2.180  1.00  0.00    -0.267 OA
HETATM   33  H   UNL     1      41.830 -11.402   4.100  1.00  0.00     0.170 HD
BRANCH  27  34
HETATM   34  C   UNL     1      41.629 -15.716   1.184  1.00  0.00     0.036 C 
HETATM   35  C   UNL     1      40.124 -15.911   1.285  1.00  0.00     0.010 C 
ENDBRANCH  27  34
ENDBRANCH   1  22
TORSDOF 5
ENDMDL
MODEL 3
REMARK VINA RESULT:      -8.5      3.008     12.260
REMARK  5 active torsions:
REMARK  status: ('A' for Active; 'I' for Inactive)
REMARK    1  A    between atoms: C_2  and  C_3 
REMARK    2  A    between atoms: C_7  and  C_8 
REMARK    3  A    between atoms: C_11  and  C_12 
REMARK       I    between atoms: C_12  and  N_13 
REMARK    4  A    between atoms: N_13  and  C_14 
REMARK    5  A    between atoms: C_17  and  N_18 
REMARK       I    between atoms: N_18  and  C_19 
ROOT
HETATM    1  C   UNL     1      43.177  -8.665   9.733  1.00  0.00     0.010 A 
HETATM    2  C   UNL     1      44.301  -9.438  10.059  1.00  0.00     0.016 A 
HETATM    3  C   UNL     1      44.684 -10.518   9.252  1.00  0.00     0.018 A 
HETATM    4  C   UNL     1      43.938 -10.836   8.113  1.00  0.00     0.032 A 
HETATM    5  C   UNL     1      42.832 -10.045   7.771  1.00  0.00     0.018 A 
HETATM    6  C   UNL     1      42.452  -8.964   8.573  1.00  0.00     0.016 A 
ENDROOT
BRANCH   4   7
HETATM    7  C   UNL     1      44.283 -11.975   7.212  1.00  0.00     0.256 C 
HETATM    8  N   UNL     1      43.333 -12.976   7.125  1.00  0.00    -0.323 N 
HETATM    9  H   UNL     1      42.476 -12.850   7.644  1.00  0.00     0.169 HD
HETATM   10  O   UNL     1      45.341 -11.910   6.596  1.00  0.00    -0.267 OA
BRANCH   8  11
HETATM   11  C   UNL     1      43.367 -14.108   6.280  1.00  0.00     0.035 A 
HETATM   12  C   UNL     1      42.712 -14.189   5.053  1.00  0.00     0.032 A 
HETATM   13  C   UNL     1      42.744 -15.372   4.297  1.00  0.00     0.032 A 
HETATM   14  C   UNL     1      43.436 -16.490   4.753  1.00  0.00     0.034 A 
HETATM   15  C   UNL     1      44.122 -16.400   5.970  1.00  0.00     0.032 A 
HETATM   16  C   UNL     1      44.088 -15.221   6.725  1.00  0.00     0.032 A 
BRANCH  14  17
HETATM   17  N   UNL     1      43.475 -17.727   4.078  1.00  0.00    -0.328 N 
HETATM   18  C   UNL     1      43.473 -17.940   2.712  1.00  0.00     0.218 C 
HETATM   19  C   UNL     1      43.447 -19.407   2.357  1.00  0.00     0.117 C 
HETATM   20  O   UNL     1      43.511 -17.089   1.831  1.00  0.00    -0.274 OA
HETATM   21  H   UNL     1      43.484 -18.551   4.667  1.00  0.00     0.169 HD
ENDBRANCH  14  17
ENDBRANCH   8  11
ENDBRANCH   4   7
BRANCH   1  22
HETATM   22  C   UNL     1      42.814  -7.515  10.612  1.00  0.00     0.142 A 
HETATM   23  N   UNL     1      42.428  -7.723  11.836  1.00  0.00    -0.222 NA
HETATM   24  C   UNL     1      42.143  -6.602  12.550  1.00  0.00     0.116 A 
HETATM   25  C   UNL     1      42.207  -5.297  12.110  1.00  0.00     0.075 A 
HETATM   26  S   UNL     1      41.652  -6.693  14.176  1.00  0.00    -0.074 SA
HETATM   27  C   UNL     1      41.862  -4.341  13.131  1.00  0.00    -0.027 A 
HETATM   28  C   UNL     1      42.607  -5.089  10.733  1.00  0.00     0.260 A 
HETATM   29  C   UNL     1      41.542  -4.990  14.318  1.00  0.00    -0.012 A 
HETATM   30  C   UNL     1      41.136  -4.387  15.624  1.00  0.00     0.057 C 
HETATM   31  N   UNL     1      42.899  -6.250  10.053  1.00  0.00    -0.307 N 
HETATM   32  O   UNL     1      42.688  -3.994  10.185  1.00  0.00    -0.267 OA
HETATM   33  H   UNL     1      43.140  -6.108   9.085  1.00  0.00     0.170 HD
BRANCH  27  34
HETATM   34  C   UNL     1      41.861  -2.847  12.944  1.00  0.00     0.036 C 
HETATM   35  C   UNL     1      43.239  -2.238  13.153  1.00  0.00     0.010 C 
ENDBRANCH  27  34
ENDBRANCH   1  22
TORSDOF 5
ENDMDL
MODEL 4
REMARK VINA RESULT:      -8.5      1.869      2.498
REMARK  5 active torsions:
REMARK  status: ('A' for Active; 'I' for Inactive)
REMARK    1  A    between atoms: C_2  and  C_3 
REMARK    2  A    between atoms: C_7  and  C_8 
REMARK    3  A    between atoms: C_11  and  C_12 
REMARK       I    between atoms: C_12  and  N_13 
REMARK    4  A    between atoms: N_13  and  C_14 
REMARK    5  A    between atoms: C_17  and  N_18 
REMARK       I    between atoms: N_18  and  C_19 
ROOT
HETATM    1  C   UNL     1      42.780 -13.492   5.626  1.00  0.00     0.010 A 
HETATM    2  C   UNL     1      43.769 -12.826   6.367  1.00  0.00     0.016 A 
HETATM    3  C   UNL     1      43.537 -11.541   6.877  1.00  0.00     0.018 A 
HETATM    4  C   UNL     1      42.312 -10.910   6.642  1.00  0.00     0.032 A 
HETATM    5  C   UNL     1      41.313 -11.586   5.927  1.00  0.00     0.018 A 
HETATM    6  C   UNL     1      41.543 -12.870   5.423  1.00  0.00     0.016 A 
ENDROOT
BRANCH   4   7
HETATM    7  C   UNL     1      41.998  -9.541   7.148  1.00  0.00     0.256 C 
HETATM    8  N   UNL     1      42.348  -9.297   8.464  1.00  0.00    -0.323 N 
HETATM    9  H   UNL     1      42.813 -10.039   8.967  1.00  0.00     0.169 HD
HETATM   10  O   UNL     1      41.506  -8.742   6.359  1.00  0.00    -0.267 OA
BRANCH   8  11
HETATM   11  C   UNL     1      42.250  -8.068   9.154  1.00  0.00     0.035 A 
HETATM   12  C   UNL     1      43.187  -7.040   9.062  1.00  0.00     0.032 A 
HETATM   13  C   UNL     1      43.050  -5.872   9.828  1.00  0.00     0.032 A 
HETATM   14  C   UNL     1      41.971  -5.708  10.693  1.00  0.00     0.034 A 
HETATM   15  C   UNL     1      41.012  -6.725  10.762  1.00  0.00     0.032 A 
HETATM   16  C   UNL     1      41.150  -7.893  10.001  1.00  0.00     0.032 A 
BRANCH  14  17
HETATM   17  N   UNL     1      41.789  -4.589  11.530  1.00  0.00    -0.328 N 
HETATM   18  C   UNL     1      41.923  -4.537  12.905  1.00  0.00     0.218 C 
HETATM   19  C   UNL     1      41.577  -3.179  13.467  1.00  0.00     0.117 C 
HETATM   20  O   UNL     1      42.296  -5.438  13.646  1.00  0.00    -0.274 OA
HETATM   21  H   UNL     1      41.508  -3.733  11.067  1.00  0.00     0.169 HD
ENDBRANCH  14  17
ENDBRANCH   8  11
ENDBRANCH   4   7
BRANCH   1  22
HETATM   22  C   UNL     1      43.065 -14.865   5.116  1.00  0.00     0.142 A 
HETATM   23  N   UNL     1      43.215 -15.854   5.945  1.00  0.00    -0.222 NA
HETATM   24  C   UNL     1      43.450 -17.061   5.368  1.00  0.00     0.116 A 
HETATM   25  C   UNL     1      43.557 -17.332   4.021  1.00  0.00     0.075 A 
HETATM   26  S   UNL     1      43.640 -18.466   6.307  1.00  0.00    -0.074 SA
HETATM   27  C   UNL     1      43.786 -18.728   3.743  1.00  0.00    -0.027 A 
HETATM   28  C   UNL     1      43.420 -16.210   3.114  1.00  0.00     0.260 A 
HETATM   29  C   UNL     1      43.846 -19.456   4.925  1.00  0.00    -0.012 A 
HETATM   30  C   UNL     1      44.059 -20.924   5.099  1.00  0.00     0.057 C 
HETATM   31  N   UNL     1      43.170 -15.011   3.742  1.00  0.00    -0.307 N 
HETATM   32  O   UNL     1      43.516 -16.281   1.892  1.00  0.00    -0.267 OA
HETATM   33  H   UNL     1      43.113 -14.225   3.114  1.00  0.00     0.170 HD
BRANCH  27  34
HETATM   34  C   UNL     1      43.927 -19.317   2.365  1.00  0.00     0.036 C 
HETATM   35  C   UNL     1      42.688 -20.090   1.939  1.00  0.00     0.010 C 
ENDBRANCH  27  34
ENDBRANCH   1  22
TORSDOF 5
ENDMDL
MODEL 5
REMARK VINA RESULT:      -8.2      4.206     12.041
REMARK  5 active torsions:
REMARK  status: ('A' for Active; 'I' for Inactive)
REMARK    1  A    between atoms: C_2  and  C_3 
REMARK    2  A    between atoms: C_7  and  C_8 
REMARK    3  A    between atoms: C_11  and  C_12 
REMARK       I    between atoms: C_12  and  N_13 
REMARK    4  A    between atoms: N_13  and  C_14 
REMARK    5  A    between atoms: C_17  and  N_18 
REMARK       I    between atoms: N_18  and  C_19 
ROOT
HETATM    1  C   UNL     1      42.540  -9.680   7.657  1.00  0.00     0.010 A 
HETATM    2  C   UNL     1      41.417  -9.465   6.845  1.00  0.00     0.016 A 
HETATM    3  C   UNL     1      41.350 -10.013   5.557  1.00  0.00     0.018 A 
HETATM    4  C   UNL     1      42.415 -10.779   5.070  1.00  0.00     0.032 A 
HETATM    5  C   UNL     1      43.524 -11.019   5.893  1.00  0.00     0.018 A 
HETATM    6  C   UNL     1      43.588 -10.476   7.180  1.00  0.00     0.016 A 
ENDROOT
BRANCH   4   7
HETATM    7  C   UNL     1      42.415 -11.388   3.707  1.00  0.00     0.256 C 
HETATM    8  N   UNL     1      41.191 -11.850   3.260  1.00  0.00    -0.323 N 
HETATM    9  H   UNL     1      40.393 -11.713   3.864  1.00  0.00     0.169 HD
HETATM   10  O   UNL     1      43.473 -11.389   3.086  1.00  0.00    -0.267 OA
BRANCH   8  11
HETATM   11  C   UNL     1      40.898 -12.378   1.982  1.00  0.00     0.035 A 
HETATM   12  C   UNL     1      41.022 -11.664   0.792  1.00  0.00     0.032 A 
HETATM   13  C   UNL     1      40.653 -12.239  -0.434  1.00  0.00     0.032 A 
HETATM   14  C   UNL     1      40.160 -13.540  -0.491  1.00  0.00     0.034 A 
HETATM   15  C   UNL     1      40.065 -14.270   0.699  1.00  0.00     0.032 A 
HETATM   16  C   UNL     1      40.431 -13.695   1.923  1.00  0.00     0.032 A 
BRANCH  14  17
HETATM   17  N   UNL     1      39.723 -14.171  -1.674  1.00  0.00    -0.328 N 
HETATM   18  C   UNL     1      38.508 -14.008  -2.313  1.00  0.00     0.218 C 
HETATM   19  C   UNL     1      38.366 -14.907  -3.518  1.00  0.00     0.117 C 
HETATM   20  O   UNL     1      37.611 -13.231  -2.009  1.00  0.00    -0.274 OA
HETATM   21  H   UNL     1      40.370 -14.832  -2.086  1.00  0.00     0.169 HD
ENDBRANCH  14  17
ENDBRANCH   8  11
ENDBRANCH   4   7
BRANCH   1  22
HETATM   22  C   UNL     1      42.562  -9.090   9.028  1.00  0.00     0.142 A 
HETATM   23  N   UNL     1      42.365  -7.816   9.195  1.00  0.00    -0.222 NA
HETATM   24  C   UNL     1      42.387  -7.392  10.486  1.00  0.00     0.116 A 
HETATM   25  C   UNL     1      42.606  -8.160  11.609  1.00  0.00     0.075 A 
HETATM   26  S   UNL     1      42.118  -5.761  10.884  1.00  0.00    -0.074 SA
HETATM   27  C   UNL     1      42.538  -7.401  12.833  1.00  0.00    -0.027 A 
HETATM   28  C   UNL     1      42.856  -9.572  11.399  1.00  0.00     0.260 A 
HETATM   29  C   UNL     1      42.269  -6.065  12.562  1.00  0.00    -0.012 A 
HETATM   30  C   UNL     1      42.108  -4.938  13.530  1.00  0.00     0.057 C 
HETATM   31  N   UNL     1      42.812  -9.958  10.078  1.00  0.00    -0.307 N 
HETATM   32  O   UNL     1      43.094 -10.382  12.290  1.00  0.00    -0.267 OA
HETATM   33  H   UNL     1      43.023 -10.931   9.929  1.00  0.00     0.170 HD
BRANCH  27  34
HETATM   34  C   UNL     1      42.719  -7.978  14.211  1.00  0.00     0.036 C 
HETATM   35  C   UNL     1      41.402  -8.420  14.830  1.00  0.00     0.010 C 
ENDBRANCH  27  34
ENDBRANCH   1  22
TORSDOF 5
ENDMDL
MODEL 6
REMARK VINA RESULT:      -8.1      3.062      3.589
REMARK  5 active torsions:
REMARK  status: ('A' for Active; 'I' for Inactive)
REMARK    1  A    between atoms: C_2  and  C_3 
REMARK    2  A    between atoms: C_7  and  C_8 
REMARK    3  A    between atoms: C_11  and  C_12 
REMARK       I    between atoms: C_12  and  N_13 
REMARK    4  A    between atoms: N_13  and  C_14 
REMARK    5  A    between atoms: C_17  and  N_18 
REMARK       I    between atoms: N_18  and  C_19 
ROOT
HETATM    1  C   UNL     1      42.497 -13.522   5.492  1.00  0.00     0.010 A 
HETATM    2  C   UNL     1      43.467 -12.741   6.137  1.00  0.00     0.016 A 
HETATM    3  C   UNL     1      43.159 -11.454   6.598  1.00  0.00     0.018 A 
HETATM    4  C   UNL     1      41.873 -10.937   6.410  1.00  0.00     0.032 A 
HETATM    5  C   UNL     1      40.895 -11.729   5.792  1.00  0.00     0.018 A 
HETATM    6  C   UNL     1      41.202 -13.015   5.336  1.00  0.00     0.016 A 
ENDROOT
BRANCH   4   7
HETATM    7  C   UNL     1      41.475  -9.573   6.869  1.00  0.00     0.256 C 
HETATM    8  N   UNL     1      40.173  -9.453   7.323  1.00  0.00    -0.323 N 
HETATM    9  H   UNL     1      39.608 -10.289   7.341  1.00  0.00     0.169 HD
HETATM   10  O   UNL     1      42.331  -8.696   6.851  1.00  0.00    -0.267 OA
BRANCH   8  11
HETATM   11  C   UNL     1      39.577  -8.308   7.896  1.00  0.00     0.035 A 
HETATM   12  C   UNL     1      38.898  -7.331   7.171  1.00  0.00     0.032 A 
HETATM   13  C   UNL     1      38.386  -6.189   7.806  1.00  0.00     0.032 A 
HETATM   14  C   UNL     1      38.538  -6.008   9.178  1.00  0.00     0.034 A 
HETATM   15  C   UNL     1      39.192  -7.002   9.914  1.00  0.00     0.032 A 
HETATM   16  C   UNL     1      39.706  -8.141   9.280  1.00  0.00     0.032 A 
BRANCH  14  17
HETATM   17  N   UNL     1      38.097  -4.868   9.880  1.00  0.00    -0.328 N 
HETATM   18  C   UNL     1      38.837  -3.749  10.217  1.00  0.00     0.218 C 
HETATM   19  C   UNL     1      38.044  -2.760  11.037  1.00  0.00     0.117 C 
HETATM   20  O   UNL     1      39.996  -3.508   9.905  1.00  0.00    -0.274 OA
HETATM   21  H   UNL     1      37.132  -4.885  10.188  1.00  0.00     0.169 HD
ENDBRANCH  14  17
ENDBRANCH   8  11
ENDBRANCH   4   7
BRANCH   1  22
HETATM   22  C   UNL     1      42.866 -14.893   5.030  1.00  0.00     0.142 A 
HETATM   23  N   UNL     1      43.051 -15.847   5.894  1.00  0.00    -0.222 NA
HETATM   24  C   UNL     1      43.363 -17.057   5.360  1.00  0.00     0.116 A 
HETATM   25  C   UNL     1      43.514 -17.362   4.025  1.00  0.00     0.075 A 
HETATM   26  S   UNL     1      43.608 -18.420   6.347  1.00  0.00    -0.074 SA
HETATM   27  C   UNL     1      43.823 -18.751   3.795  1.00  0.00    -0.027 A 
HETATM   28  C   UNL     1      43.336 -16.277   3.080  1.00  0.00     0.260 A 
HETATM   29  C   UNL     1      43.897 -19.438   5.001  1.00  0.00    -0.012 A 
HETATM   30  C   UNL     1      44.184 -20.887   5.226  1.00  0.00     0.057 C 
HETATM   31  N   UNL     1      43.008 -15.075   3.665  1.00  0.00    -0.307 N 
HETATM   32  O   UNL     1      43.462 -16.380   1.863  1.00  0.00    -0.267 OA
HETATM   33  H   UNL     1      42.923 -14.313   3.011  1.00  0.00     0.170 HD
BRANCH  27  34
HETATM   34  C   UNL     1      44.025 -19.373   2.440  1.00  0.00     0.036 C 
HETATM   35  C   UNL     1      42.806 -20.158   1.978  1.00  0.00     0.010 C 
ENDBRANCH  27  34
ENDBRANCH   1  22
TORSDOF 5
ENDMDL
MODEL 7
REMARK VINA RESULT:      -8.0      5.570     13.151
REMARK  5 active torsions:
REMARK  status: ('A' for Active; 'I' for Inactive)
REMARK    1  A    between atoms: C_2  and  C_3 
REMARK    2  A    between atoms: C_7  and  C_8 
REMARK    3  A    between atoms: C_11  and  C_12 
REMARK       I    between atoms: C_12  and  N_13 
REMARK    4  A    between atoms: N_13  and  C_14 
REMARK    5  A    between atoms: C_17  and  N_18 
REMARK       I    between atoms: N_18  and  C_19 
ROOT
HETATM    1  C   UNL     1      41.930  -7.218  15.314  1.00  0.00     0.010 A 
HETATM    2  C   UNL     1      41.895  -8.527  14.809  1.00  0.00     0.016 A 
HETATM    3  C   UNL     1      42.201  -8.784  13.466  1.00  0.00     0.018 A 
HETATM    4  C   UNL     1      42.541  -7.727  12.615  1.00  0.00     0.032 A 
HETATM    5  C   UNL     1      42.606  -6.423  13.127  1.00  0.00     0.018 A 
HETATM    6  C   UNL     1      42.305  -6.168  14.469  1.00  0.00     0.016 A 
ENDROOT
BRANCH   4   7
HETATM    7  C   UNL     1      42.874  -7.925  11.174  1.00  0.00     0.256 C 
HETATM    8  N   UNL     1      42.734  -9.217  10.701  1.00  0.00    -0.323 N 
HETATM    9  H   UNL     1      42.391  -9.914  11.347  1.00  0.00     0.169 HD
HETATM   10  O   UNL     1      43.194  -6.935  10.524  1.00  0.00    -0.267 OA
BRANCH   8  11
HETATM   11  C   UNL     1      42.890  -9.654   9.366  1.00  0.00     0.035 A 
HETATM   12  C   UNL     1      42.023  -9.324   8.327  1.00  0.00     0.032 A 
HETATM   13  C   UNL     1      42.212  -9.848   7.039  1.00  0.00     0.032 A 
HETATM   14  C   UNL     1      43.275 -10.706   6.767  1.00  0.00     0.034 A 
HETATM   15  C   UNL     1      44.165 -11.013   7.801  1.00  0.00     0.032 A 
HETATM   16  C   UNL     1      43.975 -10.492   9.088  1.00  0.00     0.032 A 
BRANCH  14  17
HETATM   17  N   UNL     1      43.504 -11.311   5.514  1.00  0.00    -0.328 N 
HETATM   18  C   UNL     1      42.770 -12.324   4.924  1.00  0.00     0.218 C 
HETATM   19  C   UNL     1      43.359 -12.770   3.607  1.00  0.00     0.117 C 
HETATM   20  O   UNL     1      41.741 -12.835   5.348  1.00  0.00    -0.274 OA
HETATM   21  H   UNL     1      44.310 -10.976   5.003  1.00  0.00     0.169 HD
ENDBRANCH  14  17
ENDBRANCH   8  11
ENDBRANCH   4   7
BRANCH   1  22
HETATM   22  C   UNL     1      41.610  -6.993  16.755  1.00  0.00     0.142 A 
HETATM   23  N   UNL     1      40.836  -7.821  17.390  1.00  0.00    -0.222 NA
HETATM   24  C   UNL     1      40.630  -7.529  18.701  1.00  0.00     0.116 A 
HETATM   25  C   UNL     1      41.138  -6.458  19.404  1.00  0.00     0.075 A 
HETATM   26  S   UNL     1      39.667  -8.525  19.687  1.00  0.00    -0.074 SA
HETATM   27  C   UNL     1      40.745  -6.455  20.791  1.00  0.00    -0.027 A 
HETATM   28  C   UNL     1      41.972  -5.528  18.669  1.00  0.00     0.260 A 
HETATM   29  C   UNL     1      39.935  -7.550  21.068  1.00  0.00    -0.012 A 
HETATM   30  C   UNL     1      39.315  -7.937  22.372  1.00  0.00     0.057 C 
HETATM   31  N   UNL     1      42.163  -5.871  17.349  1.00  0.00    -0.307 N 
HETATM   32  O   UNL     1      42.477  -4.514  19.142  1.00  0.00    -0.267 OA
HETATM   33  H   UNL     1      42.712  -5.205  16.829  1.00  0.00     0.170 HD
BRANCH  27  34
HETATM   34  C   UNL     1      41.162  -5.419  21.800  1.00  0.00     0.036 C 
HETATM   35  C   UNL     1      42.458  -5.791  22.506  1.00  0.00     0.010 C 
ENDBRANCH  27  34
ENDBRANCH   1  22
TORSDOF 5
ENDMDL
MODEL 8
REMARK VINA RESULT:      -8.0      8.462     12.929
REMARK  5 active torsions:
REMARK  status: ('A' for Active; 'I' for Inactive)
REMARK    1  A    between atoms: C_2  and  C_3 
REMARK    2  A    between atoms: C_7  and  C_8 
REMARK    3  A    between atoms: C_11  and  C_12 
REMARK       I    between atoms: C_12  and  N_13 
REMARK    4  A    between atoms: N_13  and  C_14 
REMARK    5  A    between atoms: C_17  and  N_18 
REMARK       I    between atoms: N_18  and  C_19 
ROOT
HETATM    1  C   UNL     1      40.938 -14.262   0.767  1.00  0.00     0.010 A 
HETATM    2  C   UNL     1      41.151 -12.886   0.592  1.00  0.00     0.016 A 
HETATM    3  C   UNL     1      40.451 -12.173  -0.391  1.00  0.00     0.018 A 
HETATM    4  C   UNL     1      39.534 -12.838  -1.212  1.00  0.00     0.032 A 
HETATM    5  C   UNL     1      39.299 -14.206  -1.017  1.00  0.00     0.018 A 
HETATM    6  C   UNL     1      39.994 -14.916  -0.033  1.00  0.00     0.016 A 
ENDROOT
BRANCH   4   7
HETATM    7  C   UNL     1      38.757 -12.145  -2.282  1.00  0.00     0.256 C 
HETATM    8  N   UNL     1      37.382 -12.270  -2.197  1.00  0.00    -0.323 N 
HETATM    9  H   UNL     1      37.010 -12.785  -1.413  1.00  0.00     0.169 HD
HETATM   10  O   UNL     1      39.386 -11.494  -3.109  1.00  0.00    -0.267 OA
BRANCH   8  11
HETATM   11  C   UNL     1      36.420 -11.641  -3.020  1.00  0.00     0.035 A 
HETATM   12  C   UNL     1      36.405 -10.277  -3.304  1.00  0.00     0.032 A 
HETATM   13  C   UNL     1      35.379  -9.716  -4.081  1.00  0.00     0.032 A 
HETATM   14  C   UNL     1      34.356 -10.510  -4.592  1.00  0.00     0.034 A 
HETATM   15  C   UNL     1      34.387 -11.885  -4.334  1.00  0.00     0.032 A 
HETATM   16  C   UNL     1      35.409 -12.445  -3.556  1.00  0.00     0.032 A 
BRANCH  14  17
HETATM   17  N   UNL     1      33.266 -10.016  -5.337  1.00  0.00    -0.328 N 
HETATM   18  C   UNL     1      33.106 -10.043  -6.711  1.00  0.00     0.218 C 
HETATM   19  C   UNL     1      31.841  -9.351  -7.157  1.00  0.00     0.117 C 
HETATM   20  O   UNL     1      33.850 -10.567  -7.531  1.00  0.00    -0.274 OA
HETATM   21  H   UNL     1      32.530  -9.573  -4.802  1.00  0.00     0.169 HD
ENDBRANCH  14  17
ENDBRANCH   8  11
ENDBRANCH   4   7
BRANCH   1  22
HETATM   22  C   UNL     1      41.695 -14.977   1.836  1.00  0.00     0.142 A 
HETATM   23  N   UNL     1      41.952 -16.246   1.718  1.00  0.00    -0.222 NA
HETATM   24  C   UNL     1      42.664 -16.788   2.741  1.00  0.00     0.116 A 
HETATM   25  C   UNL     1      43.118 -16.143   3.872  1.00  0.00     0.075 A 
HETATM   26  S   UNL     1      43.113 -18.428   2.732  1.00  0.00    -0.074 SA
HETATM   27  C   UNL     1      43.866 -17.006   4.751  1.00  0.00    -0.027 A 
HETATM   28  C   UNL     1      42.791 -14.737   4.000  1.00  0.00     0.260 A 
HETATM   29  C   UNL     1      43.936 -18.292   4.227  1.00  0.00    -0.012 A 
HETATM   30  C   UNL     1      44.617 -19.491   4.802  1.00  0.00     0.057 C 
HETATM   31  N   UNL     1      42.081 -14.229   2.936  1.00  0.00    -0.307 N 
HETATM   32  O   UNL     1      43.098 -14.031   4.956  1.00  0.00    -0.267 OA
HETATM   33  H   UNL     1      41.822 -13.261   3.042  1.00  0.00     0.170 HD
BRANCH  27  34
HETATM   34  C   UNL     1      44.495 -16.574   6.048  1.00  0.00     0.036 C 
HETATM   35  C   UNL     1      43.561 -16.767   7.234  1.00  0.00     0.010 C 
ENDBRANCH  27  34
ENDBRANCH   1  22
TORSDOF 5
ENDMDL
MODEL 9
REMARK VINA RESULT:      -7.9      4.059      5.141
REMARK  5 active torsions:
REMARK  status: ('A' for Active; 'I' for Inactive)
REMARK    1  A    between atoms: C_2  and  C_3 
REMARK    2  A    between atoms: C_7  and  C_8 
REMARK    3  A    between atoms: C_11  and  C_12 
REMARK       I    between atoms: C_12  and  N_13 
REMARK    4  A    between atoms: N_13  and  C_14 
REMARK    5  A    between atoms: C_17  and  N_18 
REMARK       I    between atoms: N_18  and  C_19 
ROOT
HETATM    1  C   UNL     1      42.214 -11.211   4.607  1.00  0.00     0.010 A 
HETATM    2  C   UNL     1      41.376 -10.396   5.382  1.00  0.00     0.016 A 
HETATM    3  C   UNL     1      41.701 -10.094   6.711  1.00  0.00     0.018 A 
HETATM    4  C   UNL     1      42.870 -10.613   7.277  1.00  0.00     0.032 A 
HETATM    5  C   UNL     1      43.724 -11.403   6.493  1.00  0.00     0.018 A 
HETATM    6  C   UNL     1      43.401 -11.700   5.166  1.00  0.00     0.016 A 
ENDROOT
BRANCH   4   7
HETATM    7  C   UNL     1      43.277 -10.338   8.687  1.00  0.00     0.256 C 
HETATM    8  N   UNL     1      42.475  -9.448   9.377  1.00  0.00    -0.323 N 
HETATM    9  H   UNL     1      41.668  -9.080   8.895  1.00  0.00     0.169 HD
HETATM   10  O   UNL     1      44.245 -10.948   9.127  1.00  0.00    -0.267 OA
BRANCH   8  11
HETATM   11  C   UNL     1      42.581  -9.090  10.739  1.00  0.00     0.035 A 
HETATM   12  C   UNL     1      42.388  -9.975  11.799  1.00  0.00     0.032 A 
HETATM   13  C   UNL     1      42.450  -9.529  13.128  1.00  0.00     0.032 A 
HETATM   14  C   UNL     1      42.712  -8.193  13.421  1.00  0.00     0.034 A 
HETATM   15  C   UNL     1      42.939  -7.310  12.359  1.00  0.00     0.032 A 
HETATM   16  C   UNL     1      42.874  -7.754  11.032  1.00  0.00     0.032 A 
BRANCH  14  17
HETATM   17  N   UNL     1      42.743  -7.659  14.725  1.00  0.00    -0.328 N 
HETATM   18  C   UNL     1      41.663  -7.306  15.514  1.00  0.00     0.218 C 
HETATM   19  C   UNL     1      42.085  -6.697  16.829  1.00  0.00     0.117 C 
HETATM   20  O   UNL     1      40.476  -7.459  15.254  1.00  0.00    -0.274 OA
HETATM   21  H   UNL     1      43.663  -7.499  15.115  1.00  0.00     0.169 HD
ENDBRANCH  14  17
ENDBRANCH   8  11
ENDBRANCH   4   7
BRANCH   1  22
HETATM   22  C   UNL     1      41.836 -11.495   3.191  1.00  0.00     0.142 A 
HETATM   23  N   UNL     1      41.324 -12.645   2.869  1.00  0.00    -0.222 NA
HETATM   24  C   UNL     1      40.999 -12.785   1.557  1.00  0.00     0.116 A 
HETATM   25  C   UNL     1      41.168 -11.854   0.554  1.00  0.00     0.075 A 
HETATM   26  S   UNL     1      40.290 -14.216   0.971  1.00  0.00    -0.074 SA
HETATM   27  C   UNL     1      40.693 -12.312  -0.727  1.00  0.00    -0.027 A 
HETATM   28  C   UNL     1      41.771 -10.591   0.929  1.00  0.00     0.260 A 
HETATM   29  C   UNL     1      40.181 -13.600  -0.624  1.00  0.00    -0.012 A 
HETATM   30  C   UNL     1      39.583 -14.448  -1.698  1.00  0.00     0.057 C 
HETATM   31  N   UNL     1      42.071 -10.489   2.268  1.00  0.00    -0.307 N 
HETATM   32  O   UNL     1      42.013  -9.672   0.151  1.00  0.00    -0.267 OA
HETATM   33  H   UNL     1      42.526  -9.626   2.521  1.00  0.00     0.170 HD
BRANCH  27  34
HETATM   34  C   UNL     1      40.733 -11.505  -1.996  1.00  0.00     0.036 C 
HETATM   35  C   UNL     1      39.496 -10.637  -2.167  1.00  0.00     0.010 C 
ENDBRANCH  27  34
ENDBRANCH   1  22
TORSDOF 5
ENDMDL
MODEL 10
REMARK VINA RESULT:      -7.9     21.199     23.254
REMARK  5 active torsions:
REMARK  status: ('A' for Active; 'I' for Inactive)
REMARK    1  A    between atoms: C_2  and  C_3 
REMARK    2  A    between atoms: C_7  and  C_8 
REMARK    3  A    between atoms: C_11  and  C_12 
REMARK       I    between atoms: C_12  and  N_13 
REMARK    4  A    between atoms: N_13  and  C_14 
REMARK    5  A    between atoms: C_17  and  N_18 
REMARK       I    between atoms: N_18  and  C_19 
ROOT
HETATM    1  C   UNL     1      49.199 -30.845   3.961  1.00  0.00     0.010 A 
HETATM    2  C   UNL     1      48.872 -31.800   4.936  1.00  0.00     0.016 A 
HETATM    3  C   UNL     1      49.837 -32.252   5.847  1.00  0.00     0.018 A 
HETATM    4  C   UNL     1      51.142 -31.754   5.783  1.00  0.00     0.032 A 
HETATM    5  C   UNL     1      51.461 -30.778   4.828  1.00  0.00     0.018 A 
HETATM    6  C   UNL     1      50.498 -30.323   3.923  1.00  0.00     0.016 A 
ENDROOT
BRANCH   4   7
HETATM    7  C   UNL     1      52.222 -32.193   6.715  1.00  0.00     0.256 C 
HETATM    8  N   UNL     1      53.195 -31.249   6.988  1.00  0.00    -0.323 N 
HETATM    9  H   UNL     1      53.089 -30.337   6.568  1.00  0.00     0.169 HD
HETATM   10  O   UNL     1      52.135 -33.319   7.193  1.00  0.00    -0.267 OA
BRANCH   8  11
HETATM   11  C   UNL     1      54.265 -31.374   7.902  1.00  0.00     0.035 A 
HETATM   12  C   UNL     1      55.467 -32.019   7.619  1.00  0.00     0.032 A 
HETATM   13  C   UNL     1      56.460 -32.155   8.602  1.00  0.00     0.032 A 
HETATM   14  C   UNL     1      56.270 -31.642   9.882  1.00  0.00     0.034 A 
HETATM   15  C   UNL     1      55.078 -30.965  10.159  1.00  0.00     0.032 A 
HETATM   16  C   UNL     1      54.085 -30.832   9.179  1.00  0.00     0.032 A 
BRANCH  14  17
HETATM   17  N   UNL     1      57.196 -31.780  10.936  1.00  0.00    -0.328 N 
HETATM   18  C   UNL     1      58.381 -31.089  11.109  1.00  0.00     0.218 C 
HETATM   19  C   UNL     1      59.151 -31.559  12.321  1.00  0.00     0.117 C 
HETATM   20  O   UNL     1      58.813 -30.175  10.417  1.00  0.00    -0.274 OA
HETATM   21  H   UNL     1      56.973 -32.481  11.631  1.00  0.00     0.169 HD
ENDBRANCH  14  17
ENDBRANCH   8  11
ENDBRANCH   4   7
BRANCH   1  22
HETATM   22  C   UNL     1      48.137 -30.381   3.021  1.00  0.00     0.142 A 
HETATM   23  N   UNL     1      46.883 -30.581   3.301  1.00  0.00    -0.222 NA
HETATM   24  C   UNL     1      46.003 -30.099   2.385  1.00  0.00     0.116 A 
HETATM   25  C   UNL     1      46.302 -29.448   1.207  1.00  0.00     0.075 A 
HETATM   26  S   UNL     1      44.324 -30.248   2.610  1.00  0.00    -0.074 SA
HETATM   27  C   UNL     1      45.130 -29.044   0.473  1.00  0.00    -0.027 A 
HETATM   28  C   UNL     1      47.706 -29.266   0.897  1.00  0.00     0.260 A 
HETATM   29  C   UNL     1      43.977 -29.425   1.149  1.00  0.00    -0.012 A 
HETATM   30  C   UNL     1      42.554 -29.202   0.753  1.00  0.00     0.057 C 
HETATM   31  N   UNL     1      48.560 -29.757   1.860  1.00  0.00    -0.307 N 
HETATM   32  O   UNL     1      48.135 -28.731  -0.121  1.00  0.00    -0.267 OA
HETATM   33  H   UNL     1      49.535 -29.664   1.626  1.00  0.00     0.170 HD
BRANCH  27  34
HETATM   34  C   UNL     1      45.150 -28.301  -0.836  1.00  0.00     0.036 C 
HETATM   35  C   UNL     1      45.061 -29.238  -2.032  1.00  0.00     0.010 C 
ENDBRANCH  27  34
ENDBRANCH   1  22
TORSDOF 5
ENDMDL
