MODEL 1
REMARK VINA RESULT:      -8.9      0.000      0.000
REMARK  2 active torsions:
REMARK  status: ('A' for Active; 'I' for Inactive)
REMARK    1  A    between atoms: C_2  and  C_3 
REMARK    2  A    between atoms: C_7  and  C_8 
REMARK       I    between atoms: C_8  and  N_9 
ROOT
HETATM    1  C   UNL     1      40.537 -14.292   0.401  1.00  0.00     0.271 C 
HETATM    2  N   UNL     1      41.313 -14.856   1.422  1.00  0.00    -0.347 N 
HETATM    3  C   UNL     1      42.756 -14.658   1.520  1.00  0.00     0.128 C 
HETATM    4  C   UNL     1      43.198 -14.680   2.976  1.00  0.00     0.055 C 
HETATM    5  C   UNL     1      42.777 -15.986   3.682  1.00  0.00     0.100 C 
HETATM    6  N   UNL     1      43.572 -17.113   3.105  1.00  0.00    -0.273 NA
HETATM    7  C   UNL     1      43.587 -18.279   3.911  1.00  0.00     0.036 A 
HETATM    8  C   UNL     1      43.427 -18.222   5.306  1.00  0.00     0.056 A 
HETATM    9  N   UNL     1      43.178 -16.992   5.923  1.00  0.00    -0.324 N 
HETATM   10  C   UNL     1      43.009 -15.831   5.212  1.00  0.00     0.245 C 
HETATM   11  O   UNL     1      42.950 -14.754   5.805  1.00  0.00    -0.271 OA
HETATM   12  C   UNL     1      43.949 -19.495   3.325  1.00  0.00     0.026 A 
HETATM   13  C   UNL     1      44.089 -20.643   4.106  1.00  0.00     0.002 A 
HETATM   14  C   UNL     1      43.898 -20.580   5.485  1.00  0.00     0.002 A 
HETATM   15  C   UNL     1      43.574 -19.366   6.091  1.00  0.00     0.031 A 
HETATM   16  C   UNL     1      41.268 -16.239   3.461  1.00  0.00     0.055 C 
HETATM   17  C   UNL     1      40.853 -16.115   1.999  1.00  0.00     0.128 C 
HETATM   18  O   UNL     1      39.585 -14.900  -0.088  1.00  0.00    -0.266 OA
HETATM   19  H   UNL     1      44.552 -16.834   3.010  1.00  0.00     0.129 HD
HETATM   20  H   UNL     1      43.215 -16.907   6.930  1.00  0.00     0.169 HD
ENDROOT
BRANCH   1  21
HETATM   21  C   UNL     1      40.851 -12.960  -0.056  1.00  0.00     0.119 A 
HETATM   22  N   UNL     1      41.024 -12.690  -1.388  1.00  0.00    -0.273 N 
HETATM   23  N   UNL     1      41.334 -11.411  -1.657  1.00  0.00    -0.179 NA
HETATM   24  H   UNL     1      40.951 -13.352  -2.155  1.00  0.00     0.189 HD
HETATM   25  C   UNL     1      41.297 -10.811  -0.462  1.00  0.00     0.060 A 
HETATM   26  C   UNL     1      40.953 -11.728   0.561  1.00  0.00     0.066 A 
BRANCH  25  27
HETATM   27  C   UNL     1      41.581  -9.343  -0.309  1.00  0.00     0.031 C 
HETATM   28  C   UNL     1      40.289  -8.536  -0.179  1.00  0.00     0.016 C 
HETATM   29  C   UNL     1      42.449  -8.786  -1.441  1.00  0.00     0.016 C 
ENDBRANCH  25  27
ENDBRANCH   1  21
TORSDOF 2
ENDMDL
MODEL 2
REMARK VINA RESULT:      -8.5      5.092      8.193
REMARK  2 active torsions:
REMARK  status: ('A' for Active; 'I' for Inactive)
REMARK    1  A    between atoms: C_2  and  C_3 
REMARK    2  A    between atoms: C_7  and  C_8 
REMARK       I    between atoms: C_8  and  N_9 
ROOT
HETATM    1  C   UNL     1      41.795 -13.737   3.731  1.00  0.00     0.271 C 
HETATM    2  N   UNL     1      42.486 -13.053   4.739  1.00  0.00    -0.347 N 
HETATM    3  C   UNL     1      42.904 -13.690   5.984  1.00  0.00     0.128 C 
HETATM    4  C   UNL     1      44.187 -13.056   6.501  1.00  0.00     0.055 C 
HETATM    5  C   UNL     1      44.034 -11.532   6.693  1.00  0.00     0.100 C 
HETATM    6  N   UNL     1      43.094 -11.291   7.831  1.00  0.00    -0.273 NA
HETATM    7  C   UNL     1      43.168  -9.983   8.372  1.00  0.00     0.036 A 
HETATM    8  C   UNL     1      44.343  -9.215   8.304  1.00  0.00     0.056 A 
HETATM    9  N   UNL     1      45.458  -9.716   7.626  1.00  0.00    -0.324 N 
HETATM   10  C   UNL     1      45.436 -10.912   6.954  1.00  0.00     0.245 C 
HETATM   11  O   UNL     1      46.483 -11.382   6.509  1.00  0.00    -0.271 OA
HETATM   12  C   UNL     1      42.104  -9.518   9.149  1.00  0.00     0.026 A 
HETATM   13  C   UNL     1      42.186  -8.283   9.796  1.00  0.00     0.002 A 
HETATM   14  C   UNL     1      43.346  -7.516   9.695  1.00  0.00     0.002 A 
HETATM   15  C   UNL     1      44.432  -7.984   8.955  1.00  0.00     0.031 A 
HETATM   16  C   UNL     1      43.473 -10.894   5.402  1.00  0.00     0.055 C 
HETATM   17  C   UNL     1      42.243 -11.619   4.868  1.00  0.00     0.128 C 
HETATM   18  O   UNL     1      40.915 -13.184   3.071  1.00  0.00    -0.266 OA
HETATM   19  H   UNL     1      43.318 -11.920   8.606  1.00  0.00     0.129 HD
HETATM   20  H   UNL     1      46.353  -9.252   7.699  1.00  0.00     0.169 HD
ENDROOT
BRANCH   1  21
HETATM   21  C   UNL     1      42.154 -15.106   3.448  1.00  0.00     0.119 A 
HETATM   22  N   UNL     1      41.272 -15.957   2.837  1.00  0.00    -0.273 N 
HETATM   23  N   UNL     1      41.740 -17.204   2.660  1.00  0.00    -0.179 NA
HETATM   24  H   UNL     1      40.329 -15.736   2.530  1.00  0.00     0.189 HD
HETATM   25  C   UNL     1      42.996 -17.145   3.114  1.00  0.00     0.060 A 
HETATM   26  C   UNL     1      43.315 -15.844   3.571  1.00  0.00     0.066 A 
BRANCH  25  27
HETATM   27  C   UNL     1      43.899 -18.347   3.092  1.00  0.00     0.031 C 
HETATM   28  C   UNL     1      43.269 -19.504   2.316  1.00  0.00     0.016 C 
HETATM   29  C   UNL     1      44.311 -18.804   4.495  1.00  0.00     0.016 C 
ENDBRANCH  25  27
ENDBRANCH   1  21
TORSDOF 2
ENDMDL
MODEL 3
REMARK VINA RESULT:      -8.5      3.777      4.294
REMARK  2 active torsions:
REMARK  status: ('A' for Active; 'I' for Inactive)
REMARK    1  A    between atoms: C_2  and  C_3 
REMARK    2  A    between atoms: C_7  and  C_8 
REMARK       I    between atoms: C_8  and  N_9 
ROOT
HETATM    1  C   UNL     1      40.542 -12.946   4.542  1.00  0.00     0.271 C 
HETATM    2  N   UNL     1      41.400 -14.027   4.782  1.00  0.00    -0.347 N 
HETATM    3  C   UNL     1      42.853 -13.918   4.697  1.00  0.00     0.128 C 
HETATM    4  C   UNL     1      43.516 -14.880   5.673  1.00  0.00     0.055 C 
HETATM    5  C   UNL     1      43.063 -16.336   5.438  1.00  0.00     0.100 C 
HETATM    6  N   UNL     1      43.620 -16.799   4.129  1.00  0.00    -0.273 NA
HETATM    7  C   UNL     1      43.627 -18.207   3.972  1.00  0.00     0.036 A 
HETATM    8  C   UNL     1      43.700 -19.079   5.072  1.00  0.00     0.056 A 
HETATM    9  N   UNL     1      43.697 -18.556   6.368  1.00  0.00    -0.324 N 
HETATM   10  C   UNL     1      43.553 -17.215   6.623  1.00  0.00     0.245 C 
HETATM   11  O   UNL     1      43.715 -16.790   7.767  1.00  0.00    -0.271 OA
HETATM   12  C   UNL     1      43.747 -18.737   2.685  1.00  0.00     0.026 A 
HETATM   13  C   UNL     1      43.875 -20.115   2.495  1.00  0.00     0.002 A 
HETATM   14  C   UNL     1      43.915 -20.972   3.594  1.00  0.00     0.002 A 
HETATM   15  C   UNL     1      43.835 -20.455   4.887  1.00  0.00     0.031 A 
HETATM   16  C   UNL     1      41.520 -16.408   5.409  1.00  0.00     0.055 C 
HETATM   17  C   UNL     1      40.894 -15.365   4.489  1.00  0.00     0.128 C 
HETATM   18  O   UNL     1      39.460 -13.103   3.977  1.00  0.00    -0.266 OA
HETATM   19  H   UNL     1      44.597 -16.509   4.045  1.00  0.00     0.129 HD
HETATM   20  H   UNL     1      43.904 -19.149   7.161  1.00  0.00     0.169 HD
ENDROOT
BRANCH   1  21
HETATM   21  C   UNL     1      40.932 -11.634   5.000  1.00  0.00     0.119 A 
HETATM   22  N   UNL     1      41.359 -10.675   4.121  1.00  0.00    -0.273 N 
HETATM   23  N   UNL     1      41.709  -9.513   4.697  1.00  0.00    -0.179 NA
HETATM   24  H   UNL     1      41.440 -10.770   3.112  1.00  0.00     0.189 HD
HETATM   25  C   UNL     1      41.438  -9.701   5.993  1.00  0.00     0.060 A 
HETATM   26  C   UNL     1      40.906 -10.993   6.223  1.00  0.00     0.066 A 
BRANCH  25  27
HETATM   27  C   UNL     1      41.679  -8.623   7.012  1.00  0.00     0.031 C 
HETATM   28  C   UNL     1      41.726  -7.240   6.362  1.00  0.00     0.016 C 
HETATM   29  C   UNL     1      42.941  -8.866   7.845  1.00  0.00     0.016 C 
ENDBRANCH  25  27
ENDBRANCH   1  21
TORSDOF 2
ENDMDL
MODEL 4
REMARK VINA RESULT:      -8.2      4.429      7.750
REMARK  2 active torsions:
REMARK  status: ('A' for Active; 'I' for Inactive)
REMARK    1  A    between atoms: C_2  and  C_3 
REMARK    2  A    between atoms: C_7  and  C_8 
REMARK       I    between atoms: C_8  and  N_9 
ROOT
HETATM    1  C   UNL     1      41.257 -11.417   6.156  1.00  0.00     0.271 C 
HETATM    2  N   UNL     1      41.368 -11.925   4.855  1.00  0.00    -0.347 N 
HETATM    3  C   UNL     1      42.366 -11.450   3.903  1.00  0.00     0.128 C 
HETATM    4  C   UNL     1      42.778 -12.571   2.960  1.00  0.00     0.055 C 
HETATM    5  C   UNL     1      41.564 -13.173   2.223  1.00  0.00     0.100 C 
HETATM    6  N   UNL     1      41.035 -12.151   1.267  1.00  0.00    -0.273 NA
HETATM    7  C   UNL     1      40.196 -12.685   0.258  1.00  0.00     0.036 A 
HETATM    8  C   UNL     1      40.320 -14.011  -0.188  1.00  0.00     0.056 A 
HETATM    9  N   UNL     1      41.248 -14.861   0.420  1.00  0.00    -0.324 N 
HETATM   10  C   UNL     1      42.007 -14.475   1.496  1.00  0.00     0.245 C 
HETATM   11  O   UNL     1      42.917 -15.201   1.894  1.00  0.00    -0.271 OA
HETATM   12  C   UNL     1      39.347 -11.818  -0.436  1.00  0.00     0.026 A 
HETATM   13  C   UNL     1      38.591 -12.280  -1.514  1.00  0.00     0.002 A 
HETATM   14  C   UNL     1      38.699 -13.608  -1.928  1.00  0.00     0.002 A 
HETATM   15  C   UNL     1      39.571 -14.476  -1.270  1.00  0.00     0.031 A 
HETATM   16  C   UNL     1      40.467 -13.557   3.242  1.00  0.00     0.055 C 
HETATM   17  C   UNL     1      40.153 -12.435   4.226  1.00  0.00     0.128 C 
HETATM   18  O   UNL     1      40.160 -11.275   6.695  1.00  0.00    -0.266 OA
HETATM   19  H   UNL     1      41.811 -11.705   0.771  1.00  0.00     0.129 HD
HETATM   20  H   UNL     1      41.460 -15.763   0.015  1.00  0.00     0.169 HD
ENDROOT
BRANCH   1  21
HETATM   21  C   UNL     1      42.462 -11.087   6.879  1.00  0.00     0.119 A 
HETATM   22  N   UNL     1      43.372 -12.053   7.217  1.00  0.00    -0.273 N 
HETATM   23  N   UNL     1      44.431 -11.599   7.907  1.00  0.00    -0.179 NA
HETATM   24  H   UNL     1      43.309 -13.046   7.007  1.00  0.00     0.189 HD
HETATM   25  C   UNL     1      44.235 -10.277   7.965  1.00  0.00     0.060 A 
HETATM   26  C   UNL     1      43.044  -9.906   7.295  1.00  0.00     0.066 A 
BRANCH  25  27
HETATM   27  C   UNL     1      45.211  -9.366   8.656  1.00  0.00     0.031 C 
HETATM   28  C   UNL     1      46.556  -9.335   7.931  1.00  0.00     0.016 C 
HETATM   29  C   UNL     1      45.406  -9.719  10.133  1.00  0.00     0.016 C 
ENDBRANCH  25  27
ENDBRANCH   1  21
TORSDOF 2
ENDMDL
MODEL 5
REMARK VINA RESULT:      -8.1      6.454      8.511
REMARK  2 active torsions:
REMARK  status: ('A' for Active; 'I' for Inactive)
REMARK    1  A    between atoms: C_2  and  C_3 
REMARK    2  A    between atoms: C_7  and  C_8 
REMARK       I    between atoms: C_8  and  N_9 
ROOT
HETATM    1  C   UNL     1      44.907 -10.366   8.451  1.00  0.00     0.271 C 
HETATM    2  N   UNL     1      44.252 -10.903   7.336  1.00  0.00    -0.347 N 
HETATM    3  C   UNL     1      42.818 -11.177   7.317  1.00  0.00     0.128 C 
HETATM    4  C   UNL     1      42.263 -11.008   5.910  1.00  0.00     0.055 C 
HETATM    5  C   UNL     1      43.003 -11.902   4.892  1.00  0.00     0.100 C 
HETATM    6  N   UNL     1      42.665 -13.329   5.184  1.00  0.00    -0.273 NA
HETATM    7  C   UNL     1      42.939 -14.216   4.113  1.00  0.00     0.036 A 
HETATM    8  C   UNL     1      42.933 -13.791   2.774  1.00  0.00     0.056 A 
HETATM    9  N   UNL     1      42.720 -12.441   2.479  1.00  0.00    -0.324 N 
HETATM   10  C   UNL     1      42.583 -11.486   3.454  1.00  0.00     0.245 C 
HETATM   11  O   UNL     1      42.241 -10.344   3.147  1.00  0.00    -0.271 OA
HETATM   12  C   UNL     1      43.039 -15.583   4.384  1.00  0.00     0.026 A 
HETATM   13  C   UNL     1      43.191 -16.502   3.344  1.00  0.00     0.002 A 
HETATM   14  C   UNL     1      43.215 -16.064   2.020  1.00  0.00     0.002 A 
HETATM   15  C   UNL     1      43.078 -14.706   1.731  1.00  0.00     0.031 A 
HETATM   16  C   UNL     1      44.529 -11.686   5.015  1.00  0.00     0.055 C 
HETATM   17  C   UNL     1      45.026 -11.772   6.454  1.00  0.00     0.128 C 
HETATM   18  O   UNL     1      46.046 -10.721   8.755  1.00  0.00    -0.266 OA
HETATM   19  H   UNL     1      41.662 -13.419   5.364  1.00  0.00     0.129 HD
HETATM   20  H   UNL     1      42.558 -12.144   1.526  1.00  0.00     0.169 HD
ENDROOT
BRANCH   1  21
HETATM   21  C   UNL     1      44.236  -9.354   9.232  1.00  0.00     0.119 A 
HETATM   22  N   UNL     1      44.025  -8.097   8.731  1.00  0.00    -0.273 N 
HETATM   23  N   UNL     1      43.409  -7.259   9.581  1.00  0.00    -0.179 NA
HETATM   24  H   UNL     1      44.295  -7.757   7.812  1.00  0.00     0.189 HD
HETATM   25  C   UNL     1      43.151  -8.018  10.652  1.00  0.00     0.060 A 
HETATM   26  C   UNL     1      43.606  -9.345  10.461  1.00  0.00     0.066 A 
BRANCH  25  27
HETATM   27  C   UNL     1      42.448  -7.463  11.859  1.00  0.00     0.031 C 
HETATM   28  C   UNL     1      42.236  -5.954  11.738  1.00  0.00     0.016 C 
HETATM   29  C   UNL     1      43.167  -7.800  13.169  1.00  0.00     0.016 C 
ENDBRANCH  25  27
ENDBRANCH   1  21
TORSDOF 2
ENDMDL
MODEL 6
REMARK VINA RESULT:      -8.0      5.145      7.426
REMARK  2 active torsions:
REMARK  status: ('A' for Active; 'I' for Inactive)
REMARK    1  A    between atoms: C_2  and  C_3 
REMARK    2  A    between atoms: C_7  and  C_8 
REMARK       I    between atoms: C_8  and  N_9 
ROOT
HETATM    1  C   UNL     1      44.586 -11.335   7.146  1.00  0.00     0.271 C 
HETATM    2  N   UNL     1      43.853 -12.382   6.571  1.00  0.00    -0.347 N 
HETATM    3  C   UNL     1      43.104 -13.352   7.364  1.00  0.00     0.128 C 
HETATM    4  C   UNL     1      41.882 -13.835   6.597  1.00  0.00     0.055 C 
HETATM    5  C   UNL     1      42.266 -14.431   5.226  1.00  0.00     0.100 C 
HETATM    6  N   UNL     1      43.006 -15.710   5.457  1.00  0.00    -0.273 NA
HETATM    7  C   UNL     1      43.068 -16.553   4.320  1.00  0.00     0.036 A 
HETATM    8  C   UNL     1      42.083 -16.526   3.319  1.00  0.00     0.056 A 
HETATM    9  N   UNL     1      41.041 -15.597   3.400  1.00  0.00    -0.324 N 
HETATM   10  C   UNL     1      40.974 -14.649   4.389  1.00  0.00     0.245 C 
HETATM   11  O   UNL     1      39.961 -13.960   4.508  1.00  0.00    -0.271 OA
HETATM   12  C   UNL     1      44.035 -17.562   4.285  1.00  0.00     0.026 A 
HETATM   13  C   UNL     1      44.056 -18.486   3.239  1.00  0.00     0.002 A 
HETATM   14  C   UNL     1      43.091 -18.429   2.235  1.00  0.00     0.002 A 
HETATM   15  C   UNL     1      42.095 -17.453   2.276  1.00  0.00     0.031 A 
HETATM   16  C   UNL     1      43.162 -13.436   4.454  1.00  0.00     0.055 C 
HETATM   17  C   UNL     1      44.320 -12.906   5.292  1.00  0.00     0.128 C 
HETATM   18  O   UNL     1      45.657 -10.966   6.665  1.00  0.00    -0.266 OA
HETATM   19  H   UNL     1      42.534 -16.259   6.180  1.00  0.00     0.129 HD
HETATM   20  H   UNL     1      40.246 -15.663   2.779  1.00  0.00     0.169 HD
ENDROOT
BRANCH   1  21
HETATM   21  C   UNL     1      44.047 -10.664   8.304  1.00  0.00     0.119 A 
HETATM   22  N   UNL     1      42.812 -10.074   8.271  1.00  0.00    -0.273 N 
HETATM   23  N   UNL     1      42.456  -9.469   9.416  1.00  0.00    -0.179 NA
HETATM   24  H   UNL     1      42.174 -10.047   7.480  1.00  0.00     0.189 HD
HETATM   25  C   UNL     1      43.470  -9.730  10.247  1.00  0.00     0.060 A 
HETATM   26  C   UNL     1      44.464 -10.514   9.613  1.00  0.00     0.066 A 
BRANCH  25  27
HETATM   27  C   UNL     1      43.473  -9.235  11.667  1.00  0.00     0.031 C 
HETATM   28  C   UNL     1      42.689 -10.172  12.586  1.00  0.00     0.016 C 
HETATM   29  C   UNL     1      42.953  -7.800  11.794  1.00  0.00     0.016 C 
ENDBRANCH  25  27
ENDBRANCH   1  21
TORSDOF 2
ENDMDL
MODEL 7
REMARK VINA RESULT:      -8.0      5.898      7.130
REMARK  2 active torsions:
REMARK  status: ('A' for Active; 'I' for Inactive)
REMARK    1  A    between atoms: C_2  and  C_3 
REMARK    2  A    between atoms: C_7  and  C_8 
REMARK       I    between atoms: C_8  and  N_9 
ROOT
HETATM    1  C   UNL     1      41.230  -9.876   6.650  1.00  0.00     0.271 C 
HETATM    2  N   UNL     1      41.792 -11.131   6.386  1.00  0.00    -0.347 N 
HETATM    3  C   UNL     1      43.233 -11.361   6.348  1.00  0.00     0.128 C 
HETATM    4  C   UNL     1      43.558 -12.777   6.800  1.00  0.00     0.055 C 
HETATM    5  C   UNL     1      42.815 -13.832   5.954  1.00  0.00     0.100 C 
HETATM    6  N   UNL     1      43.384 -13.815   4.570  1.00  0.00    -0.273 NA
HETATM    7  C   UNL     1      43.090 -14.975   3.812  1.00  0.00     0.036 A 
HETATM    8  C   UNL     1      42.851 -16.220   4.418  1.00  0.00     0.056 A 
HETATM    9  N   UNL     1      42.832 -16.317   5.813  1.00  0.00    -0.324 N 
HETATM   10  C   UNL     1      42.969 -15.223   6.630  1.00  0.00     0.245 C 
HETATM   11  O   UNL     1      43.104 -15.380   7.843  1.00  0.00    -0.271 OA
HETATM   12  C   UNL     1      43.219 -14.918   2.422  1.00  0.00     0.026 A 
HETATM   13  C   UNL     1      43.052 -16.067   1.647  1.00  0.00     0.002 A 
HETATM   14  C   UNL     1      42.784 -17.291   2.259  1.00  0.00     0.002 A 
HETATM   15  C   UNL     1      42.690 -17.373   3.648  1.00  0.00     0.031 A 
HETATM   16  C   UNL     1      41.307 -13.499   5.906  1.00  0.00     0.055 C 
HETATM   17  C   UNL     1      41.031 -12.045   5.540  1.00  0.00     0.128 C 
HETATM   18  O   UNL     1      40.205  -9.503   6.081  1.00  0.00    -0.266 OA
HETATM   19  H   UNL     1      44.406 -13.770   4.616  1.00  0.00     0.129 HD
HETATM   20  H   UNL     1      42.817 -17.222   6.263  1.00  0.00     0.169 HD
ENDROOT
BRANCH   1  21
HETATM   21  C   UNL     1      41.857  -9.026   7.634  1.00  0.00     0.119 A 
HETATM   22  N   UNL     1      42.483  -7.863   7.270  1.00  0.00    -0.273 N 
HETATM   23  N   UNL     1      43.038  -7.191   8.292  1.00  0.00    -0.179 NA
HETATM   24  H   UNL     1      42.568  -7.489   6.329  1.00  0.00     0.189 HD
HETATM   25  C   UNL     1      42.706  -7.910   9.370  1.00  0.00     0.060 A 
HETATM   26  C   UNL     1      41.927  -9.038   9.013  1.00  0.00     0.066 A 
BRANCH  25  27
HETATM   27  C   UNL     1      43.127  -7.497  10.752  1.00  0.00     0.031 C 
HETATM   28  C   UNL     1      43.471  -8.710  11.617  1.00  0.00     0.016 C 
HETATM   29  C   UNL     1      42.085  -6.618  11.451  1.00  0.00     0.016 C 
ENDBRANCH  25  27
ENDBRANCH   1  21
TORSDOF 2
ENDMDL
MODEL 8
REMARK VINA RESULT:      -7.9      4.156      5.851
REMARK  2 active torsions:
REMARK  status: ('A' for Active; 'I' for Inactive)
REMARK    1  A    between atoms: C_2  and  C_3 
REMARK    2  A    between atoms: C_7  and  C_8 
REMARK       I    between atoms: C_8  and  N_9 
ROOT
HETATM    1  C   UNL     1      41.786 -14.379   1.761  1.00  0.00     0.271 C 
HETATM    2  N   UNL     1      41.980 -13.424   2.766  1.00  0.00    -0.347 N 
HETATM    3  C   UNL     1      42.145 -12.001   2.485  1.00  0.00     0.128 C 
HETATM    4  C   UNL     1      41.591 -11.165   3.630  1.00  0.00     0.055 C 
HETATM    5  C   UNL     1      42.245 -11.535   4.977  1.00  0.00     0.100 C 
HETATM    6  N   UNL     1      43.675 -11.096   4.945  1.00  0.00    -0.273 NA
HETATM    7  C   UNL     1      44.278 -11.005   6.223  1.00  0.00     0.036 A 
HETATM    8  C   UNL     1      43.529 -10.746   7.384  1.00  0.00     0.056 A 
HETATM    9  N   UNL     1      42.138 -10.642   7.299  1.00  0.00    -0.324 N 
HETATM   10  C   UNL     1      41.453 -10.853   6.129  1.00  0.00     0.245 C 
HETATM   11  O   UNL     1      40.250 -10.596   6.069  1.00  0.00    -0.271 OA
HETATM   12  C   UNL     1      45.673 -10.991   6.307  1.00  0.00     0.026 A 
HETATM   13  C   UNL     1      46.308 -10.786   7.533  1.00  0.00     0.002 A 
HETATM   14  C   UNL     1      45.552 -10.561   8.683  1.00  0.00     0.002 A 
HETATM   15  C   UNL     1      44.159 -10.533   8.610  1.00  0.00     0.031 A 
HETATM   16  C   UNL     1      42.168 -13.063   5.197  1.00  0.00     0.055 C 
HETATM   17  C   UNL     1      42.647 -13.861   3.990  1.00  0.00     0.128 C 
HETATM   18  O   UNL     1      42.280 -15.504   1.844  1.00  0.00    -0.266 OA
HETATM   19  H   UNL     1      43.741 -10.157   4.543  1.00  0.00     0.129 HD
HETATM   20  H   UNL     1      41.600 -10.306   8.085  1.00  0.00     0.169 HD
ENDROOT
BRANCH   1  21
HETATM   21  C   UNL     1      40.963 -14.037   0.626  1.00  0.00     0.119 A 
HETATM   22  N   UNL     1      41.344 -13.062  -0.258  1.00  0.00    -0.273 N 
HETATM   23  N   UNL     1      40.465 -12.840  -1.249  1.00  0.00    -0.179 NA
HETATM   24  H   UNL     1      42.196 -12.509  -0.220  1.00  0.00     0.189 HD
HETATM   25  C   UNL     1      39.506 -13.748  -1.040  1.00  0.00     0.060 A 
HETATM   26  C   UNL     1      39.797 -14.549   0.091  1.00  0.00     0.066 A 
BRANCH  25  27
HETATM   27  C   UNL     1      38.311 -13.854  -1.945  1.00  0.00     0.031 C 
HETATM   28  C   UNL     1      38.538 -14.884  -3.051  1.00  0.00     0.016 C 
HETATM   29  C   UNL     1      37.902 -12.505  -2.545  1.00  0.00     0.016 C 
ENDBRANCH  25  27
ENDBRANCH   1  21
TORSDOF 2
ENDMDL
MODEL 9
REMARK VINA RESULT:      -7.9      2.552      3.627
REMARK  2 active torsions:
REMARK  status: ('A' for Active; 'I' for Inactive)
REMARK    1  A    between atoms: C_2  and  C_3 
REMARK    2  A    between atoms: C_7  and  C_8 
REMARK       I    between atoms: C_8  and  N_9 
ROOT
HETATM    1  C   UNL     1      41.386 -11.838   0.781  1.00  0.00     0.271 C 
HETATM    2  N   UNL     1      41.621 -12.987   1.547  1.00  0.00    -0.347 N 
HETATM    3  C   UNL     1      40.584 -13.973   1.834  1.00  0.00     0.128 C 
HETATM    4  C   UNL     1      41.193 -15.361   1.971  1.00  0.00     0.055 C 
HETATM    5  C   UNL     1      42.295 -15.398   3.051  1.00  0.00     0.100 C 
HETATM    6  N   UNL     1      41.652 -15.214   4.389  1.00  0.00    -0.273 NA
HETATM    7  C   UNL     1      42.462 -15.619   5.478  1.00  0.00     0.036 A 
HETATM    8  C   UNL     1      43.448 -16.612   5.344  1.00  0.00     0.056 A 
HETATM    9  N   UNL     1      43.693 -17.176   4.089  1.00  0.00    -0.324 N 
HETATM   10  C   UNL     1      43.056 -16.750   2.951  1.00  0.00     0.245 C 
HETATM   11  O   UNL     1      43.189 -17.382   1.903  1.00  0.00    -0.271 OA
HETATM   12  C   UNL     1      42.151 -15.149   6.756  1.00  0.00     0.026 A 
HETATM   13  C   UNL     1      42.850 -15.614   7.872  1.00  0.00     0.002 A 
HETATM   14  C   UNL     1      43.848 -16.576   7.721  1.00  0.00     0.002 A 
HETATM   15  C   UNL     1      44.144 -17.084   6.456  1.00  0.00     0.031 A 
HETATM   16  C   UNL     1      43.316 -14.266   2.798  1.00  0.00     0.055 C 
HETATM   17  C   UNL     1      42.657 -12.910   2.573  1.00  0.00     0.128 C 
HETATM   18  O   UNL     1      41.929 -10.767   1.051  1.00  0.00    -0.266 OA
HETATM   19  H   UNL     1      40.806 -15.787   4.449  1.00  0.00     0.129 HD
HETATM   20  H   UNL     1      44.283 -17.993   4.000  1.00  0.00     0.169 HD
ENDROOT
BRANCH   1  21
HETATM   21  C   UNL     1      40.514 -11.934  -0.365  1.00  0.00     0.119 A 
HETATM   22  N   UNL     1      40.939 -12.511  -1.533  1.00  0.00    -0.273 N 
HETATM   23  N   UNL     1      40.024 -12.507  -2.517  1.00  0.00    -0.179 NA
HETATM   24  H   UNL     1      41.854 -12.915  -1.711  1.00  0.00     0.189 HD
HETATM   25  C   UNL     1      38.942 -11.964  -1.949  1.00  0.00     0.060 A 
HETATM   26  C   UNL     1      39.185 -11.636  -0.593  1.00  0.00     0.066 A 
BRANCH  25  27
HETATM   27  C   UNL     1      37.661 -11.778  -2.714  1.00  0.00     0.031 C 
HETATM   28  C   UNL     1      36.788 -10.692  -2.085  1.00  0.00     0.016 C 
HETATM   29  C   UNL     1      36.869 -13.080  -2.868  1.00  0.00     0.016 C 
ENDBRANCH  25  27
ENDBRANCH   1  21
TORSDOF 2
ENDMDL
MODEL 10
REMARK VINA RESULT:      -7.9      4.499      5.789
REMARK  2 active torsions:
REMARK  status: ('A' for Active; 'I' for Inactive)
REMARK    1  A    between atoms: C_2  and  C_3 
REMARK    2  A    between atoms: C_7  and  C_8 
REMARK       I    between atoms: C_8  and  N_9 
ROOT
HETATM    1  C   UNL     1      42.758 -11.118   5.987  1.00  0.00     0.271 C 
HETATM    2  N   UNL     1      42.389 -12.347   5.425  1.00  0.00    -0.347 N 
HETATM    3  C   UNL     1      41.374 -13.214   6.014  1.00  0.00     0.128 C 
HETATM    4  C   UNL     1      40.651 -14.000   4.930  1.00  0.00     0.055 C 
HETATM    5  C   UNL     1      41.633 -14.819   4.066  1.00  0.00     0.100 C 
HETATM    6  N   UNL     1      42.203 -15.915   4.909  1.00  0.00    -0.273 NA
HETATM    7  C   UNL     1      42.796 -16.965   4.164  1.00  0.00     0.036 A 
HETATM    8  C   UNL     1      42.383 -17.276   2.857  1.00  0.00     0.056 A 
HETATM    9  N   UNL     1      41.408 -16.490   2.236  1.00  0.00    -0.324 N 
HETATM   10  C   UNL     1      40.877 -15.371   2.825  1.00  0.00     0.245 C 
HETATM   11  O   UNL     1      39.913 -14.806   2.307  1.00  0.00    -0.271 OA
HETATM   12  C   UNL     1      43.685 -17.827   4.811  1.00  0.00     0.026 A 
HETATM   13  C   UNL     1      44.200 -18.942   4.147  1.00  0.00     0.002 A 
HETATM   14  C   UNL     1      43.807 -19.222   2.839  1.00  0.00     0.002 A 
HETATM   15  C   UNL     1      42.890 -18.393   2.193  1.00  0.00     0.031 A 
HETATM   16  C   UNL     1      42.769 -13.905   3.553  1.00  0.00     0.055 C 
HETATM   17  C   UNL     1      43.402 -13.067   4.659  1.00  0.00     0.128 C 
HETATM   18  O   UNL     1      43.924 -10.726   5.958  1.00  0.00    -0.266 OA
HETATM   19  H   UNL     1      41.459 -16.354   5.457  1.00  0.00     0.129 HD
HETATM   20  H   UNL     1      40.989 -16.787   1.365  1.00  0.00     0.169 HD
ENDROOT
BRANCH   1  21
HETATM   21  C   UNL     1      41.735 -10.290   6.581  1.00  0.00     0.119 A 
HETATM   22  N   UNL     1      41.634 -10.156   7.940  1.00  0.00    -0.273 N 
HETATM   23  N   UNL     1      40.620  -9.372   8.344  1.00  0.00    -0.179 NA
HETATM   24  H   UNL     1      42.230 -10.590   8.639  1.00  0.00     0.189 HD
HETATM   25  C   UNL     1      40.081  -8.928   7.203  1.00  0.00     0.060 A 
HETATM   26  C   UNL     1      40.774  -9.436   6.077  1.00  0.00     0.066 A 
BRANCH  25  27
HETATM   27  C   UNL     1      38.902  -7.996   7.200  1.00  0.00     0.031 C 
HETATM   28  C   UNL     1      38.538  -7.560   5.781  1.00  0.00     0.016 C 
HETATM   29  C   UNL     1      39.112  -6.773   8.099  1.00  0.00     0.016 C 
ENDBRANCH  25  27
ENDBRANCH   1  21
TORSDOF 2
ENDMDL
