MODEL 1
REMARK VINA RESULT:      -8.6      0.000      0.000
REMARK  6 active torsions:
REMARK  status: ('A' for Active; 'I' for Inactive)
REMARK    1  A    between atoms: C_2  and  N_3 
REMARK    2  A    between atoms: C_2  and  C_12 
REMARK       I    between atoms: N_3  and  C_4 
REMARK    3  A    between atoms: C_4  and  C_5 
REMARK    4  A    between atoms: C_12  and  C_13 
REMARK       I    between atoms: C_13  and  N_14 
REMARK    5  A    between atoms: N_14  and  C_15 
REMARK    6  A    between atoms: C_17  and  C_18 
ROOT
HETATM    1  C   UNL     1      42.992 -13.521   6.409  1.00  0.00     0.224 C 
HETATM    2  N   UNL     1      43.406 -12.221   6.211  1.00  0.00    -0.327 N 
HETATM    3  O   UNL     1      43.198 -14.216   7.399  1.00  0.00    -0.273 OA
HETATM    4  H   UNL     1      43.073 -11.779   5.349  1.00  0.00     0.169 HD
ENDROOT
BRANCH   1   5
HETATM    5  C   UNL     1      42.176 -14.059   5.243  1.00  0.00     0.128 C 
BRANCH   5   6
HETATM    6  C   UNL     1      43.102 -14.722   4.208  1.00  0.00     0.089 C 
HETATM    7  C   UNL     1      42.812 -14.154   2.815  1.00  0.00     0.032 C 
BRANCH   6   8
HETATM    8  N   UNL     1      43.002 -16.187   4.149  1.00  0.00    -0.352 N 
HETATM    9  C   UNL     1      43.904 -17.038   4.755  1.00  0.00     0.252 C 
HETATM   10  O   UNL     1      44.657 -16.702   5.663  1.00  0.00    -0.268 OA
HETATM   11  H   UNL     1      42.416 -16.572   3.420  1.00  0.00     0.163 HD
BRANCH   9  12
HETATM   12  C   UNL     1      43.936 -18.440   4.262  1.00  0.00     0.032 A 
HETATM   13  C   UNL     1      44.073 -19.524   5.138  1.00  0.00     0.017 A 
HETATM   14  C   UNL     1      44.036 -20.829   4.641  1.00  0.00     0.001 A 
HETATM   15  C   UNL     1      43.856 -21.052   3.276  1.00  0.00     0.000 A 
HETATM   16  C   UNL     1      43.707 -19.974   2.403  1.00  0.00     0.001 A 
HETATM   17  C   UNL     1      43.740 -18.669   2.896  1.00  0.00     0.017 A 
ENDBRANCH   9  12
ENDBRANCH   6   8
ENDBRANCH   5   6
ENDBRANCH   1   5
BRANCH   2  18
HETATM   18  C   UNL     1      44.164 -11.393   7.058  1.00  0.00     0.035 A 
HETATM   19  C   UNL     1      43.632 -10.640   8.109  1.00  0.00     0.042 A 
HETATM   20  C   UNL     1      44.459  -9.828   8.906  1.00  0.00    -0.021 A 
HETATM   21  C   UNL     1      45.835  -9.795   8.639  1.00  0.00     0.012 A 
HETATM   22  C   UNL     1      46.373 -10.542   7.594  1.00  0.00     0.003 A 
HETATM   23  C   UNL     1      45.539 -11.331   6.806  1.00  0.00     0.029 A 
BRANCH  20  24
HETATM   24  C   UNL     1      43.913  -9.016   9.984  1.00  0.00     0.010 A 
HETATM   25  C   UNL     1      43.180  -7.804   9.950  1.00  0.00     0.152 A 
HETATM   26  N   UNL     1      42.857  -7.355  11.167  1.00  0.00    -0.187 NA
HETATM   27  N   UNL     1      43.379  -8.282  11.987  1.00  0.00    -0.289 N 
HETATM   28  H   UNL     1      43.260  -8.160  12.987  1.00  0.00     0.188 HD
HETATM   29  C   UNL     1      44.022  -9.290  11.331  1.00  0.00     0.123 A 
ENDBRANCH  20  24
ENDBRANCH   2  18
TORSDOF 6
ENDMDL
MODEL 2
REMARK VINA RESULT:      -8.4      4.649      8.368
REMARK  6 active torsions:
REMARK  status: ('A' for Active; 'I' for Inactive)
REMARK    1  A    between atoms: C_2  and  N_3 
REMARK    2  A    between atoms: C_2  and  C_12 
REMARK       I    between atoms: N_3  and  C_4 
REMARK    3  A    between atoms: C_4  and  C_5 
REMARK    4  A    between atoms: C_12  and  C_13 
REMARK       I    between atoms: C_13  and  N_14 
REMARK    5  A    between atoms: N_14  and  C_15 
REMARK    6  A    between atoms: C_17  and  C_18 
ROOT
HETATM    1  C   UNL     1      42.418 -12.153   3.080  1.00  0.00     0.224 C 
HETATM    2  N   UNL     1      41.210 -12.783   2.871  1.00  0.00    -0.327 N 
HETATM    3  O   UNL     1      42.819 -11.131   2.532  1.00  0.00    -0.273 OA
HETATM    4  H   UNL     1      41.021 -13.586   3.478  1.00  0.00     0.169 HD
ENDROOT
BRANCH   1   5
HETATM    5  C   UNL     1      43.266 -12.847   4.135  1.00  0.00     0.128 C 
BRANCH   5   6
HETATM    6  C   UNL     1      42.536 -14.092   4.668  1.00  0.00     0.089 C 
HETATM    7  C   UNL     1      42.393 -13.997   6.190  1.00  0.00     0.032 C 
BRANCH   6   8
HETATM    8  N   UNL     1      43.184 -15.369   4.336  1.00  0.00    -0.352 N 
HETATM    9  C   UNL     1      42.857 -16.125   3.229  1.00  0.00     0.252 C 
HETATM   10  O   UNL     1      42.269 -15.682   2.248  1.00  0.00    -0.268 OA
HETATM   11  H   UNL     1      43.685 -15.831   5.083  1.00  0.00     0.163 HD
BRANCH   9  12
HETATM   12  C   UNL     1      43.261 -17.555   3.252  1.00  0.00     0.032 A 
HETATM   13  C   UNL     1      43.883 -18.124   4.371  1.00  0.00     0.017 A 
HETATM   14  C   UNL     1      44.189 -19.487   4.378  1.00  0.00     0.001 A 
HETATM   15  C   UNL     1      43.871 -20.281   3.276  1.00  0.00     0.000 A 
HETATM   16  C   UNL     1      43.241 -19.719   2.166  1.00  0.00     0.001 A 
HETATM   17  C   UNL     1      42.929 -18.359   2.156  1.00  0.00     0.017 A 
ENDBRANCH   9  12
ENDBRANCH   6   8
ENDBRANCH   5   6
ENDBRANCH   1   5
BRANCH   2  18
HETATM   18  C   UNL     1      40.169 -12.436   1.990  1.00  0.00     0.035 A 
HETATM   19  C   UNL     1      40.002 -12.978   0.713  1.00  0.00     0.042 A 
HETATM   20  C   UNL     1      38.938 -12.570  -0.110  1.00  0.00    -0.021 A 
HETATM   21  C   UNL     1      38.032 -11.616   0.376  1.00  0.00     0.012 A 
HETATM   22  C   UNL     1      38.191 -11.072   1.649  1.00  0.00     0.003 A 
HETATM   23  C   UNL     1      39.258 -11.477   2.447  1.00  0.00     0.029 A 
BRANCH  20  24
HETATM   24  C   UNL     1      38.770 -13.104  -1.455  1.00  0.00     0.010 A 
HETATM   25  C   UNL     1      39.675 -13.799  -2.294  1.00  0.00     0.152 A 
HETATM   26  N   UNL     1      39.146 -14.122  -3.478  1.00  0.00    -0.187 NA
HETATM   27  N   UNL     1      37.895 -13.640  -3.400  1.00  0.00    -0.289 N 
HETATM   28  H   UNL     1      37.280 -13.768  -4.196  1.00  0.00     0.188 HD
HETATM   29  C   UNL     1      37.623 -13.021  -2.216  1.00  0.00     0.123 A 
ENDBRANCH  20  24
ENDBRANCH   2  18
TORSDOF 6
ENDMDL
MODEL 3
REMARK VINA RESULT:      -8.3      4.822      8.703
REMARK  6 active torsions:
REMARK  status: ('A' for Active; 'I' for Inactive)
REMARK    1  A    between atoms: C_2  and  N_3 
REMARK    2  A    between atoms: C_2  and  C_12 
REMARK       I    between atoms: N_3  and  C_4 
REMARK    3  A    between atoms: C_4  and  C_5 
REMARK    4  A    between atoms: C_12  and  C_13 
REMARK       I    between atoms: C_13  and  N_14 
REMARK    5  A    between atoms: N_14  and  C_15 
REMARK    6  A    between atoms: C_17  and  C_18 
ROOT
HETATM    1  C   UNL     1      40.513 -14.112   5.551  1.00  0.00     0.224 C 
HETATM    2  N   UNL     1      41.680 -14.359   4.860  1.00  0.00    -0.327 N 
HETATM    3  O   UNL     1      40.040 -14.788   6.460  1.00  0.00    -0.273 OA
HETATM    4  H   UNL     1      41.952 -13.639   4.183  1.00  0.00     0.169 HD
ENDROOT
BRANCH   1   5
HETATM    5  C   UNL     1      39.822 -12.836   5.097  1.00  0.00     0.128 C 
BRANCH   5   6
HETATM    6  C   UNL     1      40.454 -12.325   3.791  1.00  0.00     0.089 C 
HETATM    7  C   UNL     1      40.504 -10.794   3.803  1.00  0.00     0.032 C 
BRANCH   6   8
HETATM    8  N   UNL     1      39.766 -12.763   2.568  1.00  0.00    -0.352 N 
HETATM    9  C   UNL     1      40.367 -13.525   1.586  1.00  0.00     0.252 C 
HETATM   10  O   UNL     1      41.380 -14.194   1.764  1.00  0.00    -0.268 OA
HETATM   11  H   UNL     1      38.924 -12.263   2.318  1.00  0.00     0.163 HD
BRANCH   9  12
HETATM   12  C   UNL     1      39.722 -13.522   0.248  1.00  0.00     0.032 A 
HETATM   13  C   UNL     1      39.789 -14.632  -0.603  1.00  0.00     0.017 A 
HETATM   14  C   UNL     1      39.115 -14.612  -1.827  1.00  0.00     0.001 A 
HETATM   15  C   UNL     1      38.372 -13.492  -2.198  1.00  0.00     0.000 A 
HETATM   16  C   UNL     1      38.294 -12.389  -1.347  1.00  0.00     0.001 A 
HETATM   17  C   UNL     1      38.962 -12.406  -0.122  1.00  0.00     0.017 A 
ENDBRANCH   9  12
ENDBRANCH   6   8
ENDBRANCH   5   6
ENDBRANCH   1   5
BRANCH   2  18
HETATM   18  C   UNL     1      42.587 -15.425   5.001  1.00  0.00     0.035 A 
HETATM   19  C   UNL     1      42.611 -16.555   4.179  1.00  0.00     0.042 A 
HETATM   20  C   UNL     1      43.546 -17.584   4.394  1.00  0.00    -0.021 A 
HETATM   21  C   UNL     1      44.468 -17.452   5.443  1.00  0.00     0.012 A 
HETATM   22  C   UNL     1      44.451 -16.328   6.266  1.00  0.00     0.003 A 
HETATM   23  C   UNL     1      43.510 -15.325   6.048  1.00  0.00     0.029 A 
BRANCH  20  24
HETATM   24  C   UNL     1      43.563 -18.780   3.564  1.00  0.00     0.010 A 
HETATM   25  C   UNL     1      43.966 -20.106   3.860  1.00  0.00     0.152 A 
HETATM   26  N   UNL     1      43.839 -20.934   2.818  1.00  0.00    -0.187 NA
HETATM   27  N   UNL     1      43.348 -20.142   1.851  1.00  0.00    -0.289 N 
HETATM   28  H   UNL     1      43.160 -20.553   0.944  1.00  0.00     0.188 HD
HETATM   29  C   UNL     1      43.169 -18.849   2.245  1.00  0.00     0.123 A 
ENDBRANCH  20  24
ENDBRANCH   2  18
TORSDOF 6
ENDMDL
MODEL 4
REMARK VINA RESULT:      -8.2      6.150     10.570
REMARK  6 active torsions:
REMARK  status: ('A' for Active; 'I' for Inactive)
REMARK    1  A    between atoms: C_2  and  N_3 
REMARK    2  A    between atoms: C_2  and  C_12 
REMARK       I    between atoms: N_3  and  C_4 
REMARK    3  A    between atoms: C_4  and  C_5 
REMARK    4  A    between atoms: C_12  and  C_13 
REMARK       I    between atoms: C_13  and  N_14 
REMARK    5  A    between atoms: N_14  and  C_15 
REMARK    6  A    between atoms: C_17  and  C_18 
ROOT
HETATM    1  C   UNL     1      40.743 -14.706   0.705  1.00  0.00     0.224 C 
HETATM    2  N   UNL     1      42.057 -14.934   1.056  1.00  0.00    -0.327 N 
HETATM    3  O   UNL     1      39.744 -15.081   1.313  1.00  0.00    -0.273 OA
HETATM    4  H   UNL     1      42.756 -14.477   0.464  1.00  0.00     0.169 HD
ENDROOT
BRANCH   1   5
HETATM    5  C   UNL     1      40.611 -13.872  -0.560  1.00  0.00     0.128 C 
BRANCH   5   6
HETATM    6  C   UNL     1      40.394 -12.392  -0.200  1.00  0.00     0.089 C 
HETATM    7  C   UNL     1      38.898 -12.064  -0.235  1.00  0.00     0.032 C 
BRANCH   6   8
HETATM    8  N   UNL     1      41.104 -11.442  -1.069  1.00  0.00    -0.352 N 
HETATM    9  C   UNL     1      41.646 -10.256  -0.618  1.00  0.00     0.252 C 
HETATM   10  O   UNL     1      41.901 -10.024   0.559  1.00  0.00    -0.268 OA
HETATM   11  H   UNL     1      40.949 -11.535  -2.064  1.00  0.00     0.163 HD
BRANCH   9  12
HETATM   12  C   UNL     1      41.934  -9.220  -1.644  1.00  0.00     0.032 A 
HETATM   13  C   UNL     1      41.250  -9.185  -2.865  1.00  0.00     0.017 A 
HETATM   14  C   UNL     1      41.505  -8.158  -3.777  1.00  0.00     0.001 A 
HETATM   15  C   UNL     1      42.435  -7.165  -3.469  1.00  0.00     0.000 A 
HETATM   16  C   UNL     1      43.109  -7.190  -2.248  1.00  0.00     0.001 A 
HETATM   17  C   UNL     1      42.855  -8.213  -1.333  1.00  0.00     0.017 A 
ENDBRANCH   9  12
ENDBRANCH   6   8
ENDBRANCH   5   6
ENDBRANCH   1   5
BRANCH   2  18
HETATM   18  C   UNL     1      42.571 -15.648   2.154  1.00  0.00     0.035 A 
HETATM   19  C   UNL     1      42.878 -17.011   2.135  1.00  0.00     0.042 A 
HETATM   20  C   UNL     1      43.382 -17.653   3.281  1.00  0.00    -0.021 A 
HETATM   21  C   UNL     1      43.585 -16.899   4.446  1.00  0.00     0.012 A 
HETATM   22  C   UNL     1      43.282 -15.539   4.472  1.00  0.00     0.003 A 
HETATM   23  C   UNL     1      42.772 -14.921   3.333  1.00  0.00     0.029 A 
BRANCH  20  24
HETATM   24  C   UNL     1      43.677 -19.079   3.284  1.00  0.00     0.010 A 
HETATM   25  C   UNL     1      43.591 -20.044   2.250  1.00  0.00     0.152 A 
HETATM   26  N   UNL     1      43.946 -21.269   2.650  1.00  0.00    -0.187 NA
HETATM   27  N   UNL     1      44.266 -21.093   3.942  1.00  0.00    -0.289 N 
HETATM   28  H   UNL     1      44.576 -21.898   4.474  1.00  0.00     0.188 HD
HETATM   29  C   UNL     1      44.119 -19.806   4.369  1.00  0.00     0.123 A 
ENDBRANCH  20  24
ENDBRANCH   2  18
TORSDOF 6
ENDMDL
MODEL 5
REMARK VINA RESULT:      -8.2      1.686      2.287
REMARK  6 active torsions:
REMARK  status: ('A' for Active; 'I' for Inactive)
REMARK    1  A    between atoms: C_2  and  N_3 
REMARK    2  A    between atoms: C_2  and  C_12 
REMARK       I    between atoms: N_3  and  C_4 
REMARK    3  A    between atoms: C_4  and  C_5 
REMARK    4  A    between atoms: C_12  and  C_13 
REMARK       I    between atoms: C_13  and  N_14 
REMARK    5  A    between atoms: N_14  and  C_15 
REMARK    6  A    between atoms: C_17  and  C_18 
ROOT
HETATM    1  C   UNL     1      42.343 -11.159   6.327  1.00  0.00     0.224 C 
HETATM    2  N   UNL     1      43.288 -11.574   7.240  1.00  0.00    -0.327 N 
HETATM    3  O   UNL     1      41.876 -10.030   6.212  1.00  0.00    -0.273 OA
HETATM    4  H   UNL     1      43.610 -12.540   7.133  1.00  0.00     0.169 HD
ENDROOT
BRANCH   1   5
HETATM    5  C   UNL     1      41.912 -12.272   5.384  1.00  0.00     0.128 C 
BRANCH   5   6
HETATM    6  C   UNL     1      43.141 -12.895   4.701  1.00  0.00     0.089 C 
HETATM    7  C   UNL     1      43.581 -12.017   3.524  1.00  0.00     0.032 C 
BRANCH   6   8
HETATM    8  N   UNL     1      42.939 -14.267   4.213  1.00  0.00    -0.352 N 
HETATM    9  C   UNL     1      43.161 -15.391   4.983  1.00  0.00     0.252 C 
HETATM   10  O   UNL     1      43.212 -15.381   6.208  1.00  0.00    -0.268 OA
HETATM   11  H   UNL     1      42.900 -14.391   3.210  1.00  0.00     0.163 HD
BRANCH   9  12
HETATM   12  C   UNL     1      43.340 -16.675   4.256  1.00  0.00     0.032 A 
HETATM   13  C   UNL     1      42.789 -16.882   2.985  1.00  0.00     0.017 A 
HETATM   14  C   UNL     1      43.033 -18.080   2.308  1.00  0.00     0.001 A 
HETATM   15  C   UNL     1      43.828 -19.065   2.894  1.00  0.00     0.000 A 
HETATM   16  C   UNL     1      44.388 -18.856   4.155  1.00  0.00     0.001 A 
HETATM   17  C   UNL     1      44.150 -17.659   4.833  1.00  0.00     0.017 A 
ENDBRANCH   9  12
ENDBRANCH   6   8
ENDBRANCH   5   6
ENDBRANCH   1   5
BRANCH   2  18
HETATM   18  C   UNL     1      43.925 -10.836   8.255  1.00  0.00     0.035 A 
HETATM   19  C   UNL     1      43.339 -10.511   9.481  1.00  0.00     0.042 A 
HETATM   20  C   UNL     1      44.042  -9.761  10.440  1.00  0.00    -0.021 A 
HETATM   21  C   UNL     1      45.352  -9.351  10.153  1.00  0.00     0.012 A 
HETATM   22  C   UNL     1      45.944  -9.671   8.933  1.00  0.00     0.003 A 
HETATM   23  C   UNL     1      45.230 -10.404   7.988  1.00  0.00     0.029 A 
BRANCH  20  24
HETATM   24  C   UNL     1      43.433  -9.390  11.710  1.00  0.00     0.010 A 
HETATM   25  C   UNL     1      43.449  -8.165  12.421  1.00  0.00     0.152 A 
HETATM   26  N   UNL     1      42.769  -8.221  13.571  1.00  0.00    -0.187 NA
HETATM   27  N   UNL     1      42.310  -9.482  13.599  1.00  0.00    -0.289 N 
HETATM   28  H   UNL     1      41.750  -9.772  14.392  1.00  0.00     0.188 HD
HETATM   29  C   UNL     1      42.681 -10.221  12.514  1.00  0.00     0.123 A 
ENDBRANCH  20  24
ENDBRANCH   2  18
TORSDOF 6
ENDMDL
MODEL 6
REMARK VINA RESULT:      -8.1      2.567      9.336
REMARK  6 active torsions:
REMARK  status: ('A' for Active; 'I' for Inactive)
REMARK    1  A    between atoms: C_2  and  N_3 
REMARK    2  A    between atoms: C_2  and  C_12 
REMARK       I    between atoms: N_3  and  C_4 
REMARK    3  A    between atoms: C_4  and  C_5 
REMARK    4  A    between atoms: C_12  and  C_13 
REMARK       I    between atoms: C_13  and  N_14 
REMARK    5  A    between atoms: N_14  and  C_15 
REMARK    6  A    between atoms: C_17  and  C_18 
ROOT
HETATM    1  C   UNL     1      42.627 -13.371   3.260  1.00  0.00     0.224 C 
HETATM    2  N   UNL     1      42.307 -14.294   4.233  1.00  0.00    -0.327 N 
HETATM    3  O   UNL     1      43.575 -13.421   2.481  1.00  0.00    -0.273 OA
HETATM    4  H   UNL     1      41.433 -14.117   4.736  1.00  0.00     0.169 HD
ENDROOT
BRANCH   1   5
HETATM    5  C   UNL     1      41.634 -12.221   3.194  1.00  0.00     0.128 C 
BRANCH   5   6
HETATM    6  C   UNL     1      41.375 -11.662   4.604  1.00  0.00     0.089 C 
HETATM    7  C   UNL     1      40.236 -10.638   4.553  1.00  0.00     0.032 C 
BRANCH   6   8
HETATM    8  N   UNL     1      42.544 -11.033   5.236  1.00  0.00    -0.352 N 
HETATM    9  C   UNL     1      43.074 -11.448   6.441  1.00  0.00     0.252 C 
HETATM   10  O   UNL     1      42.868 -12.552   6.934  1.00  0.00    -0.268 OA
HETATM   11  H   UNL     1      42.791 -10.107   4.912  1.00  0.00     0.163 HD
BRANCH   9  12
HETATM   12  C   UNL     1      43.946 -10.480   7.156  1.00  0.00     0.032 A 
HETATM   13  C   UNL     1      43.418  -9.363   7.814  1.00  0.00     0.017 A 
HETATM   14  C   UNL     1      44.265  -8.512   8.528  1.00  0.00     0.001 A 
HETATM   15  C   UNL     1      45.632  -8.777   8.591  1.00  0.00     0.000 A 
HETATM   16  C   UNL     1      46.159  -9.897   7.946  1.00  0.00     0.001 A 
HETATM   17  C   UNL     1      45.316 -10.752   7.235  1.00  0.00     0.017 A 
ENDBRANCH   9  12
ENDBRANCH   6   8
ENDBRANCH   5   6
ENDBRANCH   1   5
BRANCH   2  18
HETATM   18  C   UNL     1      42.976 -15.481   4.583  1.00  0.00     0.035 A 
HETATM   19  C   UNL     1      42.985 -16.641   3.804  1.00  0.00     0.042 A 
HETATM   20  C   UNL     1      43.672 -17.791   4.232  1.00  0.00    -0.021 A 
HETATM   21  C   UNL     1      44.363 -17.753   5.452  1.00  0.00     0.012 A 
HETATM   22  C   UNL     1      44.359 -16.600   6.234  1.00  0.00     0.003 A 
HETATM   23  C   UNL     1      43.663 -15.473   5.802  1.00  0.00     0.029 A 
BRANCH  20  24
HETATM   24  C   UNL     1      43.665 -19.016   3.445  1.00  0.00     0.010 A 
HETATM   25  C   UNL     1      44.047 -20.338   3.786  1.00  0.00     0.152 A 
HETATM   26  N   UNL     1      43.901 -21.200   2.775  1.00  0.00    -0.187 NA
HETATM   27  N   UNL     1      43.421 -20.434   1.782  1.00  0.00    -0.289 N 
HETATM   28  H   UNL     1      43.222 -20.874   0.890  1.00  0.00     0.188 HD
HETATM   29  C   UNL     1      43.265 -19.125   2.130  1.00  0.00     0.123 A 
ENDBRANCH  20  24
ENDBRANCH   2  18
TORSDOF 6
ENDMDL
MODEL 7
REMARK VINA RESULT:      -7.8     16.559     18.886
REMARK  6 active torsions:
REMARK  status: ('A' for Active; 'I' for Inactive)
REMARK    1  A    between atoms: C_2  and  N_3 
REMARK    2  A    between atoms: C_2  and  C_12 
REMARK       I    between atoms: N_3  and  C_4 
REMARK    3  A    between atoms: C_4  and  C_5 
REMARK    4  A    between atoms: C_12  and  C_13 
REMARK       I    between atoms: C_13  and  N_14 
REMARK    5  A    between atoms: N_14  and  C_15 
REMARK    6  A    between atoms: C_17  and  C_18 
ROOT
HETATM    1  C   UNL     1      47.710 -28.377   2.624  1.00  0.00     0.224 C 
HETATM    2  N   UNL     1      46.698 -29.306   2.501  1.00  0.00    -0.327 N 
HETATM    3  O   UNL     1      47.822 -27.326   2.000  1.00  0.00    -0.273 OA
HETATM    4  H   UNL     1      46.736 -30.088   3.162  1.00  0.00     0.169 HD
ENDROOT
BRANCH   1   5
HETATM    5  C   UNL     1      48.731 -28.760   3.683  1.00  0.00     0.128 C 
BRANCH   5   6
HETATM    6  C   UNL     1      49.432 -30.074   3.295  1.00  0.00     0.089 C 
HETATM    7  C   UNL     1      50.517 -30.406   4.324  1.00  0.00     0.032 C 
BRANCH   6   8
HETATM    8  N   UNL     1      50.041 -30.069   1.957  1.00  0.00    -0.352 N 
HETATM    9  C   UNL     1      49.598 -30.858   0.915  1.00  0.00     0.252 C 
HETATM   10  O   UNL     1      48.485 -31.372   0.871  1.00  0.00    -0.268 OA
HETATM   11  H   UNL     1      50.972 -29.681   1.884  1.00  0.00     0.163 HD
BRANCH   9  12
HETATM   12  C   UNL     1      50.545 -31.075  -0.209  1.00  0.00     0.032 A 
HETATM   13  C   UNL     1      50.443 -30.353  -1.406  1.00  0.00     0.017 A 
HETATM   14  C   UNL     1      51.392 -30.541  -2.414  1.00  0.00     0.001 A 
HETATM   15  C   UNL     1      52.442 -31.440  -2.228  1.00  0.00     0.000 A 
HETATM   16  C   UNL     1      52.552 -32.151  -1.033  1.00  0.00     0.001 A 
HETATM   17  C   UNL     1      51.610 -31.964  -0.021  1.00  0.00     0.017 A 
ENDBRANCH   9  12
ENDBRANCH   6   8
ENDBRANCH   5   6
ENDBRANCH   1   5
BRANCH   2  18
HETATM   18  C   UNL     1      45.583 -29.295   1.644  1.00  0.00     0.035 A 
HETATM   19  C   UNL     1      45.657 -29.173   0.254  1.00  0.00     0.042 A 
HETATM   20  C   UNL     1      44.491 -29.162  -0.532  1.00  0.00    -0.021 A 
HETATM   21  C   UNL     1      43.246 -29.289   0.101  1.00  0.00     0.012 A 
HETATM   22  C   UNL     1      43.163 -29.411   1.486  1.00  0.00     0.003 A 
HETATM   23  C   UNL     1      44.327 -29.408   2.252  1.00  0.00     0.029 A 
BRANCH  20  24
HETATM   24  C   UNL     1      44.552 -29.005  -1.979  1.00  0.00     0.010 A 
HETATM   25  C   UNL     1      43.989 -29.786  -3.019  1.00  0.00     0.152 A 
HETATM   26  N   UNL     1      44.279 -29.319  -4.237  1.00  0.00    -0.187 NA
HETATM   27  N   UNL     1      45.026 -28.232  -3.982  1.00  0.00    -0.289 N 
HETATM   28  H   UNL     1      45.372 -27.692  -4.768  1.00  0.00     0.188 HD
HETATM   29  C   UNL     1      45.220 -28.005  -2.652  1.00  0.00     0.123 A 
ENDBRANCH  20  24
ENDBRANCH   2  18
TORSDOF 6
ENDMDL
MODEL 8
REMARK VINA RESULT:      -7.6      2.076     10.089
REMARK  6 active torsions:
REMARK  status: ('A' for Active; 'I' for Inactive)
REMARK    1  A    between atoms: C_2  and  N_3 
REMARK    2  A    between atoms: C_2  and  C_12 
REMARK       I    between atoms: N_3  and  C_4 
REMARK    3  A    between atoms: C_4  and  C_5 
REMARK    4  A    between atoms: C_12  and  C_13 
REMARK       I    between atoms: C_13  and  N_14 
REMARK    5  A    between atoms: N_14  and  C_15 
REMARK    6  A    between atoms: C_17  and  C_18 
ROOT
HETATM    1  C   UNL     1      42.697 -14.081   6.250  1.00  0.00     0.224 C 
HETATM    2  N   UNL     1      43.602 -14.529   5.312  1.00  0.00    -0.327 N 
HETATM    3  O   UNL     1      41.497 -14.334   6.295  1.00  0.00    -0.273 OA
HETATM    4  H   UNL     1      44.578 -14.271   5.483  1.00  0.00     0.169 HD
ENDROOT
BRANCH   1   5
HETATM    5  C   UNL     1      43.343 -13.213   7.320  1.00  0.00     0.128 C 
BRANCH   5   6
HETATM    6  C   UNL     1      43.357 -11.741   6.873  1.00  0.00     0.089 C 
HETATM    7  C   UNL     1      44.630 -11.455   6.070  1.00  0.00     0.032 C 
BRANCH   6   8
HETATM    8  N   UNL     1      43.266 -10.769   7.972  1.00  0.00    -0.352 N 
HETATM    9  C   UNL     1      44.219 -10.648   8.963  1.00  0.00     0.252 C 
HETATM   10  O   UNL     1      45.367 -11.068   8.863  1.00  0.00    -0.268 OA
HETATM   11  H   UNL     1      42.354 -10.372   8.153  1.00  0.00     0.163 HD
BRANCH   9  12
HETATM   12  C   UNL     1      43.801  -9.959  10.212  1.00  0.00     0.032 A 
HETATM   13  C   UNL     1      43.611  -8.572  10.257  1.00  0.00     0.017 A 
HETATM   14  C   UNL     1      43.156  -7.970  11.433  1.00  0.00     0.001 A 
HETATM   15  C   UNL     1      42.886  -8.749  12.558  1.00  0.00     0.000 A 
HETATM   16  C   UNL     1      43.063 -10.132  12.512  1.00  0.00     0.001 A 
HETATM   17  C   UNL     1      43.513 -10.738  11.338  1.00  0.00     0.017 A 
ENDBRANCH   9  12
ENDBRANCH   6   8
ENDBRANCH   5   6
ENDBRANCH   1   5
BRANCH   2  18
HETATM   18  C   UNL     1      43.384 -15.350   4.191  1.00  0.00     0.035 A 
HETATM   19  C   UNL     1      43.561 -16.736   4.181  1.00  0.00     0.042 A 
HETATM   20  C   UNL     1      43.329 -17.484   3.013  1.00  0.00    -0.021 A 
HETATM   21  C   UNL     1      42.903 -16.818   1.855  1.00  0.00     0.012 A 
HETATM   22  C   UNL     1      42.724 -15.437   1.857  1.00  0.00     0.003 A 
HETATM   23  C   UNL     1      42.970 -14.708   3.018  1.00  0.00     0.029 A 
BRANCH  20  24
HETATM   24  C   UNL     1      43.539 -18.925   2.980  1.00  0.00     0.010 A 
HETATM   25  C   UNL     1      43.956 -19.823   3.994  1.00  0.00     0.152 A 
HETATM   26  N   UNL     1      44.039 -21.087   3.569  1.00  0.00    -0.187 NA
HETATM   27  N   UNL     1      43.671 -21.006   2.281  1.00  0.00    -0.289 N 
HETATM   28  H   UNL     1      43.652 -21.858   1.732  1.00  0.00     0.188 HD
HETATM   29  C   UNL     1      43.366 -19.738   1.880  1.00  0.00     0.123 A 
ENDBRANCH  20  24
ENDBRANCH   2  18
TORSDOF 6
ENDMDL
MODEL 9
REMARK VINA RESULT:      -7.6      2.657      9.061
REMARK  6 active torsions:
REMARK  status: ('A' for Active; 'I' for Inactive)
REMARK    1  A    between atoms: C_2  and  N_3 
REMARK    2  A    between atoms: C_2  and  C_12 
REMARK       I    between atoms: N_3  and  C_4 
REMARK    3  A    between atoms: C_4  and  C_5 
REMARK    4  A    between atoms: C_12  and  C_13 
REMARK       I    between atoms: C_13  and  N_14 
REMARK    5  A    between atoms: N_14  and  C_15 
REMARK    6  A    between atoms: C_17  and  C_18 
ROOT
HETATM    1  C   UNL     1      40.499 -11.782   4.003  1.00  0.00     0.224 C 
HETATM    2  N   UNL     1      39.998 -13.065   4.046  1.00  0.00    -0.327 N 
HETATM    3  O   UNL     1      41.425 -11.377   3.305  1.00  0.00    -0.273 OA
HETATM    4  H   UNL     1      39.172 -13.195   4.637  1.00  0.00     0.169 HD
ENDROOT
BRANCH   1   5
HETATM    5  C   UNL     1      39.751 -10.829   4.923  1.00  0.00     0.128 C 
BRANCH   5   6
HETATM    6  C   UNL     1      40.310 -10.923   6.353  1.00  0.00     0.089 C 
HETATM    7  C   UNL     1      39.404 -10.149   7.315  1.00  0.00     0.032 C 
BRANCH   6   8
HETATM    8  N   UNL     1      41.686 -10.430   6.504  1.00  0.00    -0.352 N 
HETATM    9  C   UNL     1      42.766 -11.250   6.761  1.00  0.00     0.252 C 
HETATM   10  O   UNL     1      42.771 -12.459   6.556  1.00  0.00    -0.268 OA
HETATM   11  H   UNL     1      41.796  -9.442   6.695  1.00  0.00     0.163 HD
BRANCH   9  12
HETATM   12  C   UNL     1      43.983 -10.599   7.312  1.00  0.00     0.032 A 
HETATM   13  C   UNL     1      45.262 -11.128   7.094  1.00  0.00     0.017 A 
HETATM   14  C   UNL     1      46.386 -10.452   7.576  1.00  0.00     0.001 A 
HETATM   15  C   UNL     1      46.236  -9.250   8.267  1.00  0.00     0.000 A 
HETATM   16  C   UNL     1      44.965  -8.715   8.475  1.00  0.00     0.001 A 
HETATM   17  C   UNL     1      43.840  -9.385   7.992  1.00  0.00     0.017 A 
ENDBRANCH   9  12
ENDBRANCH   6   8
ENDBRANCH   5   6
ENDBRANCH   1   5
BRANCH   2  18
HETATM   18  C   UNL     1      40.418 -14.206   3.338  1.00  0.00     0.035 A 
HETATM   19  C   UNL     1      41.411 -15.086   3.778  1.00  0.00     0.042 A 
HETATM   20  C   UNL     1      41.780 -16.202   3.005  1.00  0.00    -0.021 A 
HETATM   21  C   UNL     1      41.124 -16.428   1.786  1.00  0.00     0.012 A 
HETATM   22  C   UNL     1      40.133 -15.556   1.341  1.00  0.00     0.003 A 
HETATM   23  C   UNL     1      39.788 -14.448   2.112  1.00  0.00     0.029 A 
BRANCH  20  24
HETATM   24  C   UNL     1      42.834 -17.109   3.436  1.00  0.00     0.010 A 
HETATM   25  C   UNL     1      43.618 -17.123   4.616  1.00  0.00     0.152 A 
HETATM   26  N   UNL     1      44.501 -18.126   4.644  1.00  0.00    -0.187 NA
HETATM   27  N   UNL     1      44.283 -18.763   3.483  1.00  0.00    -0.289 N 
HETATM   28  H   UNL     1      44.844 -19.580   3.271  1.00  0.00     0.188 HD
HETATM   29  C   UNL     1      43.302 -18.194   2.725  1.00  0.00     0.123 A 
ENDBRANCH  20  24
ENDBRANCH   2  18
TORSDOF 6
ENDMDL
MODEL 10
REMARK VINA RESULT:      -7.6      2.716      3.851
REMARK  6 active torsions:
REMARK  status: ('A' for Active; 'I' for Inactive)
REMARK    1  A    between atoms: C_2  and  N_3 
REMARK    2  A    between atoms: C_2  and  C_12 
REMARK       I    between atoms: N_3  and  C_4 
REMARK    3  A    between atoms: C_4  and  C_5 
REMARK    4  A    between atoms: C_12  and  C_13 
REMARK       I    between atoms: C_13  and  N_14 
REMARK    5  A    between atoms: N_14  and  C_15 
REMARK    6  A    between atoms: C_17  and  C_18 
ROOT
HETATM    1  C   UNL     1      40.854 -12.633   3.162  1.00  0.00     0.224 C 
HETATM    2  N   UNL     1      40.495 -12.432   4.478  1.00  0.00    -0.327 N 
HETATM    3  O   UNL     1      41.795 -12.114   2.569  1.00  0.00    -0.273 OA
HETATM    4  H   UNL     1      39.723 -13.013   4.818  1.00  0.00     0.169 HD
ENDROOT
BRANCH   1   5
HETATM    5  C   UNL     1      39.957 -13.640   2.458  1.00  0.00     0.128 C 
BRANCH   5   6
HETATM    6  C   UNL     1      40.810 -14.712   1.757  1.00  0.00     0.089 C 
HETATM    7  C   UNL     1      39.907 -15.632   0.929  1.00  0.00     0.032 C 
BRANCH   6   8
HETATM    8  N   UNL     1      41.618 -15.539   2.663  1.00  0.00    -0.352 N 
HETATM    9  C   UNL     1      42.877 -16.010   2.347  1.00  0.00     0.252 C 
HETATM   10  O   UNL     1      43.584 -15.532   1.467  1.00  0.00    -0.268 OA
HETATM   11  H   UNL     1      41.127 -15.996   3.420  1.00  0.00     0.163 HD
BRANCH   9  12
HETATM   12  C   UNL     1      43.380 -17.160   3.143  1.00  0.00     0.032 A 
HETATM   13  C   UNL     1      43.665 -17.039   4.509  1.00  0.00     0.017 A 
HETATM   14  C   UNL     1      44.076 -18.160   5.235  1.00  0.00     0.001 A 
HETATM   15  C   UNL     1      44.195 -19.397   4.604  1.00  0.00     0.000 A 
HETATM   16  C   UNL     1      43.899 -19.523   3.246  1.00  0.00     0.001 A 
HETATM   17  C   UNL     1      43.485 -18.407   2.518  1.00  0.00     0.017 A 
ENDBRANCH   9  12
ENDBRANCH   6   8
ENDBRANCH   5   6
ENDBRANCH   1   5
BRANCH   2  18
HETATM   18  C   UNL     1      41.084 -11.591   5.439  1.00  0.00     0.035 A 
HETATM   19  C   UNL     1      42.457 -11.521   5.692  1.00  0.00     0.042 A 
HETATM   20  C   UNL     1      42.966 -10.658   6.679  1.00  0.00    -0.021 A 
HETATM   21  C   UNL     1      42.073  -9.854   7.402  1.00  0.00     0.012 A 
HETATM   22  C   UNL     1      40.703  -9.917   7.156  1.00  0.00     0.003 A 
HETATM   23  C   UNL     1      40.213 -10.787   6.183  1.00  0.00     0.029 A 
BRANCH  20  24
HETATM   24  C   UNL     1      44.391 -10.598   6.973  1.00  0.00     0.010 A 
HETATM   25  C   UNL     1      45.104  -9.860   7.951  1.00  0.00     0.152 A 
HETATM   26  N   UNL     1      46.423 -10.068   7.901  1.00  0.00    -0.187 NA
HETATM   27  N   UNL     1      46.561 -10.943   6.892  1.00  0.00    -0.289 N 
HETATM   28  H   UNL     1      47.494 -11.263   6.658  1.00  0.00     0.188 HD
HETATM   29  C   UNL     1      45.380 -11.288   6.305  1.00  0.00     0.123 A 
ENDBRANCH  20  24
ENDBRANCH   2  18
TORSDOF 6
ENDMDL
