MODEL 1
REMARK VINA RESULT:      -9.4      0.000      0.000
REMARK  9 active torsions:
REMARK  status: ('A' for Active; 'I' for Inactive)
REMARK    1  A    between atoms: C_4  and  C_5 
REMARK    2  A    between atoms: N_10  and  C_11 
REMARK    3  A    between atoms: C_11  and  C_12 
REMARK    4  A    between atoms: C_12  and  C_13 
REMARK    5  A    between atoms: C_13  and  C_14 
REMARK    6  A    between atoms: C_14  and  C_15 
REMARK    7  A    between atoms: C_15  and  C_16 
REMARK       I    between atoms: C_16  and  N_17 
REMARK    8  A    between atoms: N_17  and  C_18 
REMARK    9  A    between atoms: C_26  and  C_27 
REMARK       I    between atoms: C_27  and  N_28 
ROOT
HETATM    1  C   UNL     1      41.673 -12.373   4.342  1.00  0.00     0.103 C 
ENDROOT
BRANCH   1   2
HETATM    2  C   UNL     1      42.373 -12.428   5.703  1.00  0.00     0.009 C 
BRANCH   2   3
HETATM    3  C   UNL     1      43.843 -11.997   5.634  1.00  0.00     0.002 C 
BRANCH   3   4
HETATM    4  C   UNL     1      44.462 -11.867   7.025  1.00  0.00     0.020 C 
BRANCH   4   5
HETATM    5  C   UNL     1      44.752 -10.415   7.428  1.00  0.00     0.134 C 
BRANCH   5   6
HETATM    6  N   UNL     1      43.847  -9.986   8.496  1.00  0.00    -0.298 N 
HETATM    7  C   UNL     1      42.683  -9.270   8.304  1.00  0.00     0.148 C 
HETATM    8  S   UNL     1      41.980  -8.852   9.861  1.00  0.00    -0.055 SA
HETATM    9  S   UNL     1      41.975  -8.811   6.865  1.00  0.00    -0.052 SA
HETATM   10  C   UNL     1      43.307  -9.493  10.736  1.00  0.00     0.076 C 
HETATM   11  C   UNL     1      43.594  -9.384  12.041  1.00  0.00     0.036 C 
HETATM   12  C   UNL     1      44.231 -10.200   9.810  1.00  0.00     0.266 C 
HETATM   13  O   UNL     1      45.207 -10.838  10.179  1.00  0.00    -0.266 OA
BRANCH  11  14
HETATM   14  C   UNL     1      42.861  -8.652  13.084  1.00  0.00    -0.035 A 
HETATM   15  C   UNL     1      41.764  -9.274  13.695  1.00  0.00     0.011 A 
HETATM   16  C   UNL     1      41.084  -8.650  14.743  1.00  0.00     0.001 A 
HETATM   17  C   UNL     1      41.496  -7.399  15.195  1.00  0.00     0.000 A 
HETATM   18  C   UNL     1      42.595  -6.777  14.607  1.00  0.00     0.001 A 
HETATM   19  C   UNL     1      43.282  -7.406  13.566  1.00  0.00     0.011 A 
ENDBRANCH  11  14
ENDBRANCH   5   6
ENDBRANCH   4   5
ENDBRANCH   3   4
ENDBRANCH   2   3
ENDBRANCH   1   2
BRANCH   1  20
HETATM   20  C   UNL     1      40.308 -13.033   4.324  1.00  0.00     0.222 C 
HETATM   21  N   UNL     1      40.149 -14.385   4.248  1.00  0.00    -0.320 N 
HETATM   22  H   UNL     1      39.160 -14.639   4.243  1.00  0.00     0.169 HD
HETATM   23  O   UNL     1      39.277 -12.354   4.398  1.00  0.00    -0.273 OA
BRANCH  21  24
HETATM   24  C   UNL     1      41.019 -15.462   4.169  1.00  0.00     0.093 A 
HETATM   25  S   UNL     1      41.742 -16.153   5.534  1.00  0.00    -0.075 SA
HETATM   26  C   UNL     1      42.639 -17.247   4.612  1.00  0.00    -0.008 A 
HETATM   27  C   UNL     1      42.374 -17.150   3.258  1.00  0.00    -0.026 A 
HETATM   28  C   UNL     1      43.602 -18.198   5.253  1.00  0.00     0.047 C 
HETATM   29  C   UNL     1      43.132 -17.993   2.266  1.00  0.00     0.041 C 
HETATM   30  C   UNL     1      41.404 -16.102   2.990  1.00  0.00     0.072 A 
HETATM   31  C   UNL     1      43.879 -19.161   2.933  1.00  0.00     0.005 C 
HETATM   32  C   UNL     1      44.597 -18.727   4.215  1.00  0.00     0.005 C 
BRANCH  30  33
HETATM   33  C   UNL     1      40.874 -15.673   1.694  1.00  0.00     0.252 C 
HETATM   34  N   UNL     1      41.746 -15.051   0.851  1.00  0.00    -0.366 N 
HETATM   35  H   UNL     1      42.740 -15.185   0.966  1.00  0.00     0.159 HD
HETATM   36  H   UNL     1      41.407 -14.916  -0.093  1.00  0.00     0.159 HD
HETATM   37  O   UNL     1      39.731 -15.921   1.321  1.00  0.00    -0.268 OA
ENDBRANCH  30  33
ENDBRANCH  21  24
ENDBRANCH   1  20
TORSDOF 9
ENDMDL
MODEL 2
REMARK VINA RESULT:      -9.1      1.633      2.332
REMARK  9 active torsions:
REMARK  status: ('A' for Active; 'I' for Inactive)
REMARK    1  A    between atoms: C_4  and  C_5 
REMARK    2  A    between atoms: N_10  and  C_11 
REMARK    3  A    between atoms: C_11  and  C_12 
REMARK    4  A    between atoms: C_12  and  C_13 
REMARK    5  A    between atoms: C_13  and  C_14 
REMARK    6  A    between atoms: C_14  and  C_15 
REMARK    7  A    between atoms: C_15  and  C_16 
REMARK       I    between atoms: C_16  and  N_17 
REMARK    8  A    between atoms: N_17  and  C_18 
REMARK    9  A    between atoms: C_26  and  C_27 
REMARK       I    between atoms: C_27  and  N_28 
ROOT
HETATM    1  C   UNL     1      41.157 -12.402   4.810  1.00  0.00     0.103 C 
ENDROOT
BRANCH   1   2
HETATM    2  C   UNL     1      42.644 -12.761   4.738  1.00  0.00     0.009 C 
BRANCH   2   3
HETATM    3  C   UNL     1      43.553 -11.634   5.242  1.00  0.00     0.002 C 
BRANCH   3   4
HETATM    4  C   UNL     1      43.782 -11.721   6.750  1.00  0.00     0.020 C 
BRANCH   4   5
HETATM    5  C   UNL     1      44.348 -10.429   7.354  1.00  0.00     0.134 C 
BRANCH   5   6
HETATM    6  N   UNL     1      43.517  -9.974   8.470  1.00  0.00    -0.298 N 
HETATM    7  C   UNL     1      42.381  -9.201   8.343  1.00  0.00     0.148 C 
HETATM    8  S   UNL     1      41.774  -8.773   9.938  1.00  0.00    -0.055 SA
HETATM    9  S   UNL     1      41.627  -8.688   6.946  1.00  0.00    -0.052 SA
HETATM   10  C   UNL     1      43.110  -9.489  10.740  1.00  0.00     0.076 C 
HETATM   11  C   UNL     1      43.465  -9.413  12.030  1.00  0.00     0.036 C 
HETATM   12  C   UNL     1      43.953 -10.224   9.760  1.00  0.00     0.266 C 
HETATM   13  O   UNL     1      44.914 -10.913  10.074  1.00  0.00    -0.266 OA
BRANCH  11  14
HETATM   14  C   UNL     1      42.819  -8.663  13.116  1.00  0.00    -0.035 A 
HETATM   15  C   UNL     1      41.766  -9.269  13.816  1.00  0.00     0.011 A 
HETATM   16  C   UNL     1      41.172  -8.626  14.905  1.00  0.00     0.001 A 
HETATM   17  C   UNL     1      41.627  -7.374  15.309  1.00  0.00     0.000 A 
HETATM   18  C   UNL     1      42.683  -6.768  14.632  1.00  0.00     0.001 A 
HETATM   19  C   UNL     1      43.284  -7.414  13.550  1.00  0.00     0.011 A 
ENDBRANCH  11  14
ENDBRANCH   5   6
ENDBRANCH   4   5
ENDBRANCH   3   4
ENDBRANCH   2   3
ENDBRANCH   1   2
BRANCH   1  20
HETATM   20  C   UNL     1      40.348 -13.305   5.722  1.00  0.00     0.222 C 
HETATM   21  N   UNL     1      40.486 -14.662   5.718  1.00  0.00    -0.320 N 
HETATM   22  H   UNL     1      39.856 -15.097   6.394  1.00  0.00     0.169 HD
HETATM   23  O   UNL     1      39.538 -12.829   6.526  1.00  0.00    -0.273 OA
BRANCH  21  24
HETATM   24  C   UNL     1      41.269 -15.556   5.004  1.00  0.00     0.093 A 
HETATM   25  S   UNL     1      40.990 -15.912   3.374  1.00  0.00    -0.075 SA
HETATM   26  C   UNL     1      42.231 -17.056   3.322  1.00  0.00    -0.008 A 
HETATM   27  C   UNL     1      42.916 -17.158   4.518  1.00  0.00    -0.026 A 
HETATM   28  C   UNL     1      42.511 -17.845   2.079  1.00  0.00     0.047 C 
HETATM   29  C   UNL     1      44.011 -18.178   4.691  1.00  0.00     0.041 C 
HETATM   30  C   UNL     1      42.359 -16.260   5.516  1.00  0.00     0.072 A 
HETATM   31  C   UNL     1      44.495 -18.758   3.351  1.00  0.00     0.005 C 
HETATM   32  C   UNL     1      43.328 -19.096   2.417  1.00  0.00     0.005 C 
BRANCH  30  33
HETATM   33  C   UNL     1      42.785 -16.079   6.906  1.00  0.00     0.252 C 
HETATM   34  N   UNL     1      43.119 -17.207   7.596  1.00  0.00    -0.366 N 
HETATM   35  H   UNL     1      43.382 -18.044   7.096  1.00  0.00     0.159 HD
HETATM   36  H   UNL     1      43.566 -17.046   8.489  1.00  0.00     0.159 HD
HETATM   37  O   UNL     1      42.927 -14.977   7.426  1.00  0.00    -0.268 OA
ENDBRANCH  30  33
ENDBRANCH  21  24
ENDBRANCH   1  20
TORSDOF 9
ENDMDL
MODEL 3
REMARK VINA RESULT:      -8.9      2.343     10.944
REMARK  9 active torsions:
REMARK  status: ('A' for Active; 'I' for Inactive)
REMARK    1  A    between atoms: C_4  and  C_5 
REMARK    2  A    between atoms: N_10  and  C_11 
REMARK    3  A    between atoms: C_11  and  C_12 
REMARK    4  A    between atoms: C_12  and  C_13 
REMARK    5  A    between atoms: C_13  and  C_14 
REMARK    6  A    between atoms: C_14  and  C_15 
REMARK    7  A    between atoms: C_15  and  C_16 
REMARK       I    between atoms: C_16  and  N_17 
REMARK    8  A    between atoms: N_17  and  C_18 
REMARK    9  A    between atoms: C_26  and  C_27 
REMARK       I    between atoms: C_27  and  N_28 
ROOT
HETATM    1  C   UNL     1      44.227 -10.434   7.493  1.00  0.00     0.103 C 
ENDROOT
BRANCH   1   2
HETATM    2  C   UNL     1      44.757 -11.824   7.131  1.00  0.00     0.009 C 
BRANCH   2   3
HETATM    3  C   UNL     1      43.837 -12.578   6.163  1.00  0.00     0.002 C 
BRANCH   3   4
HETATM    4  C   UNL     1      43.578 -11.778   4.886  1.00  0.00     0.020 C 
BRANCH   4   5
HETATM    5  C   UNL     1      42.248 -12.130   4.208  1.00  0.00     0.134 C 
BRANCH   5   6
HETATM    6  N   UNL     1      42.064 -13.582   4.157  1.00  0.00    -0.298 N 
HETATM    7  C   UNL     1      41.242 -14.303   4.998  1.00  0.00     0.148 C 
HETATM    8  S   UNL     1      41.426 -16.023   4.677  1.00  0.00    -0.055 SA
HETATM    9  S   UNL     1      40.209 -13.732   6.177  1.00  0.00    -0.052 SA
HETATM   10  C   UNL     1      42.692 -15.770   3.548  1.00  0.00     0.076 C 
HETATM   11  C   UNL     1      43.506 -16.666   2.973  1.00  0.00     0.036 C 
HETATM   12  C   UNL     1      42.855 -14.315   3.288  1.00  0.00     0.266 C 
HETATM   13  O   UNL     1      43.617 -13.857   2.448  1.00  0.00    -0.266 OA
BRANCH  11  14
HETATM   14  C   UNL     1      43.560 -18.120   3.177  1.00  0.00    -0.035 A 
HETATM   15  C   UNL     1      43.180 -18.961   2.122  1.00  0.00     0.011 A 
HETATM   16  C   UNL     1      43.287 -20.348   2.242  1.00  0.00     0.001 A 
HETATM   17  C   UNL     1      43.780 -20.911   3.417  1.00  0.00     0.000 A 
HETATM   18  C   UNL     1      44.177 -20.086   4.468  1.00  0.00     0.001 A 
HETATM   19  C   UNL     1      44.079 -18.698   4.343  1.00  0.00     0.011 A 
ENDBRANCH  11  14
ENDBRANCH   5   6
ENDBRANCH   4   5
ENDBRANCH   3   4
ENDBRANCH   2   3
ENDBRANCH   1   2
BRANCH   1  20
HETATM   20  C   UNL     1      45.215  -9.578   8.262  1.00  0.00     0.222 C 
HETATM   21  N   UNL     1      44.905  -8.996   9.455  1.00  0.00    -0.320 N 
HETATM   22  H   UNL     1      45.694  -8.457   9.817  1.00  0.00     0.169 HD
HETATM   23  O   UNL     1      46.361  -9.395   7.833  1.00  0.00    -0.273 OA
BRANCH  21  24
HETATM   24  C   UNL     1      43.775  -8.970  10.258  1.00  0.00     0.093 A 
HETATM   25  S   UNL     1      43.408 -10.204  11.356  1.00  0.00    -0.075 SA
HETATM   26  C   UNL     1      41.950  -9.484  11.811  1.00  0.00    -0.008 A 
HETATM   27  C   UNL     1      41.732  -8.272  11.182  1.00  0.00    -0.026 A 
HETATM   28  C   UNL     1      41.033 -10.140  12.797  1.00  0.00     0.047 C 
HETATM   29  C   UNL     1      40.449  -7.513  11.403  1.00  0.00     0.041 C 
HETATM   30  C   UNL     1      42.818  -7.955  10.271  1.00  0.00     0.072 A 
HETATM   31  C   UNL     1      39.665  -8.022  12.624  1.00  0.00     0.005 C 
HETATM   32  C   UNL     1      39.622  -9.552  12.683  1.00  0.00     0.005 C 
BRANCH  30  33
HETATM   33  C   UNL     1      42.959  -6.779   9.408  1.00  0.00     0.252 C 
HETATM   34  N   UNL     1      42.972  -5.564  10.027  1.00  0.00    -0.366 N 
HETATM   35  H   UNL     1      43.212  -5.499  11.005  1.00  0.00     0.159 HD
HETATM   36  H   UNL     1      43.237  -4.785   9.436  1.00  0.00     0.159 HD
HETATM   37  O   UNL     1      43.144  -6.854   8.198  1.00  0.00    -0.268 OA
ENDBRANCH  30  33
ENDBRANCH  21  24
ENDBRANCH   1  20
TORSDOF 9
ENDMDL
MODEL 4
REMARK VINA RESULT:      -8.7      2.077     11.003
REMARK  9 active torsions:
REMARK  status: ('A' for Active; 'I' for Inactive)
REMARK    1  A    between atoms: C_4  and  C_5 
REMARK    2  A    between atoms: N_10  and  C_11 
REMARK    3  A    between atoms: C_11  and  C_12 
REMARK    4  A    between atoms: C_12  and  C_13 
REMARK    5  A    between atoms: C_13  and  C_14 
REMARK    6  A    between atoms: C_14  and  C_15 
REMARK    7  A    between atoms: C_15  and  C_16 
REMARK       I    between atoms: C_16  and  N_17 
REMARK    8  A    between atoms: N_17  and  C_18 
REMARK    9  A    between atoms: C_26  and  C_27 
REMARK       I    between atoms: C_27  and  N_28 
ROOT
HETATM    1  C   UNL     1      44.411 -10.556   7.291  1.00  0.00     0.103 C 
ENDROOT
BRANCH   1   2
HETATM    2  C   UNL     1      44.934 -11.885   6.740  1.00  0.00     0.009 C 
BRANCH   2   3
HETATM    3  C   UNL     1      43.917 -12.598   5.842  1.00  0.00     0.002 C 
BRANCH   3   4
HETATM    4  C   UNL     1      43.534 -11.748   4.631  1.00  0.00     0.020 C 
BRANCH   4   5
HETATM    5  C   UNL     1      42.181 -12.135   4.021  1.00  0.00     0.134 C 
BRANCH   5   6
HETATM    6  N   UNL     1      42.013 -13.589   4.017  1.00  0.00    -0.298 N 
HETATM    7  C   UNL     1      41.211 -14.292   4.891  1.00  0.00     0.148 C 
HETATM    8  S   UNL     1      41.411 -16.020   4.622  1.00  0.00    -0.055 SA
HETATM    9  S   UNL     1      40.186 -13.697   6.066  1.00  0.00    -0.052 SA
HETATM   10  C   UNL     1      42.659 -15.788   3.469  1.00  0.00     0.076 C 
HETATM   11  C   UNL     1      43.476 -16.692   2.911  1.00  0.00     0.036 C 
HETATM   12  C   UNL     1      42.801 -14.340   3.161  1.00  0.00     0.266 C 
HETATM   13  O   UNL     1      43.546 -13.900   2.297  1.00  0.00    -0.266 OA
BRANCH  11  14
HETATM   14  C   UNL     1      43.550 -18.139   3.160  1.00  0.00    -0.035 A 
HETATM   15  C   UNL     1      43.185 -19.016   2.130  1.00  0.00     0.011 A 
HETATM   16  C   UNL     1      43.311 -20.398   2.293  1.00  0.00     0.001 A 
HETATM   17  C   UNL     1      43.808 -20.917   3.486  1.00  0.00     0.000 A 
HETATM   18  C   UNL     1      44.190 -20.055   4.512  1.00  0.00     0.001 A 
HETATM   19  C   UNL     1      44.073 -18.673   4.345  1.00  0.00     0.011 A 
ENDBRANCH  11  14
ENDBRANCH   5   6
ENDBRANCH   4   5
ENDBRANCH   3   4
ENDBRANCH   2   3
ENDBRANCH   1   2
BRANCH   1  20
HETATM   20  C   UNL     1      45.456  -9.739   8.028  1.00  0.00     0.222 C 
HETATM   21  N   UNL     1      45.155  -8.980   9.120  1.00  0.00    -0.320 N 
HETATM   22  H   UNL     1      45.985  -8.501   9.474  1.00  0.00     0.169 HD
HETATM   23  O   UNL     1      46.639  -9.753   7.666  1.00  0.00    -0.273 OA
BRANCH  21  24
HETATM   24  C   UNL     1      43.994  -8.716   9.829  1.00  0.00     0.093 A 
HETATM   25  S   UNL     1      43.002  -7.387   9.491  1.00  0.00    -0.075 SA
HETATM   26  C   UNL     1      41.951  -7.738  10.766  1.00  0.00    -0.008 A 
HETATM   27  C   UNL     1      42.297  -8.893  11.442  1.00  0.00    -0.026 A 
HETATM   28  C   UNL     1      40.785  -6.852  11.079  1.00  0.00     0.047 C 
HETATM   29  C   UNL     1      41.522  -9.331  12.658  1.00  0.00     0.041 C 
HETATM   30  C   UNL     1      43.499  -9.486  10.882  1.00  0.00     0.072 A 
HETATM   31  C   UNL     1      40.170  -8.609  12.789  1.00  0.00     0.005 C 
HETATM   32  C   UNL     1      40.292  -7.108  12.507  1.00  0.00     0.005 C 
BRANCH  30  33
HETATM   33  C   UNL     1      44.198 -10.696  11.320  1.00  0.00     0.252 C 
HETATM   34  N   UNL     1      43.499 -11.551  12.122  1.00  0.00    -0.366 N 
HETATM   35  H   UNL     1      42.490 -11.525  12.127  1.00  0.00     0.159 HD
HETATM   36  H   UNL     1      43.937 -12.451  12.272  1.00  0.00     0.159 HD
HETATM   37  O   UNL     1      45.322 -10.999  10.934  1.00  0.00    -0.268 OA
ENDBRANCH  30  33
ENDBRANCH  21  24
ENDBRANCH   1  20
TORSDOF 9
ENDMDL
MODEL 5
REMARK VINA RESULT:      -8.3      2.976     10.923
REMARK  9 active torsions:
REMARK  status: ('A' for Active; 'I' for Inactive)
REMARK    1  A    between atoms: C_4  and  C_5 
REMARK    2  A    between atoms: N_10  and  C_11 
REMARK    3  A    between atoms: C_11  and  C_12 
REMARK    4  A    between atoms: C_12  and  C_13 
REMARK    5  A    between atoms: C_13  and  C_14 
REMARK    6  A    between atoms: C_14  and  C_15 
REMARK    7  A    between atoms: C_15  and  C_16 
REMARK       I    between atoms: C_16  and  N_17 
REMARK    8  A    between atoms: N_17  and  C_18 
REMARK    9  A    between atoms: C_26  and  C_27 
REMARK       I    between atoms: C_27  and  N_28 
ROOT
HETATM    1  C   UNL     1      44.136  -9.417  10.654  1.00  0.00     0.103 C 
ENDROOT
BRANCH   1   2
HETATM    2  C   UNL     1      43.753  -9.580   9.181  1.00  0.00     0.009 C 
BRANCH   2   3
HETATM    3  C   UNL     1      42.440  -8.872   8.826  1.00  0.00     0.002 C 
BRANCH   3   4
HETATM    4  C   UNL     1      41.590  -9.700   7.863  1.00  0.00     0.020 C 
BRANCH   4   5
HETATM    5  C   UNL     1      41.649  -9.197   6.414  1.00  0.00     0.134 C 
BRANCH   5   6
HETATM    6  N   UNL     1      41.528 -10.313   5.475  1.00  0.00    -0.298 N 
HETATM    7  C   UNL     1      40.343 -10.752   4.921  1.00  0.00     0.148 C 
HETATM    8  S   UNL     1      40.637 -12.196   3.959  1.00  0.00    -0.055 SA
HETATM    9  S   UNL     1      38.817 -10.097   5.084  1.00  0.00    -0.052 SA
HETATM   10  C   UNL     1      42.284 -12.284   4.427  1.00  0.00     0.076 C 
HETATM   11  C   UNL     1      43.171 -13.269   4.227  1.00  0.00     0.036 C 
HETATM   12  C   UNL     1      42.654 -11.072   5.205  1.00  0.00     0.266 C 
HETATM   13  O   UNL     1      43.794 -10.825   5.576  1.00  0.00    -0.266 OA
BRANCH  11  14
HETATM   14  C   UNL     1      42.966 -14.568   3.572  1.00  0.00    -0.035 A 
HETATM   15  C   UNL     1      43.266 -14.687   2.208  1.00  0.00     0.011 A 
HETATM   16  C   UNL     1      43.160 -15.921   1.561  1.00  0.00     0.001 A 
HETATM   17  C   UNL     1      42.758 -17.049   2.271  1.00  0.00     0.000 A 
HETATM   18  C   UNL     1      42.473 -16.948   3.631  1.00  0.00     0.001 A 
HETATM   19  C   UNL     1      42.588 -15.717   4.280  1.00  0.00     0.011 A 
ENDBRANCH  11  14
ENDBRANCH   5   6
ENDBRANCH   4   5
ENDBRANCH   3   4
ENDBRANCH   2   3
ENDBRANCH   1   2
BRANCH   1  20
HETATM   20  C   UNL     1      43.536 -10.468  11.568  1.00  0.00     0.222 C 
HETATM   21  N   UNL     1      42.403 -10.246  12.294  1.00  0.00    -0.320 N 
HETATM   22  H   UNL     1      42.157 -11.066  12.851  1.00  0.00     0.169 HD
HETATM   23  O   UNL     1      44.053 -11.587  11.669  1.00  0.00    -0.273 OA
BRANCH  21  24
HETATM   24  C   UNL     1      41.542  -9.171  12.444  1.00  0.00     0.093 A 
HETATM   25  S   UNL     1      42.085  -7.570  12.507  1.00  0.00    -0.075 SA
HETATM   26  C   UNL     1      40.531  -6.962  12.771  1.00  0.00    -0.008 A 
HETATM   27  C   UNL     1      39.562  -7.948  12.767  1.00  0.00    -0.026 A 
HETATM   28  C   UNL     1      40.293  -5.498  12.979  1.00  0.00     0.047 C 
HETATM   29  C   UNL     1      38.123  -7.611  13.060  1.00  0.00     0.041 C 
HETATM   30  C   UNL     1      40.154  -9.259  12.559  1.00  0.00     0.072 A 
HETATM   31  C   UNL     1      37.839  -6.103  12.967  1.00  0.00     0.005 C 
HETATM   32  C   UNL     1      38.932  -5.270  13.645  1.00  0.00     0.005 C 
BRANCH  30  33
HETATM   33  C   UNL     1      39.477 -10.557  12.507  1.00  0.00     0.252 C 
HETATM   34  N   UNL     1      38.925 -10.913  11.312  1.00  0.00    -0.366 N 
HETATM   35  H   UNL     1      39.251 -10.483  10.459  1.00  0.00     0.159 HD
HETATM   36  H   UNL     1      38.614 -11.874  11.253  1.00  0.00     0.159 HD
HETATM   37  O   UNL     1      39.465 -11.346  13.447  1.00  0.00    -0.268 OA
ENDBRANCH  30  33
ENDBRANCH  21  24
ENDBRANCH   1  20
TORSDOF 9
ENDMDL
MODEL 6
REMARK VINA RESULT:      -8.2      1.506      2.455
REMARK  9 active torsions:
REMARK  status: ('A' for Active; 'I' for Inactive)
REMARK    1  A    between atoms: C_4  and  C_5 
REMARK    2  A    between atoms: N_10  and  C_11 
REMARK    3  A    between atoms: C_11  and  C_12 
REMARK    4  A    between atoms: C_12  and  C_13 
REMARK    5  A    between atoms: C_13  and  C_14 
REMARK    6  A    between atoms: C_14  and  C_15 
REMARK    7  A    between atoms: C_15  and  C_16 
REMARK       I    between atoms: C_16  and  N_17 
REMARK    8  A    between atoms: N_17  and  C_18 
REMARK    9  A    between atoms: C_26  and  C_27 
REMARK       I    between atoms: C_27  and  N_28 
ROOT
HETATM    1  C   UNL     1      40.833 -12.188   3.315  1.00  0.00     0.103 C 
ENDROOT
BRANCH   1   2
HETATM    2  C   UNL     1      42.211 -12.826   3.115  1.00  0.00     0.009 C 
BRANCH   2   3
HETATM    3  C   UNL     1      43.256 -12.309   4.111  1.00  0.00     0.002 C 
BRANCH   3   4
HETATM    4  C   UNL     1      42.638 -11.365   5.142  1.00  0.00     0.020 C 
BRANCH   4   5
HETATM    5  C   UNL     1      43.680 -10.668   6.027  1.00  0.00     0.134 C 
BRANCH   5   6
HETATM    6  N   UNL     1      43.068 -10.199   7.272  1.00  0.00    -0.298 N 
HETATM    7  C   UNL     1      42.144  -9.178   7.361  1.00  0.00     0.148 C 
HETATM    8  S   UNL     1      41.779  -8.854   9.051  1.00  0.00    -0.055 SA
HETATM    9  S   UNL     1      41.433  -8.313   6.124  1.00  0.00    -0.052 SA
HETATM   10  C   UNL     1      42.960  -9.962   9.614  1.00  0.00     0.076 C 
HETATM   11  C   UNL     1      43.418 -10.153  10.859  1.00  0.00     0.036 C 
HETATM   12  C   UNL     1      43.527 -10.723   8.469  1.00  0.00     0.266 C 
HETATM   13  O   UNL     1      44.315 -11.650   8.593  1.00  0.00    -0.266 OA
BRANCH  11  14
HETATM   14  C   UNL     1      43.054  -9.438  12.090  1.00  0.00    -0.035 A 
HETATM   15  C   UNL     1      43.695  -8.225  12.377  1.00  0.00     0.011 A 
HETATM   16  C   UNL     1      43.328  -7.472  13.494  1.00  0.00     0.001 A 
HETATM   17  C   UNL     1      42.313  -7.922  14.336  1.00  0.00     0.000 A 
HETATM   18  C   UNL     1      41.657  -9.118  14.053  1.00  0.00     0.001 A 
HETATM   19  C   UNL     1      42.017  -9.865  12.930  1.00  0.00     0.011 A 
ENDBRANCH  11  14
ENDBRANCH   5   6
ENDBRANCH   4   5
ENDBRANCH   3   4
ENDBRANCH   2   3
ENDBRANCH   1   2
BRANCH   1  20
HETATM   20  C   UNL     1      39.673 -13.114   3.000  1.00  0.00     0.222 C 
HETATM   21  N   UNL     1      39.784 -14.472   3.059  1.00  0.00    -0.320 N 
HETATM   22  H   UNL     1      38.903 -14.924   2.809  1.00  0.00     0.169 HD
HETATM   23  O   UNL     1      38.565 -12.658   2.695  1.00  0.00    -0.273 OA
BRANCH  21  24
HETATM   24  C   UNL     1      40.813 -15.349   3.365  1.00  0.00     0.093 A 
HETATM   25  S   UNL     1      41.739 -16.119   2.176  1.00  0.00    -0.075 SA
HETATM   26  C   UNL     1      42.625 -16.999   3.313  1.00  0.00    -0.008 A 
HETATM   27  C   UNL     1      42.277 -16.694   4.616  1.00  0.00    -0.026 A 
HETATM   28  C   UNL     1      43.667 -17.989   2.891  1.00  0.00     0.047 C 
HETATM   29  C   UNL     1      42.905 -17.430   5.771  1.00  0.00     0.041 C 
HETATM   30  C   UNL     1      41.212 -15.706   4.654  1.00  0.00     0.072 A 
HETATM   31  C   UNL     1      44.167 -18.207   5.359  1.00  0.00     0.005 C 
HETATM   32  C   UNL     1      43.973 -18.958   4.038  1.00  0.00     0.005 C 
BRANCH  30  33
HETATM   33  C   UNL     1      40.552 -15.134   5.830  1.00  0.00     0.252 C 
HETATM   34  N   UNL     1      39.710 -15.955   6.520  1.00  0.00    -0.366 N 
HETATM   35  H   UNL     1      39.801 -16.956   6.435  1.00  0.00     0.159 HD
HETATM   36  H   UNL     1      39.400 -15.597   7.414  1.00  0.00     0.159 HD
HETATM   37  O   UNL     1      40.789 -14.005   6.249  1.00  0.00    -0.268 OA
ENDBRANCH  30  33
ENDBRANCH  21  24
ENDBRANCH   1  20
TORSDOF 9
ENDMDL
MODEL 7
REMARK VINA RESULT:      -8.2      1.687      2.196
REMARK  9 active torsions:
REMARK  status: ('A' for Active; 'I' for Inactive)
REMARK    1  A    between atoms: C_4  and  C_5 
REMARK    2  A    between atoms: N_10  and  C_11 
REMARK    3  A    between atoms: C_11  and  C_12 
REMARK    4  A    between atoms: C_12  and  C_13 
REMARK    5  A    between atoms: C_13  and  C_14 
REMARK    6  A    between atoms: C_14  and  C_15 
REMARK    7  A    between atoms: C_15  and  C_16 
REMARK       I    between atoms: C_16  and  N_17 
REMARK    8  A    between atoms: N_17  and  C_18 
REMARK    9  A    between atoms: C_26  and  C_27 
REMARK       I    between atoms: C_27  and  N_28 
ROOT
HETATM    1  C   UNL     1      41.386 -12.080   5.764  1.00  0.00     0.103 C 
ENDROOT
BRANCH   1   2
HETATM    2  C   UNL     1      41.321 -10.588   6.104  1.00  0.00     0.009 C 
BRANCH   2   3
HETATM    3  C   UNL     1      42.685 -10.010   6.501  1.00  0.00     0.002 C 
BRANCH   3   4
HETATM    4  C   UNL     1      42.615  -9.251   7.826  1.00  0.00     0.020 C 
BRANCH   4   5
HETATM    5  C   UNL     1      42.939 -10.125   9.044  1.00  0.00     0.134 C 
BRANCH   5   6
HETATM    6  N   UNL     1      42.357  -9.552  10.260  1.00  0.00    -0.298 N 
HETATM    7  C   UNL     1      41.012  -9.320  10.455  1.00  0.00     0.148 C 
HETATM    8  S   UNL     1      40.768  -8.500  11.993  1.00  0.00    -0.055 SA
HETATM    9  S   UNL     1      39.736  -9.703   9.450  1.00  0.00    -0.052 SA
HETATM   10  C   UNL     1      42.452  -8.342  12.279  1.00  0.00     0.076 C 
HETATM   11  C   UNL     1      43.088  -7.631  13.221  1.00  0.00     0.036 C 
HETATM   12  C   UNL     1      43.213  -9.093  11.247  1.00  0.00     0.266 C 
HETATM   13  O   UNL     1      44.428  -9.235  11.268  1.00  0.00    -0.266 OA
BRANCH  11  14
HETATM   14  C   UNL     1      42.516  -6.759  14.256  1.00  0.00    -0.035 A 
HETATM   15  C   UNL     1      41.917  -5.555  13.863  1.00  0.00     0.011 A 
HETATM   16  C   UNL     1      41.293  -4.730  14.802  1.00  0.00     0.001 A 
HETATM   17  C   UNL     1      41.256  -5.103  16.143  1.00  0.00     0.000 A 
HETATM   18  C   UNL     1      41.833  -6.306  16.544  1.00  0.00     0.001 A 
HETATM   19  C   UNL     1      42.449  -7.135  15.604  1.00  0.00     0.011 A 
ENDBRANCH  11  14
ENDBRANCH   5   6
ENDBRANCH   4   5
ENDBRANCH   3   4
ENDBRANCH   2   3
ENDBRANCH   1   2
BRANCH   1  20
HETATM   20  C   UNL     1      40.082 -12.822   5.992  1.00  0.00     0.222 C 
HETATM   21  N   UNL     1      39.962 -14.167   5.804  1.00  0.00    -0.320 N 
HETATM   22  H   UNL     1      39.011 -14.482   6.002  1.00  0.00     0.169 HD
HETATM   23  O   UNL     1      39.074 -12.221   6.383  1.00  0.00    -0.273 OA
BRANCH  21  24
HETATM   24  C   UNL     1      40.829 -15.171   5.401  1.00  0.00     0.093 A 
HETATM   25  S   UNL     1      41.743 -16.081   6.496  1.00  0.00    -0.075 SA
HETATM   26  C   UNL     1      42.520 -16.940   5.268  1.00  0.00    -0.008 A 
HETATM   27  C   UNL     1      42.070 -16.596   4.006  1.00  0.00    -0.026 A 
HETATM   28  C   UNL     1      43.576 -17.957   5.577  1.00  0.00     0.047 C 
HETATM   29  C   UNL     1      42.696 -17.202   2.777  1.00  0.00     0.041 C 
HETATM   30  C   UNL     1      41.057 -15.558   4.079  1.00  0.00     0.072 A 
HETATM   31  C   UNL     1      43.544 -18.445   3.098  1.00  0.00     0.005 C 
HETATM   32  C   UNL     1      44.426 -18.235   4.333  1.00  0.00     0.005 C 
BRANCH  30  33
HETATM   33  C   UNL     1      40.347 -14.910   2.974  1.00  0.00     0.252 C 
HETATM   34  N   UNL     1      39.451 -15.676   2.288  1.00  0.00    -0.366 N 
HETATM   35  H   UNL     1      39.061 -16.501   2.719  1.00  0.00     0.159 HD
HETATM   36  H   UNL     1      38.856 -15.168   1.646  1.00  0.00     0.159 HD
HETATM   37  O   UNL     1      40.465 -13.717   2.708  1.00  0.00    -0.268 OA
ENDBRANCH  30  33
ENDBRANCH  21  24
ENDBRANCH   1  20
TORSDOF 9
ENDMDL
MODEL 8
REMARK VINA RESULT:      -8.0      5.879      9.539
REMARK  9 active torsions:
REMARK  status: ('A' for Active; 'I' for Inactive)
REMARK    1  A    between atoms: C_4  and  C_5 
REMARK    2  A    between atoms: N_10  and  C_11 
REMARK    3  A    between atoms: C_11  and  C_12 
REMARK    4  A    between atoms: C_12  and  C_13 
REMARK    5  A    between atoms: C_13  and  C_14 
REMARK    6  A    between atoms: C_14  and  C_15 
REMARK    7  A    between atoms: C_15  and  C_16 
REMARK       I    between atoms: C_16  and  N_17 
REMARK    8  A    between atoms: N_17  and  C_18 
REMARK    9  A    between atoms: C_26  and  C_27 
REMARK       I    between atoms: C_27  and  N_28 
ROOT
HETATM    1  C   UNL     1      40.198  -8.293   2.265  1.00  0.00     0.103 C 
ENDROOT
BRANCH   1   2
HETATM    2  C   UNL     1      39.565  -9.382   3.135  1.00  0.00     0.009 C 
BRANCH   2   3
HETATM    3  C   UNL     1      40.595 -10.144   3.977  1.00  0.00     0.002 C 
BRANCH   3   4
HETATM    4  C   UNL     1      40.968 -11.483   3.342  1.00  0.00     0.020 C 
BRANCH   4   5
HETATM    5  C   UNL     1      42.177 -12.155   4.007  1.00  0.00     0.134 C 
BRANCH   5   6
HETATM    6  N   UNL     1      42.016 -13.610   4.020  1.00  0.00    -0.298 N 
HETATM    7  C   UNL     1      41.232 -14.308   4.914  1.00  0.00     0.148 C 
HETATM    8  S   UNL     1      41.434 -16.037   4.657  1.00  0.00    -0.055 SA
HETATM    9  S   UNL     1      40.224 -13.706   6.100  1.00  0.00    -0.052 SA
HETATM   10  C   UNL     1      42.661 -15.812   3.481  1.00  0.00     0.076 C 
HETATM   11  C   UNL     1      43.472 -16.718   2.918  1.00  0.00     0.036 C 
HETATM   12  C   UNL     1      42.792 -14.366   3.157  1.00  0.00     0.266 C 
HETATM   13  O   UNL     1      43.520 -13.931   2.276  1.00  0.00    -0.266 OA
BRANCH  11  14
HETATM   14  C   UNL     1      43.557 -18.161   3.179  1.00  0.00    -0.035 A 
HETATM   15  C   UNL     1      43.176 -19.050   2.164  1.00  0.00     0.011 A 
HETATM   16  C   UNL     1      43.310 -20.429   2.338  1.00  0.00     0.001 A 
HETATM   17  C   UNL     1      43.832 -20.935   3.526  1.00  0.00     0.000 A 
HETATM   18  C   UNL     1      44.229 -20.062   4.536  1.00  0.00     0.001 A 
HETATM   19  C   UNL     1      44.104 -18.683   4.358  1.00  0.00     0.011 A 
ENDBRANCH  11  14
ENDBRANCH   5   6
ENDBRANCH   4   5
ENDBRANCH   3   4
ENDBRANCH   2   3
ENDBRANCH   1   2
BRANCH   1  20
HETATM   20  C   UNL     1      39.263  -7.720   1.216  1.00  0.00     0.222 C 
HETATM   21  N   UNL     1      38.967  -8.379   0.061  1.00  0.00    -0.320 N 
HETATM   22  H   UNL     1      38.327  -7.835  -0.519  1.00  0.00     0.169 HD
HETATM   23  O   UNL     1      38.715  -6.624   1.390  1.00  0.00    -0.273 OA
BRANCH  21  24
HETATM   24  C   UNL     1      39.346  -9.594  -0.488  1.00  0.00     0.093 A 
HETATM   25  S   UNL     1      40.718  -9.765  -1.465  1.00  0.00    -0.075 SA
HETATM   26  C   UNL     1      40.415 -11.402  -1.753  1.00  0.00    -0.008 A 
HETATM   27  C   UNL     1      39.302 -11.867  -1.078  1.00  0.00    -0.026 A 
HETATM   28  C   UNL     1      41.298 -12.209  -2.654  1.00  0.00     0.047 C 
HETATM   29  C   UNL     1      38.828 -13.285  -1.267  1.00  0.00     0.041 C 
HETATM   30  C   UNL     1      38.672 -10.804  -0.314  1.00  0.00     0.072 A 
HETATM   31  C   UNL     1      39.888 -14.179  -1.932  1.00  0.00     0.005 C 
HETATM   32  C   UNL     1      40.572 -13.478  -3.111  1.00  0.00     0.005 C 
BRANCH  30  33
HETATM   33  C   UNL     1      37.468 -10.880   0.517  1.00  0.00     0.252 C 
HETATM   34  N   UNL     1      37.427 -11.877   1.446  1.00  0.00    -0.366 N 
HETATM   35  H   UNL     1      38.285 -12.302   1.766  1.00  0.00     0.159 HD
HETATM   36  H   UNL     1      36.671 -11.808   2.115  1.00  0.00     0.159 HD
HETATM   37  O   UNL     1      36.564 -10.052   0.464  1.00  0.00    -0.268 OA
ENDBRANCH  30  33
ENDBRANCH  21  24
ENDBRANCH   1  20
TORSDOF 9
ENDMDL
MODEL 9
REMARK VINA RESULT:      -8.0      5.103      9.012
REMARK  9 active torsions:
REMARK  status: ('A' for Active; 'I' for Inactive)
REMARK    1  A    between atoms: C_4  and  C_5 
REMARK    2  A    between atoms: N_10  and  C_11 
REMARK    3  A    between atoms: C_11  and  C_12 
REMARK    4  A    between atoms: C_12  and  C_13 
REMARK    5  A    between atoms: C_13  and  C_14 
REMARK    6  A    between atoms: C_14  and  C_15 
REMARK    7  A    between atoms: C_15  and  C_16 
REMARK       I    between atoms: C_16  and  N_17 
REMARK    8  A    between atoms: N_17  and  C_18 
REMARK    9  A    between atoms: C_26  and  C_27 
REMARK       I    between atoms: C_27  and  N_28 
ROOT
HETATM    1  C   UNL     1      39.161 -10.797   3.463  1.00  0.00     0.103 C 
ENDROOT
BRANCH   1   2
HETATM    2  C   UNL     1      38.393  -9.880   2.507  1.00  0.00     0.009 C 
BRANCH   2   3
HETATM    3  C   UNL     1      37.820 -10.627   1.298  1.00  0.00     0.002 C 
BRANCH   3   4
HETATM    4  C   UNL     1      37.873  -9.777   0.028  1.00  0.00     0.020 C 
BRANCH   4   5
HETATM    5  C   UNL     1      39.144 -10.003  -0.801  1.00  0.00     0.134 C 
BRANCH   5   6
HETATM    6  N   UNL     1      39.677 -11.347  -0.572  1.00  0.00    -0.298 N 
HETATM    7  C   UNL     1      39.114 -12.511  -1.052  1.00  0.00     0.148 C 
HETATM    8  S   UNL     1      39.997 -13.899  -0.430  1.00  0.00    -0.055 SA
HETATM    9  S   UNL     1      37.795 -12.686  -2.059  1.00  0.00    -0.052 SA
HETATM   10  C   UNL     1      40.996 -12.930   0.572  1.00  0.00     0.076 C 
HETATM   11  C   UNL     1      41.852 -13.305   1.533  1.00  0.00     0.036 C 
HETATM   12  C   UNL     1      40.755 -11.491   0.286  1.00  0.00     0.266 C 
HETATM   13  O   UNL     1      41.404 -10.581   0.783  1.00  0.00    -0.266 OA
BRANCH  11  14
HETATM   14  C   UNL     1      42.149 -14.659   2.019  1.00  0.00    -0.035 A 
HETATM   15  C   UNL     1      41.139 -15.371   2.681  1.00  0.00     0.011 A 
HETATM   16  C   UNL     1      41.350 -16.689   3.093  1.00  0.00     0.001 A 
HETATM   17  C   UNL     1      42.571 -17.311   2.844  1.00  0.00     0.000 A 
HETATM   18  C   UNL     1      43.578 -16.620   2.173  1.00  0.00     0.001 A 
HETATM   19  C   UNL     1      43.363 -15.306   1.752  1.00  0.00     0.011 A 
ENDBRANCH  11  14
ENDBRANCH   5   6
ENDBRANCH   4   5
ENDBRANCH   3   4
ENDBRANCH   2   3
ENDBRANCH   1   2
BRANCH   1  20
HETATM   20  C   UNL     1      39.101 -10.364   4.916  1.00  0.00     0.222 C 
HETATM   21  N   UNL     1      39.702 -11.070   5.916  1.00  0.00    -0.320 N 
HETATM   22  H   UNL     1      39.547 -10.626   6.823  1.00  0.00     0.169 HD
HETATM   23  O   UNL     1      38.509  -9.328   5.242  1.00  0.00    -0.273 OA
BRANCH  21  24
HETATM   24  C   UNL     1      40.450 -12.236   5.966  1.00  0.00     0.093 A 
HETATM   25  S   UNL     1      39.763 -13.746   6.296  1.00  0.00    -0.075 SA
HETATM   26  C   UNL     1      41.257 -14.531   6.259  1.00  0.00    -0.008 A 
HETATM   27  C   UNL     1      42.302 -13.681   5.947  1.00  0.00    -0.026 A 
HETATM   28  C   UNL     1      41.373 -15.998   6.542  1.00  0.00     0.047 C 
HETATM   29  C   UNL     1      43.723 -14.181   5.939  1.00  0.00     0.041 C 
HETATM   30  C   UNL     1      41.827 -12.320   5.759  1.00  0.00     0.072 A 
HETATM   31  C   UNL     1      43.808 -15.717   5.924  1.00  0.00     0.005 C 
HETATM   32  C   UNL     1      42.819 -16.356   6.904  1.00  0.00     0.005 C 
BRANCH  30  33
HETATM   33  C   UNL     1      42.613 -11.127   5.437  1.00  0.00     0.252 C 
HETATM   34  N   UNL     1      43.182 -10.466   6.486  1.00  0.00    -0.366 N 
HETATM   35  H   UNL     1      43.336 -10.947   7.359  1.00  0.00     0.159 HD
HETATM   36  H   UNL     1      43.851  -9.751   6.230  1.00  0.00     0.159 HD
HETATM   37  O   UNL     1      42.839 -10.762   4.287  1.00  0.00    -0.268 OA
ENDBRANCH  30  33
ENDBRANCH  21  24
ENDBRANCH   1  20
TORSDOF 9
ENDMDL
MODEL 10
REMARK VINA RESULT:      -7.9      4.865      9.050
REMARK  9 active torsions:
REMARK  status: ('A' for Active; 'I' for Inactive)
REMARK    1  A    between atoms: C_4  and  C_5 
REMARK    2  A    between atoms: N_10  and  C_11 
REMARK    3  A    between atoms: C_11  and  C_12 
REMARK    4  A    between atoms: C_12  and  C_13 
REMARK    5  A    between atoms: C_13  and  C_14 
REMARK    6  A    between atoms: C_14  and  C_15 
REMARK    7  A    between atoms: C_15  and  C_16 
REMARK       I    between atoms: C_16  and  N_17 
REMARK    8  A    between atoms: N_17  and  C_18 
REMARK    9  A    between atoms: C_26  and  C_27 
REMARK       I    between atoms: C_27  and  N_28 
ROOT
HETATM    1  C   UNL     1      38.608 -12.113   1.572  1.00  0.00     0.103 C 
ENDROOT
BRANCH   1   2
HETATM    2  C   UNL     1      38.698 -11.081   2.700  1.00  0.00     0.009 C 
BRANCH   2   3
HETATM    3  C   UNL     1      38.678 -11.719   4.094  1.00  0.00     0.002 C 
BRANCH   3   4
HETATM    4  C   UNL     1      39.100 -10.728   5.178  1.00  0.00     0.020 C 
BRANCH   4   5
HETATM    5  C   UNL     1      39.845 -11.388   6.346  1.00  0.00     0.134 C 
BRANCH   5   6
HETATM    6  N   UNL     1      40.837 -12.343   5.851  1.00  0.00    -0.298 N 
HETATM    7  C   UNL     1      41.930 -12.015   5.077  1.00  0.00     0.148 C 
HETATM    8  S   UNL     1      42.778 -13.479   4.595  1.00  0.00    -0.055 SA
HETATM    9  S   UNL     1      42.448 -10.501   4.604  1.00  0.00    -0.052 SA
HETATM   10  C   UNL     1      41.593 -14.504   5.292  1.00  0.00     0.076 C 
HETATM   11  C   UNL     1      41.447 -15.832   5.178  1.00  0.00     0.036 C 
HETATM   12  C   UNL     1      40.614 -13.694   6.064  1.00  0.00     0.266 C 
HETATM   13  O   UNL     1      39.722 -14.176   6.748  1.00  0.00    -0.266 OA
BRANCH  11  14
HETATM   14  C   UNL     1      42.249 -16.778   4.390  1.00  0.00    -0.035 A 
HETATM   15  C   UNL     1      42.019 -16.866   3.010  1.00  0.00     0.011 A 
HETATM   16  C   UNL     1      42.808 -17.695   2.209  1.00  0.00     0.001 A 
HETATM   17  C   UNL     1      43.837 -18.441   2.777  1.00  0.00     0.000 A 
HETATM   18  C   UNL     1      44.086 -18.350   4.145  1.00  0.00     0.001 A 
HETATM   19  C   UNL     1      43.304 -17.514   4.945  1.00  0.00     0.011 A 
ENDBRANCH  11  14
ENDBRANCH   5   6
ENDBRANCH   4   5
ENDBRANCH   3   4
ENDBRANCH   2   3
ENDBRANCH   1   2
BRANCH   1  20
HETATM   20  C   UNL     1      39.871 -12.931   1.382  1.00  0.00     0.222 C 
HETATM   21  N   UNL     1      40.886 -12.530   0.564  1.00  0.00    -0.320 N 
HETATM   22  H   UNL     1      41.647 -13.212   0.561  1.00  0.00     0.169 HD
HETATM   23  O   UNL     1      40.032 -13.996   1.990  1.00  0.00    -0.273 OA
BRANCH  21  24
HETATM   24  C   UNL     1      41.097 -11.431  -0.254  1.00  0.00     0.093 A 
HETATM   25  S   UNL     1      41.562  -9.921   0.352  1.00  0.00    -0.075 SA
HETATM   26  C   UNL     1      41.513  -9.197  -1.173  1.00  0.00    -0.008 A 
HETATM   27  C   UNL     1      41.195 -10.090  -2.180  1.00  0.00    -0.026 A 
HETATM   28  C   UNL     1      41.796  -7.737  -1.351  1.00  0.00     0.047 C 
HETATM   29  C   UNL     1      41.029  -9.618  -3.601  1.00  0.00     0.041 C 
HETATM   30  C   UNL     1      40.961 -11.420  -1.642  1.00  0.00     0.072 A 
HETATM   31  C   UNL     1      41.611  -8.212  -3.827  1.00  0.00     0.005 C 
HETATM   32  C   UNL     1      41.242  -7.249  -2.694  1.00  0.00     0.005 C 
BRANCH  30  33
HETATM   33  C   UNL     1      40.586 -12.634  -2.370  1.00  0.00     0.252 C 
HETATM   34  N   UNL     1      41.499 -13.125  -3.256  1.00  0.00    -0.366 N 
HETATM   35  H   UNL     1      42.473 -12.876  -3.165  1.00  0.00     0.159 HD
HETATM   36  H   UNL     1      41.292 -14.047  -3.619  1.00  0.00     0.159 HD
HETATM   37  O   UNL     1      39.548 -13.253  -2.153  1.00  0.00    -0.268 OA
ENDBRANCH  30  33
ENDBRANCH  21  24
ENDBRANCH   1  20
TORSDOF 9
ENDMDL
