MODEL 1
REMARK VINA RESULT:      -8.3      0.000      0.000
REMARK  4 active torsions:
REMARK  status: ('A' for Active; 'I' for Inactive)
REMARK    1  A    between atoms: C_9  and  C_10 
REMARK    2  A    between atoms: C_17  and  C_18 
REMARK       I    between atoms: C_18  and  N_19 
REMARK    3  A    between atoms: N_19  and  C_20 
REMARK    4  A    between atoms: C_23  and  O_24 
ROOT
HETATM    1  C   UNL     1      40.019 -14.742  -0.190  1.00  0.00     0.070 C 
HETATM    2  C   UNL     1      39.974 -13.681   0.881  1.00  0.00     0.037 C 
HETATM    3  N   UNL     1      39.519 -12.432   0.470  1.00  0.00    -0.192 N 
HETATM    4  C   UNL     1      39.176 -11.455   1.332  1.00  0.00     0.725 A 
HETATM    5  N   UNL     1      39.426 -11.619   2.668  1.00  0.00    -0.084 N 
HETATM    6  N   UNL     1      38.940 -10.587   3.389  1.00  0.00    -0.149 NA
HETATM    7  C   UNL     1      38.450  -9.814   2.412  1.00  0.00     0.275 A 
HETATM    8  N   UNL     1      38.578 -10.308   1.138  1.00  0.00    -0.054 NA
HETATM    9  C   UNL     1      40.090 -12.797   3.240  1.00  0.00     0.202 C 
HETATM   10  C   UNL     1      40.272 -13.887   2.188  1.00  0.00     0.062 C 
HETATM   11  H   UNL     1      39.217 -12.337  -0.497  1.00  0.00     0.184 HD
ENDROOT
BRANCH  10  12
HETATM   12  C   UNL     1      40.687 -15.197   2.759  1.00  0.00     0.256 C 
HETATM   13  N   UNL     1      42.052 -15.372   2.802  1.00  0.00    -0.323 N 
HETATM   14  H   UNL     1      42.626 -14.609   2.466  1.00  0.00     0.169 HD
HETATM   15  O   UNL     1      39.819 -15.955   3.173  1.00  0.00    -0.267 OA
BRANCH  13  16
HETATM   16  C   UNL     1      42.750 -16.511   3.257  1.00  0.00     0.035 A 
HETATM   17  C   UNL     1      43.285 -16.638   4.539  1.00  0.00     0.032 A 
HETATM   18  C   UNL     1      43.955 -17.808   4.912  1.00  0.00     0.039 A 
HETATM   19  C   UNL     1      44.096 -18.871   4.021  1.00  0.00     0.068 A 
HETATM   20  C   UNL     1      43.566 -18.750   2.739  1.00  0.00     0.039 A 
HETATM   21  C   UNL     1      42.902 -17.575   2.360  1.00  0.00     0.032 A 
BRANCH  19  22
HETATM   22  O   UNL     1      44.765 -19.953   4.521  1.00  0.00    -0.356 OA
HETATM   23  C   UNL     1      44.037 -20.821   5.380  1.00  0.00     0.210 C 
ENDBRANCH  19  22
ENDBRANCH  13  16
ENDBRANCH  10  12
BRANCH   9  24
HETATM   24  C   UNL     1      41.419 -12.401   3.883  1.00  0.00    -0.028 A 
HETATM   25  C   UNL     1      41.615 -12.624   5.258  1.00  0.00     0.011 A 
HETATM   26  C   UNL     1      42.824 -12.284   5.870  1.00  0.00     0.024 A 
HETATM   27  C   UNL     1      43.850 -11.724   5.114  1.00  0.00     0.034 A 
HETATM   28 CL   UNL     1      45.337 -11.299   5.868  1.00  0.00    -0.084 Cl
HETATM   29  C   UNL     1      43.681 -11.507   3.748  1.00  0.00     0.024 A 
HETATM   30  C   UNL     1      42.474 -11.849   3.133  1.00  0.00     0.011 A 
ENDBRANCH   9  24
TORSDOF 4
ENDMDL
MODEL 2
REMARK VINA RESULT:      -8.1      3.267      5.620
REMARK  4 active torsions:
REMARK  status: ('A' for Active; 'I' for Inactive)
REMARK    1  A    between atoms: C_9  and  C_10 
REMARK    2  A    between atoms: C_17  and  C_18 
REMARK       I    between atoms: C_18  and  N_19 
REMARK    3  A    between atoms: N_19  and  C_20 
REMARK    4  A    between atoms: C_23  and  O_24 
ROOT
HETATM    1  C   UNL     1      38.727 -10.777   2.648  1.00  0.00     0.070 C 
HETATM    2  C   UNL     1      39.326 -11.779   1.693  1.00  0.00     0.037 C 
HETATM    3  N   UNL     1      38.477 -12.232   0.688  1.00  0.00    -0.192 N 
HETATM    4  C   UNL     1      38.912 -12.920  -0.386  1.00  0.00     0.725 A 
HETATM    5  N   UNL     1      40.214 -13.340  -0.433  1.00  0.00    -0.084 N 
HETATM    6  N   UNL     1      40.496 -13.934  -1.611  1.00  0.00    -0.149 NA
HETATM    7  C   UNL     1      39.300 -13.877  -2.208  1.00  0.00     0.275 A 
HETATM    8  N   UNL     1      38.302 -13.267  -1.490  1.00  0.00    -0.054 NA
HETATM    9  C   UNL     1      41.186 -13.120   0.645  1.00  0.00     0.202 C 
HETATM   10  C   UNL     1      40.618 -12.194   1.715  1.00  0.00     0.062 C 
HETATM   11  H   UNL     1      37.543 -11.831   0.645  1.00  0.00     0.184 HD
ENDROOT
BRANCH  10  12
HETATM   12  C   UNL     1      41.637 -11.716   2.688  1.00  0.00     0.256 C 
HETATM   13  N   UNL     1      41.550 -12.324   3.920  1.00  0.00    -0.323 N 
HETATM   14  H   UNL     1      40.833 -13.029   4.038  1.00  0.00     0.169 HD
HETATM   15  O   UNL     1      42.464 -10.896   2.312  1.00  0.00    -0.267 OA
BRANCH  13  16
HETATM   16  C   UNL     1      42.350 -12.068   5.054  1.00  0.00     0.035 A 
HETATM   17  C   UNL     1      42.310 -10.882   5.785  1.00  0.00     0.032 A 
HETATM   18  C   UNL     1      43.131 -10.714   6.906  1.00  0.00     0.039 A 
HETATM   19  C   UNL     1      43.997 -11.726   7.320  1.00  0.00     0.068 A 
HETATM   20  C   UNL     1      44.043 -12.913   6.593  1.00  0.00     0.039 A 
HETATM   21  C   UNL     1      43.228 -13.079   5.465  1.00  0.00     0.032 A 
BRANCH  19  22
HETATM   22  O   UNL     1      44.733 -11.430   8.432  1.00  0.00    -0.356 OA
HETATM   23  C   UNL     1      45.838 -10.550   8.261  1.00  0.00     0.210 C 
ENDBRANCH  19  22
ENDBRANCH  13  16
ENDBRANCH  10  12
BRANCH   9  24
HETATM   24  C   UNL     1      41.643 -14.455   1.234  1.00  0.00    -0.028 A 
HETATM   25  C   UNL     1      43.015 -14.692   1.428  1.00  0.00     0.011 A 
HETATM   26  C   UNL     1      43.460 -15.898   1.977  1.00  0.00     0.024 A 
HETATM   27  C   UNL     1      42.538 -16.875   2.340  1.00  0.00     0.034 A 
HETATM   28 CL   UNL     1      43.085 -18.364   3.010  1.00  0.00    -0.084 Cl
HETATM   29  C   UNL     1      41.173 -16.655   2.168  1.00  0.00     0.024 A 
HETATM   30  C   UNL     1      40.726 -15.450   1.623  1.00  0.00     0.011 A 
ENDBRANCH   9  24
TORSDOF 4
ENDMDL
MODEL 3
REMARK VINA RESULT:      -7.7      3.128      4.861
REMARK  4 active torsions:
REMARK  status: ('A' for Active; 'I' for Inactive)
REMARK    1  A    between atoms: C_9  and  C_10 
REMARK    2  A    between atoms: C_17  and  C_18 
REMARK       I    between atoms: C_18  and  N_19 
REMARK    3  A    between atoms: N_19  and  C_20 
REMARK    4  A    between atoms: C_23  and  O_24 
ROOT
HETATM    1  C   UNL     1      39.725 -11.721   4.194  1.00  0.00     0.070 C 
HETATM    2  C   UNL     1      40.155 -11.448   2.775  1.00  0.00     0.037 C 
HETATM    3  N   UNL     1      40.119 -10.113   2.383  1.00  0.00    -0.192 N 
HETATM    4  C   UNL     1      40.702  -9.663   1.255  1.00  0.00     0.725 A 
HETATM    5  N   UNL     1      41.220 -10.561   0.361  1.00  0.00    -0.084 N 
HETATM    6  N   UNL     1      41.839  -9.935  -0.662  1.00  0.00    -0.149 NA
HETATM    7  C   UNL     1      41.613  -8.656  -0.340  1.00  0.00     0.275 A 
HETATM    8  N   UNL     1      40.917  -8.446   0.824  1.00  0.00    -0.054 NA
HETATM    9  C   UNL     1      41.153 -12.018   0.531  1.00  0.00     0.202 C 
HETATM   10  C   UNL     1      40.624 -12.385   1.913  1.00  0.00     0.062 C 
HETATM   11  H   UNL     1      39.850  -9.425   3.083  1.00  0.00     0.184 HD
ENDROOT
BRANCH  10  12
HETATM   12  C   UNL     1      40.786 -13.826   2.246  1.00  0.00     0.256 C 
HETATM   13  N   UNL     1      42.086 -14.185   2.525  1.00  0.00    -0.323 N 
HETATM   14  H   UNL     1      42.784 -13.453   2.495  1.00  0.00     0.169 HD
HETATM   15  O   UNL     1      39.786 -14.531   2.292  1.00  0.00    -0.267 OA
BRANCH  13  16
HETATM   16  C   UNL     1      42.563 -15.474   2.844  1.00  0.00     0.035 A 
HETATM   17  C   UNL     1      42.672 -16.516   1.923  1.00  0.00     0.032 A 
HETATM   18  C   UNL     1      43.168 -17.762   2.322  1.00  0.00     0.039 A 
HETATM   19  C   UNL     1      43.568 -17.989   3.638  1.00  0.00     0.068 A 
HETATM   20  C   UNL     1      43.461 -16.953   4.563  1.00  0.00     0.039 A 
HETATM   21  C   UNL     1      42.957 -15.706   4.168  1.00  0.00     0.032 A 
BRANCH  19  22
HETATM   22  O   UNL     1      44.038 -19.248   3.885  1.00  0.00    -0.356 OA
HETATM   23  C   UNL     1      43.775 -20.240   2.901  1.00  0.00     0.210 C 
ENDBRANCH  19  22
ENDBRANCH  13  16
ENDBRANCH  10  12
BRANCH   9  24
HETATM   24  C   UNL     1      40.316 -12.647  -0.583  1.00  0.00    -0.028 A 
HETATM   25  C   UNL     1      40.940 -13.472  -1.536  1.00  0.00     0.011 A 
HETATM   26  C   UNL     1      40.197 -14.071  -2.557  1.00  0.00     0.024 A 
HETATM   27  C   UNL     1      38.824 -13.855  -2.632  1.00  0.00     0.034 A 
HETATM   28 CL   UNL     1      37.910 -14.587  -3.893  1.00  0.00    -0.084 Cl
HETATM   29  C   UNL     1      38.185 -13.051  -1.691  1.00  0.00     0.024 A 
HETATM   30  C   UNL     1      38.924 -12.455  -0.668  1.00  0.00     0.011 A 
ENDBRANCH   9  24
TORSDOF 4
ENDMDL
MODEL 4
REMARK VINA RESULT:      -7.4      1.485      2.171
REMARK  4 active torsions:
REMARK  status: ('A' for Active; 'I' for Inactive)
REMARK    1  A    between atoms: C_9  and  C_10 
REMARK    2  A    between atoms: C_17  and  C_18 
REMARK       I    between atoms: C_18  and  N_19 
REMARK    3  A    between atoms: N_19  and  C_20 
REMARK    4  A    between atoms: C_23  and  O_24 
ROOT
HETATM    1  C   UNL     1      41.137 -12.861   0.372  1.00  0.00     0.070 C 
HETATM    2  C   UNL     1      40.974 -12.512   1.830  1.00  0.00     0.037 C 
HETATM    3  N   UNL     1      40.131 -11.439   2.100  1.00  0.00    -0.192 N 
HETATM    4  C   UNL     1      39.676 -11.156   3.336  1.00  0.00     0.725 A 
HETATM    5  N   UNL     1      40.175 -11.842   4.410  1.00  0.00    -0.084 N 
HETATM    6  N   UNL     1      39.547 -11.492   5.552  1.00  0.00    -0.149 NA
HETATM    7  C   UNL     1      38.710 -10.553   5.094  1.00  0.00     0.275 A 
HETATM    8  N   UNL     1      38.760 -10.315   3.744  1.00  0.00    -0.054 NA
HETATM    9  C   UNL     1      41.223 -12.866   4.315  1.00  0.00     0.202 C 
HETATM   10  C   UNL     1      41.526 -13.204   2.858  1.00  0.00     0.062 C 
HETATM   11  H   UNL     1      39.661 -11.001   1.311  1.00  0.00     0.184 HD
ENDROOT
BRANCH  10  12
HETATM   12  C   UNL     1      42.375 -14.416   2.697  1.00  0.00     0.256 C 
HETATM   13  N   UNL     1      41.948 -15.492   3.442  1.00  0.00    -0.323 N 
HETATM   14  H   UNL     1      41.113 -15.365   4.000  1.00  0.00     0.169 HD
HETATM   15  O   UNL     1      43.311 -14.372   1.909  1.00  0.00    -0.267 OA
BRANCH  13  16
HETATM   16  C   UNL     1      42.554 -16.764   3.526  1.00  0.00     0.035 A 
HETATM   17  C   UNL     1      42.623 -17.666   2.465  1.00  0.00     0.032 A 
HETATM   18  C   UNL     1      43.254 -18.905   2.631  1.00  0.00     0.039 A 
HETATM   19  C   UNL     1      43.830 -19.260   3.850  1.00  0.00     0.068 A 
HETATM   20  C   UNL     1      43.764 -18.363   4.914  1.00  0.00     0.039 A 
HETATM   21  C   UNL     1      43.125 -17.126   4.752  1.00  0.00     0.032 A 
BRANCH  19  22
HETATM   22  O   UNL     1      44.417 -20.493   3.868  1.00  0.00    -0.356 OA
HETATM   23  C   UNL     1      44.281 -21.256   5.061  1.00  0.00     0.210 C 
ENDBRANCH  19  22
ENDBRANCH  13  16
ENDBRANCH  10  12
BRANCH   9  24
HETATM   24  C   UNL     1      42.477 -12.418   5.067  1.00  0.00    -0.028 A 
HETATM   25  C   UNL     1      43.345 -11.486   4.470  1.00  0.00     0.011 A 
HETATM   26  C   UNL     1      44.491 -11.050   5.140  1.00  0.00     0.024 A 
HETATM   27  C   UNL     1      44.778 -11.536   6.412  1.00  0.00     0.034 A 
HETATM   28 CL   UNL     1      46.193 -11.004   7.234  1.00  0.00    -0.084 Cl
HETATM   29  C   UNL     1      43.925 -12.451   7.025  1.00  0.00     0.024 A 
HETATM   30  C   UNL     1      42.777 -12.886   6.360  1.00  0.00     0.011 A 
ENDBRANCH   9  24
TORSDOF 4
ENDMDL
MODEL 5
REMARK VINA RESULT:      -7.3     15.686     17.231
REMARK  4 active torsions:
REMARK  status: ('A' for Active; 'I' for Inactive)
REMARK    1  A    between atoms: C_9  and  C_10 
REMARK    2  A    between atoms: C_17  and  C_18 
REMARK       I    between atoms: C_18  and  N_19 
REMARK    3  A    between atoms: N_19  and  C_20 
REMARK    4  A    between atoms: C_23  and  O_24 
ROOT
HETATM    1  C   UNL     1      43.571 -33.149  -1.981  1.00  0.00     0.070 C 
HETATM    2  C   UNL     1      44.113 -31.755  -1.785  1.00  0.00     0.037 C 
HETATM    3  N   UNL     1      44.620 -31.142  -2.927  1.00  0.00    -0.192 N 
HETATM    4  C   UNL     1      44.904 -29.827  -2.990  1.00  0.00     0.725 A 
HETATM    5  N   UNL     1      44.852 -29.073  -1.848  1.00  0.00    -0.084 N 
HETATM    6  N   UNL     1      45.079 -27.769  -2.110  1.00  0.00    -0.149 NA
HETATM    7  C   UNL     1      45.307 -27.819  -3.428  1.00  0.00     0.275 A 
HETATM    8  N   UNL     1      45.213 -29.060  -4.004  1.00  0.00    -0.054 NA
HETATM    9  C   UNL     1      44.534 -29.614  -0.521  1.00  0.00     0.202 C 
HETATM   10  C   UNL     1      44.073 -31.065  -0.618  1.00  0.00     0.062 C 
HETATM   11  H   UNL     1      44.550 -31.653  -3.805  1.00  0.00     0.184 HD
ENDROOT
BRANCH  10  12
HETATM   12  C   UNL     1      43.482 -31.584   0.645  1.00  0.00     0.256 C 
HETATM   13  N   UNL     1      42.341 -30.920   1.034  1.00  0.00    -0.323 N 
HETATM   14  H   UNL     1      42.013 -30.174   0.434  1.00  0.00     0.169 HD
HETATM   15  O   UNL     1      44.008 -32.551   1.182  1.00  0.00    -0.267 OA
BRANCH  13  16
HETATM   16  C   UNL     1      41.572 -31.155   2.194  1.00  0.00     0.035 A 
HETATM   17  C   UNL     1      40.531 -32.080   2.265  1.00  0.00     0.032 A 
HETATM   18  C   UNL     1      39.825 -32.259   3.460  1.00  0.00     0.039 A 
HETATM   19  C   UNL     1      40.149 -31.528   4.602  1.00  0.00     0.068 A 
HETATM   20  C   UNL     1      41.188 -30.603   4.538  1.00  0.00     0.039 A 
HETATM   21  C   UNL     1      41.890 -30.415   3.339  1.00  0.00     0.032 A 
BRANCH  19  22
HETATM   22  O   UNL     1      39.384 -31.810   5.699  1.00  0.00    -0.356 OA
HETATM   23  C   UNL     1      38.723 -33.070   5.719  1.00  0.00     0.210 C 
ENDBRANCH  19  22
ENDBRANCH  13  16
ENDBRANCH  10  12
BRANCH   9  24
HETATM   24  C   UNL     1      45.730 -29.460   0.419  1.00  0.00    -0.028 A 
HETATM   25  C   UNL     1      45.537 -28.908   1.698  1.00  0.00     0.011 A 
HETATM   26  C   UNL     1      46.609 -28.766   2.583  1.00  0.00     0.024 A 
HETATM   27  C   UNL     1      47.882 -29.181   2.200  1.00  0.00     0.034 A 
HETATM   28 CL   UNL     1      49.205 -29.001   3.287  1.00  0.00    -0.084 Cl
HETATM   29  C   UNL     1      48.092 -29.742   0.942  1.00  0.00     0.024 A 
HETATM   30  C   UNL     1      47.021 -29.887   0.058  1.00  0.00     0.011 A 
ENDBRANCH   9  24
TORSDOF 4
ENDMDL
MODEL 6
REMARK VINA RESULT:      -7.3      3.466      5.030
REMARK  4 active torsions:
REMARK  status: ('A' for Active; 'I' for Inactive)
REMARK    1  A    between atoms: C_9  and  C_10 
REMARK    2  A    between atoms: C_17  and  C_18 
REMARK       I    between atoms: C_18  and  N_19 
REMARK    3  A    between atoms: N_19  and  C_20 
REMARK    4  A    between atoms: C_23  and  O_24 
ROOT
HETATM    1  C   UNL     1      38.708 -14.996  -2.609  1.00  0.00     0.070 C 
HETATM    2  C   UNL     1      38.422 -13.560  -2.248  1.00  0.00     0.037 C 
HETATM    3  N   UNL     1      37.458 -12.925  -3.025  1.00  0.00    -0.192 N 
HETATM    4  C   UNL     1      36.902 -11.746  -2.686  1.00  0.00     0.725 A 
HETATM    5  N   UNL     1      37.405 -11.046  -1.622  1.00  0.00    -0.084 N 
HETATM    6  N   UNL     1      36.676  -9.938  -1.375  1.00  0.00    -0.149 NA
HETATM    7  C   UNL     1      35.775 -10.011  -2.363  1.00  0.00     0.275 A 
HETATM    8  N   UNL     1      35.881 -11.100  -3.189  1.00  0.00    -0.054 NA
HETATM    9  C   UNL     1      38.557 -11.483  -0.824  1.00  0.00     0.202 C 
HETATM   10  C   UNL     1      38.980 -12.898  -1.203  1.00  0.00     0.062 C 
HETATM   11  H   UNL     1      36.993 -13.479  -3.741  1.00  0.00     0.184 HD
ENDROOT
BRANCH  10  12
HETATM   12  C   UNL     1      39.958 -13.497  -0.255  1.00  0.00     0.256 C 
HETATM   13  N   UNL     1      39.373 -14.075   0.849  1.00  0.00    -0.323 N 
HETATM   14  H   UNL     1      38.363 -14.052   0.902  1.00  0.00     0.169 HD
HETATM   15  O   UNL     1      41.147 -13.472  -0.549  1.00  0.00    -0.267 OA
BRANCH  13  16
HETATM   16  C   UNL     1      40.029 -14.694   1.935  1.00  0.00     0.035 A 
HETATM   17  C   UNL     1      40.608 -15.961   1.876  1.00  0.00     0.032 A 
HETATM   18  C   UNL     1      41.250 -16.497   2.999  1.00  0.00     0.039 A 
HETATM   19  C   UNL     1      41.333 -15.779   4.191  1.00  0.00     0.068 A 
HETATM   20  C   UNL     1      40.756 -14.513   4.256  1.00  0.00     0.039 A 
HETATM   21  C   UNL     1      40.104 -13.978   3.136  1.00  0.00     0.032 A 
BRANCH  19  22
HETATM   22  O   UNL     1      41.993 -16.419   5.200  1.00  0.00    -0.356 OA
HETATM   23  C   UNL     1      43.329 -16.834   4.938  1.00  0.00     0.210 C 
ENDBRANCH  19  22
ENDBRANCH  13  16
ENDBRANCH  10  12
BRANCH   9  24
HETATM   24  C   UNL     1      39.710 -10.488  -0.963  1.00  0.00    -0.028 A 
HETATM   25  C   UNL     1      40.217  -9.852   0.184  1.00  0.00     0.011 A 
HETATM   26  C   UNL     1      41.279  -8.949   0.089  1.00  0.00     0.024 A 
HETATM   27  C   UNL     1      41.847  -8.677  -1.153  1.00  0.00     0.034 A 
HETATM   28 CL   UNL     1      43.150  -7.560  -1.272  1.00  0.00    -0.084 Cl
HETATM   29  C   UNL     1      41.368  -9.306  -2.300  1.00  0.00     0.024 A 
HETATM   30  C   UNL     1      40.309 -10.211  -2.206  1.00  0.00     0.011 A 
ENDBRANCH   9  24
TORSDOF 4
ENDMDL
MODEL 7
REMARK VINA RESULT:      -7.2     16.471     17.818
REMARK  4 active torsions:
REMARK  status: ('A' for Active; 'I' for Inactive)
REMARK    1  A    between atoms: C_9  and  C_10 
REMARK    2  A    between atoms: C_17  and  C_18 
REMARK       I    between atoms: C_18  and  N_19 
REMARK    3  A    between atoms: N_19  and  C_20 
REMARK    4  A    between atoms: C_23  and  O_24 
ROOT
HETATM    1  C   UNL     1      44.162 -29.980   1.653  1.00  0.00     0.070 C 
HETATM    2  C   UNL     1      44.822 -29.717   0.322  1.00  0.00     0.037 C 
HETATM    3  N   UNL     1      43.991 -29.817  -0.790  1.00  0.00    -0.192 N 
HETATM    4  C   UNL     1      44.343 -29.372  -2.012  1.00  0.00     0.725 A 
HETATM    5  N   UNL     1      45.626 -28.946  -2.228  1.00  0.00    -0.084 N 
HETATM    6  N   UNL     1      45.777 -28.456  -3.477  1.00  0.00    -0.149 NA
HETATM    7  C   UNL     1      44.551 -28.663  -3.971  1.00  0.00     0.275 A 
HETATM    8  N   UNL     1      43.645 -29.225  -3.108  1.00  0.00    -0.054 NA
HETATM    9  C   UNL     1      46.682 -28.971  -1.208  1.00  0.00     0.202 C 
HETATM   10  C   UNL     1      46.113 -29.335   0.160  1.00  0.00     0.062 C 
HETATM   11  H   UNL     1      43.007 -30.015  -0.625  1.00  0.00     0.184 HD
ENDROOT
BRANCH  10  12
HETATM   12  C   UNL     1      47.071 -29.115   1.276  1.00  0.00     0.256 C 
HETATM   13  N   UNL     1      47.809 -30.232   1.598  1.00  0.00    -0.323 N 
HETATM   14  H   UNL     1      47.645 -31.067   1.050  1.00  0.00     0.169 HD
HETATM   15  O   UNL     1      47.157 -27.993   1.760  1.00  0.00    -0.267 OA
BRANCH  13  16
HETATM   16  C   UNL     1      48.771 -30.351   2.624  1.00  0.00     0.035 A 
HETATM   17  C   UNL     1      48.465 -30.652   3.950  1.00  0.00     0.032 A 
HETATM   18  C   UNL     1      49.484 -30.762   4.903  1.00  0.00     0.039 A 
HETATM   19  C   UNL     1      50.821 -30.583   4.550  1.00  0.00     0.068 A 
HETATM   20  C   UNL     1      51.134 -30.281   3.226  1.00  0.00     0.039 A 
HETATM   21  C   UNL     1      50.113 -30.162   2.272  1.00  0.00     0.032 A 
BRANCH  19  22
HETATM   22  O   UNL     1      51.709 -30.727   5.578  1.00  0.00    -0.356 OA
HETATM   23  C   UNL     1      52.168 -32.044   5.855  1.00  0.00     0.210 C 
ENDBRANCH  19  22
ENDBRANCH  13  16
ENDBRANCH  10  12
BRANCH   9  24
HETATM   24  C   UNL     1      47.805 -29.920  -1.627  1.00  0.00    -0.028 A 
HETATM   25  C   UNL     1      49.130 -29.450  -1.661  1.00  0.00     0.011 A 
HETATM   26  C   UNL     1      50.179 -30.299  -2.027  1.00  0.00     0.024 A 
HETATM   27  C   UNL     1      49.914 -31.625  -2.357  1.00  0.00     0.034 A 
HETATM   28 CL   UNL     1      51.203 -32.669  -2.814  1.00  0.00    -0.084 Cl
HETATM   29  C   UNL     1      48.609 -32.113  -2.317  1.00  0.00     0.024 A 
HETATM   30  C   UNL     1      47.561 -31.268  -1.948  1.00  0.00     0.011 A 
ENDBRANCH   9  24
TORSDOF 4
ENDMDL
MODEL 8
REMARK VINA RESULT:      -7.2      3.625      5.338
REMARK  4 active torsions:
REMARK  status: ('A' for Active; 'I' for Inactive)
REMARK    1  A    between atoms: C_9  and  C_10 
REMARK    2  A    between atoms: C_17  and  C_18 
REMARK       I    between atoms: C_18  and  N_19 
REMARK    3  A    between atoms: N_19  and  C_20 
REMARK    4  A    between atoms: C_23  and  O_24 
ROOT
HETATM    1  C   UNL     1      40.381 -15.417   1.003  1.00  0.00     0.070 C 
HETATM    2  C   UNL     1      39.836 -14.168   0.358  1.00  0.00     0.037 C 
HETATM    3  N   UNL     1      39.241 -14.346  -0.888  1.00  0.00    -0.192 N 
HETATM    4  C   UNL     1      38.487 -13.401  -1.483  1.00  0.00     0.725 A 
HETATM    5  N   UNL     1      38.419 -12.150  -0.932  1.00  0.00    -0.084 N 
HETATM    6  N   UNL     1      37.555 -11.363  -1.607  1.00  0.00    -0.149 NA
HETATM    7  C   UNL     1      37.173 -12.196  -2.582  1.00  0.00     0.275 A 
HETATM    8  N   UNL     1      37.724 -13.452  -2.544  1.00  0.00    -0.054 NA
HETATM    9  C   UNL     1      39.155 -11.741   0.271  1.00  0.00     0.202 C 
HETATM   10  C   UNL     1      39.830 -12.939   0.932  1.00  0.00     0.062 C 
HETATM   11  H   UNL     1      39.181 -15.295  -1.248  1.00  0.00     0.184 HD
ENDROOT
BRANCH  10  12
HETATM   12  C   UNL     1      40.360 -12.644   2.291  1.00  0.00     0.256 C 
HETATM   13  N   UNL     1      41.723 -12.806   2.398  1.00  0.00    -0.323 N 
HETATM   14  H   UNL     1      42.222 -13.087   1.563  1.00  0.00     0.169 HD
HETATM   15  O   UNL     1      39.581 -12.248   3.149  1.00  0.00    -0.267 OA
BRANCH  13  16
HETATM   16  C   UNL     1      42.512 -12.633   3.555  1.00  0.00     0.035 A 
HETATM   17  C   UNL     1      43.303 -11.511   3.799  1.00  0.00     0.032 A 
HETATM   18  C   UNL     1      44.049 -11.415   4.980  1.00  0.00     0.039 A 
HETATM   19  C   UNL     1      44.012 -12.428   5.937  1.00  0.00     0.068 A 
HETATM   20  C   UNL     1      43.225 -13.552   5.699  1.00  0.00     0.039 A 
HETATM   21  C   UNL     1      42.484 -13.654   4.512  1.00  0.00     0.032 A 
BRANCH  19  22
HETATM   22  O   UNL     1      44.781 -12.200   7.043  1.00  0.00    -0.356 OA
HETATM   23  C   UNL     1      45.582 -11.024   7.041  1.00  0.00     0.210 C 
ENDBRANCH  19  22
ENDBRANCH  13  16
ENDBRANCH  10  12
BRANCH   9  24
HETATM   24  C   UNL     1      40.159 -10.638  -0.066  1.00  0.00    -0.028 A 
HETATM   25  C   UNL     1      41.117 -10.859  -1.071  1.00  0.00     0.011 A 
HETATM   26  C   UNL     1      42.039  -9.864  -1.409  1.00  0.00     0.024 A 
HETATM   27  C   UNL     1      42.008  -8.639  -0.749  1.00  0.00     0.034 A 
HETATM   28 CL   UNL     1      43.147  -7.416  -1.159  1.00  0.00    -0.084 Cl
HETATM   29  C   UNL     1      41.059  -8.396   0.242  1.00  0.00     0.024 A 
HETATM   30  C   UNL     1      40.135  -9.387   0.578  1.00  0.00     0.011 A 
ENDBRANCH   9  24
TORSDOF 4
ENDMDL
MODEL 9
REMARK VINA RESULT:      -7.1      1.789      2.355
REMARK  4 active torsions:
REMARK  status: ('A' for Active; 'I' for Inactive)
REMARK    1  A    between atoms: C_9  and  C_10 
REMARK    2  A    between atoms: C_17  and  C_18 
REMARK       I    between atoms: C_18  and  N_19 
REMARK    3  A    between atoms: N_19  and  C_20 
REMARK    4  A    between atoms: C_23  and  O_24 
ROOT
HETATM    1  C   UNL     1      41.328 -13.569   1.313  1.00  0.00     0.070 C 
HETATM    2  C   UNL     1      41.386 -12.447   2.319  1.00  0.00     0.037 C 
HETATM    3  N   UNL     1      41.284 -11.163   1.793  1.00  0.00    -0.192 N 
HETATM    4  C   UNL     1      41.062 -10.073   2.554  1.00  0.00     0.725 A 
HETATM    5  N   UNL     1      41.094 -10.188   3.918  1.00  0.00    -0.084 N 
HETATM    6  N   UNL     1      40.766  -9.023   4.516  1.00  0.00    -0.149 NA
HETATM    7  C   UNL     1      40.594  -8.237   3.446  1.00  0.00     0.275 A 
HETATM    8  N   UNL     1      40.770  -8.841   2.227  1.00  0.00    -0.054 NA
HETATM    9  C   UNL     1      41.394 -11.436   4.629  1.00  0.00     0.202 C 
HETATM   10  C   UNL     1      41.458 -12.615   3.664  1.00  0.00     0.062 C 
HETATM   11  H   UNL     1      41.138 -11.076   0.790  1.00  0.00     0.184 HD
ENDROOT
BRANCH  10  12
HETATM   12  C   UNL     1      41.489 -13.937   4.345  1.00  0.00     0.256 C 
HETATM   13  N   UNL     1      42.680 -14.609   4.191  1.00  0.00    -0.323 N 
HETATM   14  H   UNL     1      43.407 -14.147   3.659  1.00  0.00     0.169 HD
HETATM   15  O   UNL     1      40.513 -14.280   5.000  1.00  0.00    -0.267 OA
BRANCH  13  16
HETATM   16  C   UNL     1      43.007 -15.889   4.688  1.00  0.00     0.035 A 
HETATM   17  C   UNL     1      43.054 -16.210   6.044  1.00  0.00     0.032 A 
HETATM   18  C   UNL     1      43.376 -17.510   6.452  1.00  0.00     0.039 A 
HETATM   19  C   UNL     1      43.647 -18.510   5.518  1.00  0.00     0.068 A 
HETATM   20  C   UNL     1      43.603 -18.195   4.162  1.00  0.00     0.039 A 
HETATM   21  C   UNL     1      43.289 -16.892   3.752  1.00  0.00     0.032 A 
BRANCH  19  22
HETATM   22  O   UNL     1      43.939 -19.731   6.056  1.00  0.00    -0.356 OA
HETATM   23  C   UNL     1      44.416 -20.732   5.164  1.00  0.00     0.210 C 
ENDBRANCH  19  22
ENDBRANCH  13  16
ENDBRANCH  10  12
BRANCH   9  24
HETATM   24  C   UNL     1      42.684 -11.293   5.438  1.00  0.00    -0.028 A 
HETATM   25  C   UNL     1      43.924 -11.480   4.800  1.00  0.00     0.011 A 
HETATM   26  C   UNL     1      45.119 -11.343   5.511  1.00  0.00     0.024 A 
HETATM   27  C   UNL     1      45.087 -11.013   6.863  1.00  0.00     0.034 A 
HETATM   28 CL   UNL     1      46.558 -10.851   7.740  1.00  0.00    -0.084 Cl
HETATM   29  C   UNL     1      43.870 -10.812   7.510  1.00  0.00     0.024 A 
HETATM   30  C   UNL     1      42.674 -10.945   6.801  1.00  0.00     0.011 A 
ENDBRANCH   9  24
TORSDOF 4
ENDMDL
MODEL 10
REMARK VINA RESULT:      -7.0     15.755     18.941
REMARK  4 active torsions:
REMARK  status: ('A' for Active; 'I' for Inactive)
REMARK    1  A    between atoms: C_9  and  C_10 
REMARK    2  A    between atoms: C_17  and  C_18 
REMARK       I    between atoms: C_18  and  N_19 
REMARK    3  A    between atoms: N_19  and  C_20 
REMARK    4  A    between atoms: C_23  and  O_24 
ROOT
HETATM    1  C   UNL     1      44.856 -27.757  -1.464  1.00  0.00     0.070 C 
HETATM    2  C   UNL     1      45.928 -28.513  -0.720  1.00  0.00     0.037 C 
HETATM    3  N   UNL     1      46.489 -27.846   0.365  1.00  0.00    -0.192 N 
HETATM    4  C   UNL     1      47.263 -28.458   1.283  1.00  0.00     0.725 A 
HETATM    5  N   UNL     1      47.658 -29.751   1.073  1.00  0.00    -0.084 N 
HETATM    6  N   UNL     1      48.351 -30.230   2.128  1.00  0.00    -0.149 NA
HETATM    7  C   UNL     1      48.373 -29.149   2.918  1.00  0.00     0.275 A 
HETATM    8  N   UNL     1      47.722 -28.043   2.435  1.00  0.00    -0.054 NA
HETATM    9  C   UNL     1      47.320 -30.529  -0.125  1.00  0.00     0.202 C 
HETATM   10  C   UNL     1      46.312 -29.785  -0.994  1.00  0.00     0.062 C 
HETATM   11  H   UNL     1      46.113 -26.930   0.599  1.00  0.00     0.184 HD
ENDROOT
BRANCH  10  12
HETATM   12  C   UNL     1      45.727 -30.625  -2.074  1.00  0.00     0.256 C 
HETATM   13  N   UNL     1      46.084 -30.222  -3.341  1.00  0.00    -0.323 N 
HETATM   14  H   UNL     1      46.706 -29.427  -3.415  1.00  0.00     0.169 HD
HETATM   15  O   UNL     1      45.048 -31.593  -1.757  1.00  0.00    -0.267 OA
BRANCH  13  16
HETATM   16  C   UNL     1      45.671 -30.793  -4.564  1.00  0.00     0.035 A 
HETATM   17  C   UNL     1      46.380 -31.784  -5.241  1.00  0.00     0.032 A 
HETATM   18  C   UNL     1      45.892 -32.304  -6.446  1.00  0.00     0.039 A 
HETATM   19  C   UNL     1      44.690 -31.852  -6.989  1.00  0.00     0.068 A 
HETATM   20  C   UNL     1      43.978 -30.861  -6.318  1.00  0.00     0.039 A 
HETATM   21  C   UNL     1      44.469 -30.333  -5.116  1.00  0.00     0.032 A 
BRANCH  19  22
HETATM   22  O   UNL     1      44.331 -32.451  -8.163  1.00  0.00    -0.356 OA
HETATM   23  C   UNL     1      45.312 -32.496  -9.192  1.00  0.00     0.210 C 
ENDBRANCH  19  22
ENDBRANCH  13  16
ENDBRANCH  10  12
BRANCH   9  24
HETATM   24  C   UNL     1      48.586 -30.888  -0.903  1.00  0.00    -0.028 A 
HETATM   25  C   UNL     1      48.881 -32.239  -1.160  1.00  0.00     0.011 A 
HETATM   26  C   UNL     1      50.024 -32.595  -1.880  1.00  0.00     0.024 A 
HETATM   27  C   UNL     1      50.880 -31.605  -2.355  1.00  0.00     0.034 A 
HETATM   28 CL   UNL     1      52.292 -32.044  -3.236  1.00  0.00    -0.084 Cl
HETATM   29  C   UNL     1      50.600 -30.261  -2.122  1.00  0.00     0.024 A 
HETATM   30  C   UNL     1      49.456 -29.902  -1.405  1.00  0.00     0.011 A 
ENDBRANCH   9  24
TORSDOF 4
ENDMDL
