MODEL 1
REMARK VINA RESULT:      -6.7      0.000      0.000
REMARK  5 active torsions:
REMARK  status: ('A' for Active; 'I' for Inactive)
REMARK    1  A    between atoms: C_2  and  O_3 
REMARK    2  A    between atoms: C_4  and  C_5 
REMARK    3  A    between atoms: C_5  and  O_6 
REMARK    4  A    between atoms: C_9  and  C_10 
REMARK    5  A    between atoms: C_22  and  O_23 
ROOT
HETATM    1  C   UNL     1      43.147 -17.616   6.462  1.00  0.00     0.047 C 
HETATM    2  C   UNL     1      43.447 -16.157   6.084  1.00  0.00     0.073 C 
HETATM    3  C   UNL     1      42.941 -15.767   4.649  1.00  0.00     0.133 C 
HETATM    4  C   UNL     1      43.019 -14.242   4.288  1.00  0.00     0.074 C 
HETATM    5  C   UNL     1      43.242 -13.371   5.480  1.00  0.00     0.030 A 
HETATM    6  C   UNL     1      43.173 -13.815   6.782  1.00  0.00     0.042 A 
HETATM    7  N   UNL     1      43.452 -12.747   7.586  1.00  0.00    -0.279 N 
HETATM    8  H   UNL     1      43.485 -12.704   8.600  1.00  0.00     0.189 HD
HETATM    9  N   UNL     1      43.769 -11.639   6.882  1.00  0.00    -0.149 NA
HETATM   10  C   UNL     1      43.635 -12.040   5.624  1.00  0.00     0.190 A 
HETATM   11  C   UNL     1      42.927 -15.213   7.207  1.00  0.00     0.097 C 
ENDROOT
BRANCH   4  12
HETATM   12  C   UNL     1      41.813 -13.643   3.571  1.00  0.00    -0.047 A 
HETATM   13  C   UNL     1      41.756 -13.509   2.168  1.00  0.00     0.027 A 
HETATM   14  C   UNL     1      40.647 -12.930   1.551  1.00  0.00     0.011 A 
HETATM   15 BR   UNL     1      40.609 -12.757  -0.331  1.00  0.00    -0.051 Br
HETATM   16  C   UNL     1      39.574 -12.475   2.310  1.00  0.00     0.019 A 
HETATM   17  C   UNL     1      39.613 -12.598   3.698  1.00  0.00     0.002 A 
HETATM   18  C   UNL     1      40.722 -13.175   4.324  1.00  0.00     0.008 A 
ENDBRANCH   4  12
BRANCH   3  19
HETATM   19  C   UNL     1      41.573 -16.353   4.364  1.00  0.00     0.266 C 
HETATM   20  O   UNL     1      40.629 -16.342   5.141  1.00  0.00    -0.265 OA
BRANCH  19  21
HETATM   21  O   UNL     1      41.553 -16.889   3.110  1.00  0.00    -0.326 OA
HETATM   22  C   UNL     1      42.764 -17.540   2.725  1.00  0.00     0.213 C 
ENDBRANCH  19  21
ENDBRANCH   3  19
BRANCH   2  23
HETATM   23  O   UNL     1      44.896 -16.099   6.063  1.00  0.00    -0.389 OA
HETATM   24  H   UNL     1      45.224 -16.225   6.972  1.00  0.00     0.210 HD
ENDBRANCH   2  23
BRANCH  10  25
HETATM   25  O   UNL     1      43.931 -11.134   4.701  1.00  0.00    -0.343 OA
HETATM   26  H   UNL     1      43.675 -11.549   3.859  1.00  0.00     0.219 HD
ENDBRANCH  10  25
TORSDOF 5
ENDMDL
MODEL 2
REMARK VINA RESULT:      -6.7      3.406      5.192
REMARK  5 active torsions:
REMARK  status: ('A' for Active; 'I' for Inactive)
REMARK    1  A    between atoms: C_2  and  O_3 
REMARK    2  A    between atoms: C_4  and  C_5 
REMARK    3  A    between atoms: C_5  and  O_6 
REMARK    4  A    between atoms: C_9  and  C_10 
REMARK    5  A    between atoms: C_22  and  O_23 
ROOT
HETATM    1  C   UNL     1      41.358 -16.204   5.404  1.00  0.00     0.047 C 
HETATM    2  C   UNL     1      41.484 -14.706   5.088  1.00  0.00     0.073 C 
HETATM    3  C   UNL     1      42.008 -13.853   6.298  1.00  0.00     0.133 C 
HETATM    4  C   UNL     1      42.366 -12.359   5.979  1.00  0.00     0.074 C 
HETATM    5  C   UNL     1      42.475 -12.086   4.515  1.00  0.00     0.030 A 
HETATM    6  C   UNL     1      42.477 -13.065   3.546  1.00  0.00     0.042 A 
HETATM    7  N   UNL     1      42.569 -12.435   2.338  1.00  0.00    -0.279 N 
HETATM    8  H   UNL     1      42.603 -12.842   1.408  1.00  0.00     0.189 HD
HETATM    9  N   UNL     1      42.558 -11.090   2.455  1.00  0.00    -0.149 NA
HETATM   10  C   UNL     1      42.502 -10.908   3.768  1.00  0.00     0.190 A 
HETATM   11  C   UNL     1      42.319 -14.519   3.786  1.00  0.00     0.097 C 
ENDROOT
BRANCH   4  12
HETATM   12  C   UNL     1      43.657 -11.818   6.587  1.00  0.00    -0.047 A 
HETATM   13  C   UNL     1      43.706 -11.251   7.877  1.00  0.00     0.027 A 
HETATM   14  C   UNL     1      44.901 -10.740   8.387  1.00  0.00     0.011 A 
HETATM   15 BR   UNL     1      44.928  -9.977  10.116  1.00  0.00    -0.051 Br
HETATM   16  C   UNL     1      46.067 -10.783   7.631  1.00  0.00     0.019 A 
HETATM   17  C   UNL     1      46.036 -11.339   6.352  1.00  0.00     0.002 A 
HETATM   18  C   UNL     1      44.843 -11.851   5.834  1.00  0.00     0.008 A 
ENDBRANCH   4  12
BRANCH   3  19
HETATM   19  C   UNL     1      43.123 -14.564   7.037  1.00  0.00     0.266 C 
HETATM   20  O   UNL     1      43.160 -14.746   8.246  1.00  0.00    -0.265 OA
BRANCH  19  21
HETATM   21  O   UNL     1      44.075 -14.975   6.151  1.00  0.00    -0.326 OA
HETATM   22  C   UNL     1      44.718 -16.202   6.500  1.00  0.00     0.213 C 
ENDBRANCH  19  21
ENDBRANCH   3  19
BRANCH   2  23
HETATM   23  O   UNL     1      40.119 -14.293   4.826  1.00  0.00    -0.389 OA
HETATM   24  H   UNL     1      39.622 -14.315   5.664  1.00  0.00     0.210 HD
ENDBRANCH   2  23
BRANCH  10  25
HETATM   25  O   UNL     1      42.440  -9.644   4.168  1.00  0.00    -0.343 OA
HETATM   26  H   UNL     1      43.297  -9.262   3.910  1.00  0.00     0.219 HD
ENDBRANCH  10  25
TORSDOF 5
ENDMDL
MODEL 3
REMARK VINA RESULT:      -6.6      3.038      5.031
REMARK  5 active torsions:
REMARK  status: ('A' for Active; 'I' for Inactive)
REMARK    1  A    between atoms: C_2  and  O_3 
REMARK    2  A    between atoms: C_4  and  C_5 
REMARK    3  A    between atoms: C_5  and  O_6 
REMARK    4  A    between atoms: C_9  and  C_10 
REMARK    5  A    between atoms: C_22  and  O_23 
ROOT
HETATM    1  C   UNL     1      40.842 -14.492   0.338  1.00  0.00     0.047 C 
HETATM    2  C   UNL     1      40.531 -14.226   1.819  1.00  0.00     0.073 C 
HETATM    3  C   UNL     1      40.937 -15.411   2.765  1.00  0.00     0.133 C 
HETATM    4  C   UNL     1      40.850 -15.119   4.305  1.00  0.00     0.074 C 
HETATM    5  C   UNL     1      40.722 -13.664   4.615  1.00  0.00     0.030 A 
HETATM    6  C   UNL     1      40.879 -12.661   3.684  1.00  0.00     0.042 A 
HETATM    7  N   UNL     1      40.669 -11.476   4.331  1.00  0.00    -0.279 N 
HETATM    8  H   UNL     1      40.709 -10.532   3.960  1.00  0.00     0.189 HD
HETATM    9  N   UNL     1      40.314 -11.648   5.622  1.00  0.00    -0.149 NA
HETATM   10  C   UNL     1      40.355 -12.967   5.766  1.00  0.00     0.190 A 
HETATM   11  C   UNL     1      41.140 -12.856   2.238  1.00  0.00     0.097 C 
ENDROOT
BRANCH   4  12
HETATM   12  C   UNL     1      42.008 -15.614   5.165  1.00  0.00    -0.047 A 
HETATM   13  C   UNL     1      42.137 -16.963   5.557  1.00  0.00     0.027 A 
HETATM   14  C   UNL     1      43.195 -17.372   6.369  1.00  0.00     0.011 A 
HETATM   15 BR   UNL     1      43.331 -19.186   6.884  1.00  0.00    -0.051 Br
HETATM   16  C   UNL     1      44.146 -16.456   6.804  1.00  0.00     0.019 A 
HETATM   17  C   UNL     1      44.035 -15.118   6.427  1.00  0.00     0.002 A 
HETATM   18  C   UNL     1      42.975 -14.700   5.617  1.00  0.00     0.008 A 
ENDBRANCH   4  12
BRANCH   3  19
HETATM   19  C   UNL     1      42.275 -16.004   2.371  1.00  0.00     0.266 C 
HETATM   20  O   UNL     1      43.320 -15.375   2.276  1.00  0.00    -0.265 OA
BRANCH  19  21
HETATM   21  O   UNL     1      42.138 -17.341   2.143  1.00  0.00    -0.326 OA
HETATM   22  C   UNL     1      43.314 -18.109   2.401  1.00  0.00     0.213 C 
ENDBRANCH  19  21
ENDBRANCH   3  19
BRANCH   2  23
HETATM   23  O   UNL     1      39.085 -14.121   1.853  1.00  0.00    -0.389 OA
HETATM   24  H   UNL     1      38.818 -13.347   1.323  1.00  0.00     0.210 HD
ENDBRANCH   2  23
BRANCH  10  25
HETATM   25  O   UNL     1      40.003 -13.422   6.962  1.00  0.00    -0.343 OA
HETATM   26  H   UNL     1      40.400 -12.795   7.591  1.00  0.00     0.219 HD
ENDBRANCH  10  25
TORSDOF 5
ENDMDL
MODEL 4
REMARK VINA RESULT:      -6.5      2.428      4.241
REMARK  5 active torsions:
REMARK  status: ('A' for Active; 'I' for Inactive)
REMARK    1  A    between atoms: C_2  and  O_3 
REMARK    2  A    between atoms: C_4  and  C_5 
REMARK    3  A    between atoms: C_5  and  O_6 
REMARK    4  A    between atoms: C_9  and  C_10 
REMARK    5  A    between atoms: C_22  and  O_23 
ROOT
HETATM    1  C   UNL     1      39.027 -11.071   4.957  1.00  0.00     0.047 C 
HETATM    2  C   UNL     1      40.137 -11.995   5.481  1.00  0.00     0.073 C 
HETATM    3  C   UNL     1      40.247 -13.349   4.691  1.00  0.00     0.133 C 
HETATM    4  C   UNL     1      41.493 -14.240   5.030  1.00  0.00     0.074 C 
HETATM    5  C   UNL     1      42.544 -13.505   5.795  1.00  0.00     0.030 A 
HETATM    6  C   UNL     1      42.536 -12.143   6.001  1.00  0.00     0.042 A 
HETATM    7  N   UNL     1      43.637 -11.844   6.753  1.00  0.00    -0.279 N 
HETATM    8  H   UNL     1      43.952 -10.939   7.089  1.00  0.00     0.189 HD
HETATM    9  N   UNL     1      44.332 -12.945   7.113  1.00  0.00    -0.149 NA
HETATM   10  C   UNL     1      43.657 -13.925   6.525  1.00  0.00     0.190 A 
HETATM   11  C   UNL     1      41.477 -11.207   5.556  1.00  0.00     0.097 C 
ENDROOT
BRANCH   4  12
HETATM   12  C   UNL     1      42.223 -14.877   3.852  1.00  0.00    -0.047 A 
HETATM   13  C   UNL     1      42.240 -16.270   3.635  1.00  0.00     0.027 A 
HETATM   14  C   UNL     1      42.943 -16.817   2.562  1.00  0.00     0.011 A 
HETATM   15 BR   UNL     1      42.953 -18.691   2.308  1.00  0.00    -0.051 Br
HETATM   16  C   UNL     1      43.640 -15.996   1.682  1.00  0.00     0.019 A 
HETATM   17  C   UNL     1      43.636 -14.616   1.881  1.00  0.00     0.002 A 
HETATM   18  C   UNL     1      42.935 -14.061   2.956  1.00  0.00     0.008 A 
ENDBRANCH   4  12
BRANCH   3  19
HETATM   19  C   UNL     1      40.084 -13.136   3.200  1.00  0.00     0.266 C 
HETATM   20  O   UNL     1      40.522 -12.180   2.575  1.00  0.00    -0.265 OA
BRANCH  19  21
HETATM   21  O   UNL     1      39.381 -14.173   2.660  1.00  0.00    -0.326 OA
HETATM   22  C   UNL     1      39.766 -14.519   1.329  1.00  0.00     0.213 C 
ENDBRANCH  19  21
ENDBRANCH   3  19
BRANCH   2  23
HETATM   23  O   UNL     1      39.710 -12.314   6.829  1.00  0.00    -0.389 OA
HETATM   24  H   UNL     1      40.428 -12.079   7.446  1.00  0.00     0.210 HD
ENDBRANCH   2  23
BRANCH  10  25
HETATM   25  O   UNL     1      44.114 -15.150   6.751  1.00  0.00    -0.343 OA
HETATM   26  H   UNL     1      43.657 -15.437   7.560  1.00  0.00     0.219 HD
ENDBRANCH  10  25
TORSDOF 5
ENDMDL
MODEL 5
REMARK VINA RESULT:      -6.5      2.471      4.231
REMARK  5 active torsions:
REMARK  status: ('A' for Active; 'I' for Inactive)
REMARK    1  A    between atoms: C_2  and  O_3 
REMARK    2  A    between atoms: C_4  and  C_5 
REMARK    3  A    between atoms: C_5  and  O_6 
REMARK    4  A    between atoms: C_9  and  C_10 
REMARK    5  A    between atoms: C_22  and  O_23 
ROOT
HETATM    1  C   UNL     1      45.116 -11.450   6.600  1.00  0.00     0.047 C 
HETATM    2  C   UNL     1      43.854 -12.314   6.748  1.00  0.00     0.073 C 
HETATM    3  C   UNL     1      42.622 -11.763   5.944  1.00  0.00     0.133 C 
HETATM    4  C   UNL     1      41.371 -12.708   5.876  1.00  0.00     0.074 C 
HETATM    5  C   UNL     1      41.676 -14.108   6.295  1.00  0.00     0.030 A 
HETATM    6  C   UNL     1      42.949 -14.588   6.512  1.00  0.00     0.042 A 
HETATM    7  N   UNL     1      42.825 -15.893   6.898  1.00  0.00    -0.279 N 
HETATM    8  H   UNL     1      43.555 -16.559   7.134  1.00  0.00     0.189 HD
HETATM    9  N   UNL     1      41.536 -16.278   7.013  1.00  0.00    -0.149 NA
HETATM   10  C   UNL     1      40.869 -15.192   6.645  1.00  0.00     0.190 A 
HETATM   11  C   UNL     1      44.198 -13.797   6.423  1.00  0.00     0.097 C 
ENDROOT
BRANCH   4  12
HETATM   12  C   UNL     1      40.678 -12.833   4.523  1.00  0.00    -0.047 A 
HETATM   13  C   UNL     1      41.079 -13.774   3.551  1.00  0.00     0.027 A 
HETATM   14  C   UNL     1      40.438 -13.838   2.313  1.00  0.00     0.011 A 
HETATM   15 BR   UNL     1      41.009 -15.104   1.031  1.00  0.00    -0.051 Br
HETATM   16  C   UNL     1      39.389 -12.976   2.016  1.00  0.00     0.019 A 
HETATM   17  C   UNL     1      38.979 -12.039   2.964  1.00  0.00     0.002 A 
HETATM   18  C   UNL     1      39.618 -11.966   4.205  1.00  0.00     0.008 A 
ENDBRANCH   4  12
BRANCH   3  19
HETATM   19  C   UNL     1      43.033 -11.257   4.576  1.00  0.00     0.266 C 
HETATM   20  O   UNL     1      43.748 -11.863   3.790  1.00  0.00    -0.265 OA
BRANCH  19  21
HETATM   21  O   UNL     1      42.482 -10.030   4.353  1.00  0.00    -0.326 OA
HETATM   22  C   UNL     1      41.981  -9.384   5.523  1.00  0.00     0.213 C 
ENDBRANCH  19  21
ENDBRANCH   3  19
BRANCH   2  23
HETATM   23  O   UNL     1      43.531 -12.211   8.158  1.00  0.00    -0.389 OA
HETATM   24  H   UNL     1      42.897 -11.480   8.279  1.00  0.00     0.210 HD
ENDBRANCH   2  23
BRANCH  10  25
HETATM   25  O   UNL     1      39.547 -15.285   6.705  1.00  0.00    -0.343 OA
HETATM   26  H   UNL     1      39.281 -14.602   7.345  1.00  0.00     0.219 HD
ENDBRANCH  10  25
TORSDOF 5
ENDMDL
MODEL 6
REMARK VINA RESULT:      -6.5      2.115      2.771
REMARK  5 active torsions:
REMARK  status: ('A' for Active; 'I' for Inactive)
REMARK    1  A    between atoms: C_2  and  O_3 
REMARK    2  A    between atoms: C_4  and  C_5 
REMARK    3  A    between atoms: C_5  and  O_6 
REMARK    4  A    between atoms: C_9  and  C_10 
REMARK    5  A    between atoms: C_22  and  O_23 
ROOT
HETATM    1  C   UNL     1      42.884 -18.123   2.821  1.00  0.00     0.047 C 
HETATM    2  C   UNL     1      43.140 -17.082   3.922  1.00  0.00     0.073 C 
HETATM    3  C   UNL     1      42.836 -15.609   3.471  1.00  0.00     0.133 C 
HETATM    4  C   UNL     1      42.866 -14.526   4.607  1.00  0.00     0.074 C 
HETATM    5  C   UNL     1      42.842 -15.118   5.977  1.00  0.00     0.030 A 
HETATM    6  C   UNL     1      42.603 -16.450   6.237  1.00  0.00     0.042 A 
HETATM    7  N   UNL     1      42.682 -16.615   7.591  1.00  0.00    -0.279 N 
HETATM    8  H   UNL     1      42.555 -17.461   8.138  1.00  0.00     0.189 HD
HETATM    9  N   UNL     1      43.028 -15.478   8.231  1.00  0.00    -0.149 NA
HETATM   10  C   UNL     1      43.117 -14.597   7.242  1.00  0.00     0.190 A 
HETATM   11  C   UNL     1      42.390 -17.505   5.219  1.00  0.00     0.097 C 
ENDROOT
BRANCH   4  12
HETATM   12  C   UNL     1      41.747 -13.489   4.596  1.00  0.00    -0.047 A 
HETATM   13  C   UNL     1      41.804 -12.323   3.805  1.00  0.00     0.027 A 
HETATM   14  C   UNL     1      40.773 -11.383   3.845  1.00  0.00     0.011 A 
HETATM   15 BR   UNL     1      40.887  -9.826   2.779  1.00  0.00    -0.051 Br
HETATM   16  C   UNL     1      39.668 -11.581   4.665  1.00  0.00     0.019 A 
HETATM   17  C   UNL     1      39.596 -12.727   5.455  1.00  0.00     0.002 A 
HETATM   18  C   UNL     1      40.626 -13.672   5.423  1.00  0.00     0.008 A 
ENDBRANCH   4  12
BRANCH   3  19
HETATM   19  C   UNL     1      41.572 -15.531   2.640  1.00  0.00     0.266 C 
HETATM   20  O   UNL     1      40.469 -15.915   3.003  1.00  0.00    -0.265 OA
BRANCH  19  21
HETATM   21  O   UNL     1      41.849 -14.965   1.430  1.00  0.00    -0.326 OA
HETATM   22  C   UNL     1      40.701 -14.506   0.715  1.00  0.00     0.213 C 
ENDBRANCH  19  21
ENDBRANCH   3  19
BRANCH   2  23
HETATM   23  O   UNL     1      44.567 -17.177   4.160  1.00  0.00    -0.389 OA
HETATM   24  H   UNL     1      44.756 -18.042   4.567  1.00  0.00     0.210 HD
ENDBRANCH   2  23
BRANCH  10  25
HETATM   25  O   UNL     1      43.491 -13.374   7.597  1.00  0.00    -0.343 OA
HETATM   26  H   UNL     1      42.815 -13.086   8.235  1.00  0.00     0.219 HD
ENDBRANCH  10  25
TORSDOF 5
ENDMDL
MODEL 7
REMARK VINA RESULT:      -6.4      2.097      4.379
REMARK  5 active torsions:
REMARK  status: ('A' for Active; 'I' for Inactive)
REMARK    1  A    between atoms: C_2  and  O_3 
REMARK    2  A    between atoms: C_4  and  C_5 
REMARK    3  A    between atoms: C_5  and  O_6 
REMARK    4  A    between atoms: C_9  and  C_10 
REMARK    5  A    between atoms: C_22  and  O_23 
ROOT
HETATM    1  C   UNL     1      43.602 -10.231   6.267  1.00  0.00     0.047 C 
HETATM    2  C   UNL     1      42.752 -11.511   6.250  1.00  0.00     0.073 C 
HETATM    3  C   UNL     1      42.128 -11.828   4.844  1.00  0.00     0.133 C 
HETATM    4  C   UNL     1      41.433 -13.228   4.703  1.00  0.00     0.074 C 
HETATM    5  C   UNL     1      41.774 -14.162   5.817  1.00  0.00     0.030 A 
HETATM    6  C   UNL     1      42.753 -13.918   6.755  1.00  0.00     0.042 A 
HETATM    7  N   UNL     1      42.757 -14.978   7.616  1.00  0.00    -0.279 N 
HETATM    8  H   UNL     1      43.350 -15.140   8.425  1.00  0.00     0.189 HD
HETATM    9  N   UNL     1      41.786 -15.875   7.337  1.00  0.00    -0.149 NA
HETATM   10  C   UNL     1      41.214 -15.362   6.255  1.00  0.00     0.190 A 
HETATM   11  C   UNL     1      43.576 -12.689   6.847  1.00  0.00     0.097 C 
ENDROOT
BRANCH   4  12
HETATM   12  C   UNL     1      41.714 -14.009   3.423  1.00  0.00    -0.047 A 
HETATM   13  C   UNL     1      40.874 -13.937   2.293  1.00  0.00     0.027 A 
HETATM   14  C   UNL     1      41.149 -14.689   1.150  1.00  0.00     0.011 A 
HETATM   15 BR   UNL     1      39.995 -14.575  -0.343  1.00  0.00    -0.051 Br
HETATM   16  C   UNL     1      42.260 -15.523   1.104  1.00  0.00     0.019 A 
HETATM   17  C   UNL     1      43.102 -15.608   2.212  1.00  0.00     0.002 A 
HETATM   18  C   UNL     1      42.831 -14.859   3.362  1.00  0.00     0.008 A 
ENDBRANCH   4  12
BRANCH   3  19
HETATM   19  C   UNL     1      43.116 -11.565   3.726  1.00  0.00     0.266 C 
HETATM   20  O   UNL     1      44.284 -11.930   3.721  1.00  0.00    -0.265 OA
BRANCH  19  21
HETATM   21  O   UNL     1      42.507 -10.867   2.725  1.00  0.00    -0.326 OA
HETATM   22  C   UNL     1      41.450 -10.011   3.159  1.00  0.00     0.213 C 
ENDBRANCH  19  21
ENDBRANCH   3  19
BRANCH   2  23
HETATM   23  O   UNL     1      41.657 -11.208   7.151  1.00  0.00    -0.389 OA
HETATM   24  H   UNL     1      41.800 -11.690   7.986  1.00  0.00     0.210 HD
ENDBRANCH   2  23
BRANCH  10  25
HETATM   25  O   UNL     1      40.177 -16.042   5.781  1.00  0.00    -0.343 OA
HETATM   26  H   UNL     1      39.663 -16.288   6.569  1.00  0.00     0.219 HD
ENDBRANCH  10  25
TORSDOF 5
ENDMDL
MODEL 8
REMARK VINA RESULT:      -6.3     15.796     17.563
REMARK  5 active torsions:
REMARK  status: ('A' for Active; 'I' for Inactive)
REMARK    1  A    between atoms: C_2  and  O_3 
REMARK    2  A    between atoms: C_4  and  C_5 
REMARK    3  A    between atoms: C_5  and  O_6 
REMARK    4  A    between atoms: C_9  and  C_10 
REMARK    5  A    between atoms: C_22  and  O_23 
ROOT
HETATM    1  C   UNL     1      51.332 -31.598   0.805  1.00  0.00     0.047 C 
HETATM    2  C   UNL     1      50.133 -30.728   1.212  1.00  0.00     0.073 C 
HETATM    3  C   UNL     1      49.547 -29.879   0.029  1.00  0.00     0.133 C 
HETATM    4  C   UNL     1      48.194 -29.140   0.321  1.00  0.00     0.074 C 
HETATM    5  C   UNL     1      47.514 -29.635   1.554  1.00  0.00     0.030 A 
HETATM    6  C   UNL     1      47.903 -30.758   2.251  1.00  0.00     0.042 A 
HETATM    7  N   UNL     1      47.064 -30.879   3.321  1.00  0.00    -0.279 N 
HETATM    8  H   UNL     1      47.052 -31.591   4.045  1.00  0.00     0.189 HD
HETATM    9  N   UNL     1      46.185 -29.856   3.406  1.00  0.00    -0.149 NA
HETATM   10  C   UNL     1      46.476 -29.128   2.336  1.00  0.00     0.190 A 
HETATM   11  C   UNL     1      49.072 -31.612   1.931  1.00  0.00     0.097 C 
ENDROOT
BRANCH   4  12
HETATM   12  C   UNL     1      47.132 -29.192  -0.774  1.00  0.00    -0.047 A 
HETATM   13  C   UNL     1      46.252 -30.285  -0.923  1.00  0.00     0.027 A 
HETATM   14  C   UNL     1      45.313 -30.309  -1.955  1.00  0.00     0.011 A 
HETATM   15 BR   UNL     1      44.157 -31.794  -2.132  1.00  0.00    -0.051 Br
HETATM   16  C   UNL     1      45.225 -29.253  -2.854  1.00  0.00     0.019 A 
HETATM   17  C   UNL     1      46.088 -28.165  -2.723  1.00  0.00     0.002 A 
HETATM   18  C   UNL     1      47.033 -28.134  -1.693  1.00  0.00     0.008 A 
ENDBRANCH   4  12
BRANCH   3  19
HETATM   19  C   UNL     1      49.496 -30.678  -1.257  1.00  0.00     0.266 C 
HETATM   20  O   UNL     1      48.930 -31.754  -1.393  1.00  0.00    -0.265 OA
BRANCH  19  21
HETATM   21  O   UNL     1      50.171 -30.016  -2.240  1.00  0.00    -0.326 OA
HETATM   22  C   UNL     1      51.457 -30.557  -2.543  1.00  0.00     0.213 C 
ENDBRANCH  19  21
ENDBRANCH   3  19
BRANCH   2  23
HETATM   23  O   UNL     1      50.693 -29.800   2.176  1.00  0.00    -0.389 OA
HETATM   24  H   UNL     1      50.446 -30.097   3.071  1.00  0.00     0.210 HD
ENDBRANCH   2  23
BRANCH  10  25
HETATM   25  O   UNL     1      45.769 -28.013   2.194  1.00  0.00    -0.343 OA
HETATM   26  H   UNL     1      44.843 -28.296   2.287  1.00  0.00     0.219 HD
ENDBRANCH  10  25
TORSDOF 5
ENDMDL
MODEL 9
REMARK VINA RESULT:      -6.3      2.470      4.474
REMARK  5 active torsions:
REMARK  status: ('A' for Active; 'I' for Inactive)
REMARK    1  A    between atoms: C_2  and  O_3 
REMARK    2  A    between atoms: C_4  and  C_5 
REMARK    3  A    between atoms: C_5  and  O_6 
REMARK    4  A    between atoms: C_9  and  C_10 
REMARK    5  A    between atoms: C_22  and  O_23 
ROOT
HETATM    1  C   UNL     1      42.468 -10.128   5.149  1.00  0.00     0.047 C 
HETATM    2  C   UNL     1      41.967 -11.496   5.637  1.00  0.00     0.073 C 
HETATM    3  C   UNL     1      41.080 -12.250   4.583  1.00  0.00     0.133 C 
HETATM    4  C   UNL     1      40.719 -13.737   4.930  1.00  0.00     0.074 C 
HETATM    5  C   UNL     1      41.554 -14.297   6.033  1.00  0.00     0.030 A 
HETATM    6  C   UNL     1      42.665 -13.669   6.554  1.00  0.00     0.042 A 
HETATM    7  N   UNL     1      43.147 -14.469   7.551  1.00  0.00    -0.279 N 
HETATM    8  H   UNL     1      43.956 -14.325   8.147  1.00  0.00     0.189 HD
HETATM    9  N   UNL     1      42.374 -15.556   7.761  1.00  0.00    -0.149 NA
HETATM   10  C   UNL     1      41.429 -15.429   6.839  1.00  0.00     0.190 A 
HETATM   11  C   UNL     1      43.172 -12.336   6.153  1.00  0.00     0.097 C 
ENDROOT
BRANCH   4  12
HETATM   12  C   UNL     1      40.819 -14.751   3.794  1.00  0.00    -0.047 A 
HETATM   13  C   UNL     1      41.877 -15.678   3.698  1.00  0.00     0.027 A 
HETATM   14  C   UNL     1      41.949 -16.571   2.628  1.00  0.00     0.011 A 
HETATM   15 BR   UNL     1      43.388 -17.793   2.526  1.00  0.00    -0.051 Br
HETATM   16  C   UNL     1      40.975 -16.564   1.636  1.00  0.00     0.019 A 
HETATM   17  C   UNL     1      39.922 -15.653   1.714  1.00  0.00     0.002 A 
HETATM   18  C   UNL     1      39.845 -14.754   2.781  1.00  0.00     0.008 A 
ENDBRANCH   4  12
BRANCH   3  19
HETATM   19  C   UNL     1      41.641 -12.108   3.183  1.00  0.00     0.266 C 
HETATM   20  O   UNL     1      42.745 -12.498   2.827  1.00  0.00    -0.265 OA
BRANCH  19  21
HETATM   21  O   UNL     1      40.730 -11.488   2.380  1.00  0.00    -0.326 OA
HETATM   22  C   UNL     1      40.995 -11.606   0.982  1.00  0.00     0.213 C 
ENDBRANCH  19  21
ENDBRANCH   3  19
BRANCH   2  23
HETATM   23  O   UNL     1      41.115 -11.168   6.764  1.00  0.00    -0.389 OA
HETATM   24  H   UNL     1      40.805 -10.249   6.662  1.00  0.00     0.210 HD
ENDBRANCH   2  23
BRANCH  10  25
HETATM   25  O   UNL     1      40.491 -16.368   6.849  1.00  0.00    -0.343 OA
HETATM   26  H   UNL     1      40.154 -16.369   7.761  1.00  0.00     0.219 HD
ENDBRANCH  10  25
TORSDOF 5
ENDMDL
MODEL 10
REMARK VINA RESULT:      -6.2     15.834     17.887
REMARK  5 active torsions:
REMARK  status: ('A' for Active; 'I' for Inactive)
REMARK    1  A    between atoms: C_2  and  O_3 
REMARK    2  A    between atoms: C_4  and  C_5 
REMARK    3  A    between atoms: C_5  and  O_6 
REMARK    4  A    between atoms: C_9  and  C_10 
REMARK    5  A    between atoms: C_22  and  O_23 
ROOT
HETATM    1  C   UNL     1      48.360 -29.210   3.684  1.00  0.00     0.047 C 
HETATM    2  C   UNL     1      47.986 -28.787   2.255  1.00  0.00     0.073 C 
HETATM    3  C   UNL     1      48.957 -29.356   1.160  1.00  0.00     0.133 C 
HETATM    4  C   UNL     1      48.509 -29.144  -0.329  1.00  0.00     0.074 C 
HETATM    5  C   UNL     1      47.077 -28.740  -0.455  1.00  0.00     0.030 A 
HETATM    6  C   UNL     1      46.177 -28.757   0.588  1.00  0.00     0.042 A 
HETATM    7  N   UNL     1      44.985 -28.305   0.097  1.00  0.00    -0.279 N 
HETATM    8  H   UNL     1      44.100 -28.191   0.580  1.00  0.00     0.189 HD
HETATM    9  N   UNL     1      45.069 -27.927  -1.197  1.00  0.00    -0.149 NA
HETATM   10  C   UNL     1      46.331 -28.199  -1.502  1.00  0.00     0.190 A 
HETATM   11  C   UNL     1      46.487 -29.116   1.992  1.00  0.00     0.097 C 
ENDROOT
BRANCH   4  12
HETATM   12  C   UNL     1      48.678 -30.331  -1.272  1.00  0.00    -0.047 A 
HETATM   13  C   UNL     1      47.656 -31.279  -1.487  1.00  0.00     0.027 A 
HETATM   14  C   UNL     1      47.858 -32.367  -2.336  1.00  0.00     0.011 A 
HETATM   15 BR   UNL     1      46.469 -33.624  -2.592  1.00  0.00    -0.051 Br
HETATM   16  C   UNL     1      49.074 -32.536  -2.989  1.00  0.00     0.019 A 
HETATM   17  C   UNL     1      50.096 -31.610  -2.788  1.00  0.00     0.002 A 
HETATM   18  C   UNL     1      49.902 -30.518  -1.937  1.00  0.00     0.008 A 
ENDBRANCH   4  12
BRANCH   3  19
HETATM   19  C   UNL     1      49.333 -30.796   1.446  1.00  0.00     0.266 C 
HETATM   20  O   UNL     1      48.536 -31.702   1.646  1.00  0.00    -0.265 OA
BRANCH  19  21
HETATM   21  O   UNL     1      50.690 -30.929   1.439  1.00  0.00    -0.326 OA
HETATM   22  C   UNL     1      51.156 -32.221   1.051  1.00  0.00     0.213 C 
ENDBRANCH  19  21
ENDBRANCH   3  19
BRANCH   2  23
HETATM   23  O   UNL     1      48.147 -27.345   2.270  1.00  0.00    -0.389 OA
HETATM   24  H   UNL     1      47.283 -26.939   2.464  1.00  0.00     0.210 HD
ENDBRANCH   2  23
BRANCH  10  25
HETATM   25  O   UNL     1      46.702 -27.879  -2.736  1.00  0.00    -0.343 OA
HETATM   26  H   UNL     1      46.277 -28.547  -3.301  1.00  0.00     0.219 HD
ENDBRANCH  10  25
TORSDOF 5
ENDMDL
